REMARK  Name = ZINC34784949
REMARK  6 active torsions:
REMARK  status: ('A' for Active; 'I' for Inactive)
REMARK    1  A    between atoms: C_1  and  C_2
REMARK    2  A    between atoms: C_2  and  C_31
REMARK    3  A    between atoms: C_7  and  N_11
REMARK    4  A    between atoms: C_8  and  C_9
REMARK    5  A    between atoms: N_17  and  C_20
REMARK    6  A    between atoms: C_20  and  C_21
REMARK                            x       y       z     vdW  Elec       q    Type
REMARK                         _______ _______ _______ _____ _____    ______ ____
ROOT
ATOM      1  N   UNL     1       1.678  -6.768  -0.921  0.00  0.00    -0.263 N 
ATOM      2  C   UNL     1       1.830  -6.547  -2.241  0.00  0.00    +0.307 C 
ATOM      3  O   UNL     1       1.621  -5.441  -2.701  0.00  0.00    -0.252 OA
ATOM      4  N   UNL     1       2.214  -7.553  -3.053  0.00  0.00    -0.283 N 
ATOM      5  C   UNL     1       2.497  -7.308  -4.475  0.00  0.00    +0.124 C 
ATOM      6  C   UNL     1       3.872  -7.899  -4.806  0.00  0.00    +0.104 C 
ATOM      7  N   UNL     1       3.905  -9.310  -4.400  0.00  0.00    -0.291 NA
ATOM      8  C   UNL     1       3.740  -9.450  -2.947  0.00  0.00    +0.104 C 
ATOM      9  C   UNL     1       2.366  -8.922  -2.538  0.00  0.00    +0.124 C 
ATOM     10  H   UNL     1       1.772  -7.666  -0.565  0.00  0.00    +0.157 HD
ENDROOT
BRANCH   1  17
ATOM     11  C   UNL     1       0.343  -2.568   5.216  0.00  0.00    +0.041 C 
ATOM     12  C   UNL     1       0.818  -2.826   3.785  0.00  0.00    +0.068 C 
ATOM     13  C   UNL     1       0.662  -4.316   3.459  0.00  0.00    +0.071 C 
ATOM     14  C   UNL     1       0.903  -4.496   1.967  0.00  0.00    -0.013 A 
ATOM     15  C   UNL     1       0.848  -3.429   1.136  0.00  0.00    +0.022 A 
ATOM     16  S   UNL     1       1.183  -4.091  -0.466  0.00  0.00    -0.075 S 
ATOM     17  C   UNL     1       1.387  -5.711  -0.069  0.00  0.00    +0.091 A 
ATOM     18  C   UNL     1       1.199  -5.750   1.304  0.00  0.00    +0.084 A 
ATOM     19  C   UNL     1       0.561  -2.017   1.540  0.00  0.00    +0.203 C 
ATOM     20  O   UNL     1       0.040  -2.039   2.878  0.00  0.00    -0.368 OA
ATOM     21  C   UNL     1       2.292  -2.434   3.661  0.00  0.00    +0.041 C 
BRANCH  18  22
ATOM     22  C   UNL     1       1.292  -6.978   2.036  0.00  0.00    +0.102 C 
ATOM     23  N   UNL     1       1.367  -7.951   2.617  0.00  0.00    -0.191 NA
ENDBRANCH  18  22
ENDBRANCH   1  17
BRANCH   7  24
ATOM     24  C   UNL     1       5.142  -9.960  -4.854  0.00  0.00    +0.180 C 
BRANCH  24  25
ATOM     25  C   UNL     1       5.036 -11.448  -4.640  0.00  0.00    +0.230 C 
ATOM     26  O   UNL     1       4.029 -11.921  -4.156  0.00  0.00    -0.274 OA
ATOM     27  N   UNL     1       6.059 -12.253  -4.986  0.00  0.00    -0.300 N 
ATOM     28  C   UNL     1       7.288 -11.695  -5.567  0.00  0.00    +0.108 C 
ATOM     29  C   UNL     1       8.487 -12.182  -4.748  0.00  0.00    +0.019 C 
ATOM     30  C   UNL     1       8.464 -13.711  -4.676  0.00  0.00    +0.003 C 
ATOM     31  C   UNL     1       7.182 -14.171  -3.978  0.00  0.00    +0.019 C 
ATOM     32  C   UNL     1       5.971 -13.706  -4.783  0.00  0.00    +0.108 C 
ENDBRANCH  24  25
ENDBRANCH   7  24
TORSDOF 4
