REMARK  Name = ZINC08778499
REMARK  8 active torsions:
REMARK  status: ('A' for Active; 'I' for Inactive)
REMARK    1  A    between atoms: C_1  and  C_2
REMARK    2  A    between atoms: C_5  and  N_8
REMARK    3  A    between atoms: C_10  and  C_29
REMARK    4  A    between atoms: N_20  and  C_25
REMARK    5  A    between atoms: N_23  and  C_24
REMARK    6  A    between atoms: C_25  and  C_26
REMARK    7  A    between atoms: C_26  and  C_27
REMARK    8  A    between atoms: C_27  and  O_28
REMARK                            x       y       z     vdW  Elec       q    Type
REMARK                         _______ _______ _______ _____ _____    ______ ____
ROOT
ATOM      1  N   UNL     1       0.059  -4.169  -0.021  0.00  0.00    -0.271 N 
ATOM      2  C   UNL     1      -0.053  -4.940  -1.273  0.00  0.00    +0.118 C 
ATOM      3  C   UNL     1       0.978  -6.074  -1.241  0.00  0.00    +0.024 C 
ATOM      4  C   UNL     1       0.660  -7.027  -0.083  0.00  0.00    +0.130 C 
ATOM      5  N   UNL     1       0.462  -6.243   1.138  0.00  0.00    -0.306 N 
ATOM      6  C   UNL     1       0.189  -4.902   1.146  0.00  0.00    +0.205 A 
ATOM      7  N   UNL     1       0.067  -4.483   2.386  0.00  0.00    -0.196 NA
ATOM      8  C   UNL     1       0.254  -5.495   3.218  0.00  0.00    +0.170 A 
ATOM      9  C   UNL     1       0.509  -6.641   2.448  0.00  0.00    +0.153 A 
ATOM     10  C   UNL     1       0.747  -7.882   3.071  0.00  0.00    +0.282 A 
ATOM     11  O   UNL     1       0.969  -8.891   2.426  0.00  0.00    -0.265 OA
ATOM     12  N   UNL     1       0.714  -7.894   4.427  0.00  0.00    -0.259 N 
ATOM     13  C   UNL     1       0.470  -6.793   5.153  0.00  0.00    +0.333 A 
ATOM     14  O   UNL     1       0.459  -6.890   6.365  0.00  0.00    -0.246 OA
ATOM     15  N   UNL     1       0.236  -5.579   4.603  0.00  0.00    -0.280 N 
ATOM     16  C   UNL     1      -0.025  -4.402   5.435  0.00  0.00    +0.155 C 
ATOM     17  C   UNL     1       0.929  -6.844  -2.562  0.00  0.00    +0.011 C 
ENDROOT
BRANCH   1  22
ATOM     18  C   UNL     1      -0.022   1.503   0.011  0.00  0.00    +0.044 C 
ATOM     19  C   UNL     1      -0.001  -0.004   0.002  0.00  0.00    -0.050 A 
ATOM     20  C   UNL     1       0.257  -0.697   1.171  0.00  0.00    +0.005 A 
ATOM     21  C   UNL     1       0.273  -2.078   1.168  0.00  0.00    +0.024 A 
ATOM     22  C   UNL     1       0.039  -2.771  -0.013  0.00  0.00    +0.036 A 
ATOM     23  C   UNL     1      -0.214  -2.072  -1.186  0.00  0.00    +0.024 A 
ATOM     24  C   UNL     1      -0.233  -0.691  -1.175  0.00  0.00    +0.005 A 
ENDBRANCH   1  22
BRANCH  12  25
ATOM     25  C   UNL     1       0.954  -9.159   5.125  0.00  0.00    +0.132 C 
BRANCH  25  26
ATOM     26  C   UNL     1       2.450  -9.311   5.405  0.00  0.00    +0.049 C 
BRANCH  26  27
ATOM     27  C   UNL     1       2.700 -10.633   6.135  0.00  0.00    +0.157 C 
BRANCH  27  28
ATOM     28  O   UNL     1       4.098 -10.775   6.396  0.00  0.00    -0.395 OA
ATOM     29  H   UNL     1       4.331 -11.592   6.858  0.00  0.00    +0.209 HD
ENDBRANCH  27  28
ENDBRANCH  26  27
ENDBRANCH  25  26
ENDBRANCH  12  25
TORSDOF 5
