REMARK  Name = ZINC28124683
REMARK  7 active torsions:
REMARK  status: ('A' for Active; 'I' for Inactive)
REMARK    1  A    between atoms: C_1  and  C_2
REMARK    2  A    between atoms: C_2  and  C_24
REMARK    3  A    between atoms: N_5  and  C_9
REMARK    4  A    between atoms: C_9  and  C_10
REMARK    5  A    between atoms: N_12  and  C_13
REMARK    6  A    between atoms: C_13  and  C_15
REMARK    7  A    between atoms: C_13  and  C_21
REMARK                            x       y       z     vdW  Elec       q    Type
REMARK                         _______ _______ _______ _____ _____    ______ ____
ROOT
ATOM      1  C   UNL     1      -0.019   1.526   0.010  0.00  0.00    +0.050 C 
ATOM      2  C   UNL     1       0.002  -0.004   0.002  0.00  0.00    +0.168 C 
ATOM      3  C   UNL     1       0.815  -0.520  -1.169  0.00  0.00    +0.254 C 
ATOM      4  O   UNL     1       0.595  -0.342  -2.348  0.00  0.00    -0.272 OA
ATOM      5  N   UNL     1       1.833  -1.217  -0.627  0.00  0.00    -0.215 N 
ATOM      6  C   UNL     1       1.777  -1.214   0.710  0.00  0.00    +0.310 C 
ATOM      7  O   UNL     1       2.586  -1.776   1.421  0.00  0.00    -0.252 OA
ATOM      8  N   UNL     1       0.724  -0.519   1.178  0.00  0.00    -0.279 N 
ATOM      9  H   UNL     1       0.487  -0.383   2.109  0.00  0.00    +0.152 HD
ENDROOT
BRANCH   2  10
ATOM     10  C   UNL     1      -1.401  -0.551  -0.040  0.00  0.00    +0.138 A 
ATOM     11  C   UNL     1      -2.153  -0.819   1.037  0.00  0.00    +0.056 A 
ATOM     12  C   UNL     1      -3.432  -1.328   0.527  0.00  0.00    +0.020 A 
ATOM     13  C   UNL     1      -4.611  -1.774   1.122  0.00  0.00    +0.011 A 
ATOM     14  C   UNL     1      -5.649  -2.196   0.338  0.00  0.00    +0.001 A 
ATOM     15  C   UNL     1      -5.535  -2.184  -1.044  0.00  0.00    +0.004 A 
ATOM     16  C   UNL     1      -4.376  -1.747  -1.651  0.00  0.00    +0.047 A 
ATOM     17  C   UNL     1      -3.310  -1.313  -0.873  0.00  0.00    +0.135 A 
ATOM     18  O   UNL     1      -2.083  -0.837  -1.163  0.00  0.00    -0.457 OA
ENDBRANCH   2  10
BRANCH   5  19
ATOM     19  C   UNL     1       2.871  -1.896  -1.406  0.00  0.00    +0.213 C 
BRANCH  19  20
ATOM     20  C   UNL     1       4.020  -0.950  -1.644  0.00  0.00    +0.231 C 
ATOM     21  O   UNL     1       3.975   0.180  -1.206  0.00  0.00    -0.274 OA
ATOM     22  N   UNL     1       5.097  -1.360  -2.343  0.00  0.00    -0.307 N 
ATOM     23  H   UNL     1       5.133  -2.264  -2.693  0.00  0.00    +0.149 HD
BRANCH  22  24
ATOM     24  C   UNL     1       6.213  -0.440  -2.574  0.00  0.00    +0.106 C 
BRANCH  24  25
ATOM     25  C   UNL     1       7.477  -1.230  -2.799  0.00  0.00    -0.027 A 
ATOM     26  C   UNL     1       7.444  -2.385  -3.557  0.00  0.00    +0.005 A 
ATOM     27  C   UNL     1       8.603  -3.110  -3.763  0.00  0.00    +0.000 A 
ATOM     28  C   UNL     1       9.795  -2.679  -3.211  0.00  0.00    +0.000 A 
ATOM     29  C   UNL     1       9.828  -1.523  -2.454  0.00  0.00    +0.000 A 
ATOM     30  C   UNL     1       8.670  -0.796  -2.251  0.00  0.00    +0.005 A 
ENDBRANCH  24  25
BRANCH  24  31
ATOM     31  C   UNL     1       5.921   0.417  -3.808  0.00  0.00    +0.014 C 
ATOM     32  C   UNL     1       6.058   1.934  -3.663  0.00  0.00    +0.006 C 
ATOM     33  C   UNL     1       4.671   1.298  -3.776  0.00  0.00    +0.006 C 
ENDBRANCH  24  31
ENDBRANCH  22  24
ENDBRANCH  19  20
ENDBRANCH   5  19
TORSDOF 6
