REMARK  Name = ZINC03493997
REMARK  10 active torsions:
REMARK  status: ('A' for Active; 'I' for Inactive)
REMARK    1  A    between atoms: C_1  and  C_2
REMARK    2  A    between atoms: C_2  and  N_3
REMARK    3  A    between atoms: C_7  and  C_9
REMARK    4  A    between atoms: C_9  and  C_11
REMARK    5  A    between atoms: C_9  and  S_12
REMARK    6  A    between atoms: S_12  and  C_13
REMARK    7  A    between atoms: N_23  and  C_24
REMARK    8  A    between atoms: C_27  and  O_30
REMARK    9  A    between atoms: O_30  and  C_31
REMARK   10  A    between atoms: C_31  and  C_32
REMARK                            x       y       z     vdW  Elec       q    Type
REMARK                         _______ _______ _______ _____ _____    ______ ____
ROOT
ATOM      1  C   UNL     1      -5.504   0.866  -0.125  0.00  0.00    +0.177 A 
ATOM      2  N   UNL     1      -5.304  -0.335   0.360  0.00  0.00    -0.223 NA
ATOM      3  C   UNL     1      -5.909  -1.419  -0.164  0.00  0.00    +0.079 A 
ATOM      4  C   UNL     1      -5.694  -2.700   0.354  0.00  0.00    +0.028 A 
ATOM      5  C   UNL     1      -6.328  -3.772  -0.208  0.00  0.00    +0.002 A 
ATOM      6  C   UNL     1      -7.184  -3.610  -1.290  0.00  0.00    +0.001 A 
ATOM      7  C   UNL     1      -7.414  -2.370  -1.819  0.00  0.00    +0.015 A 
ATOM      8  C   UNL     1      -6.781  -1.258  -1.265  0.00  0.00    +0.065 A 
ATOM      9  C   UNL     1      -6.990   0.097  -1.792  0.00  0.00    +0.267 A 
ATOM     10  O   UNL     1      -7.729   0.299  -2.738  0.00  0.00    -0.267 OA
ATOM     11  N   UNL     1      -6.334   1.113  -1.184  0.00  0.00    -0.255 N 
ENDROOT
BRANCH  11  12
ATOM     12  C   UNL     1      -6.503   2.426  -1.644  0.00  0.00    +0.052 A 
ATOM     13  C   UNL     1      -5.662   2.931  -2.627  0.00  0.00    +0.030 A 
ATOM     14  C   UNL     1      -5.832   4.223  -3.083  0.00  0.00    +0.047 A 
ATOM     15  C   UNL     1      -6.836   5.020  -2.553  0.00  0.00    +0.121 A 
ATOM     16  C   UNL     1      -7.674   4.518  -1.568  0.00  0.00    +0.047 A 
ATOM     17  C   UNL     1      -7.508   3.224  -1.114  0.00  0.00    +0.030 A 
BRANCH  15  18
ATOM     18  O   UNL     1      -6.999   6.294  -2.999  0.00  0.00    -0.492 OA
BRANCH  18  19
ATOM     19  C   UNL     1      -6.101   6.746  -4.015  0.00  0.00    +0.225 C 
ATOM     20  C   UNL     1      -6.437   8.192  -4.386  0.00  0.00    +0.048 C 
ENDBRANCH  18  19
ENDBRANCH  15  18
ENDBRANCH  11  12
BRANCH   1  21
ATOM     21  S   UNL     1      -4.671   2.225   0.624  0.00  0.00    -0.075 S 
BRANCH  21  22
ATOM     22  C   UNL     1      -3.755   1.356   1.921  0.00  0.00    +0.137 C 
ATOM     23  C   UNL     1      -4.740   0.746   2.920  0.00  0.00    +0.029 C 
BRANCH  22  28
ATOM     24  N   UNL     1       0.178   2.311   4.515  0.00  0.00    -0.299 N 
ATOM     25  C   UNL     1      -0.933   2.754   3.895  0.00  0.00    +0.306 C 
ATOM     26  O   UNL     1      -1.204   3.939   3.908  0.00  0.00    -0.252 OA
ATOM     27  N   UNL     1      -1.743   1.884   3.260  0.00  0.00    -0.239 N 
ATOM     28  C   UNL     1      -2.852   2.328   2.636  0.00  0.00    +0.233 C 
ATOM     29  O   UNL     1      -3.123   3.510   2.648  0.00  0.00    -0.274 OA
ATOM     30  H   UNL     1       0.424   1.238   4.503  0.00  0.00    +0.150 HD
ATOM     31  H   UNL     1      -1.500   0.811   3.253  0.00  0.00    +0.159 HD
BRANCH  24  33
ATOM     32  C   UNL     1       2.239   2.500   5.819  0.00  0.00    +0.024 C 
ATOM     33  C   UNL     1       1.059   3.256   5.205  0.00  0.00    +0.102 C 
ENDBRANCH  24  33
ENDBRANCH  22  28
ENDBRANCH  21  22
ENDBRANCH   1  21
TORSDOF 7
