REMARK  Name = ZINC09634237
REMARK  7 active torsions:
REMARK  status: ('A' for Active; 'I' for Inactive)
REMARK    1  A    between atoms: C_4  and  N_7
REMARK    2  A    between atoms: C_9  and  C_12
REMARK    3  A    between atoms: N_13  and  N_14
REMARK    4  A    between atoms: C_15  and  C_17
REMARK    5  A    between atoms: C_20  and  O_34
REMARK    6  A    between atoms: N_23  and  S_24
REMARK    7  A    between atoms: S_24  and  C_27
REMARK                            x       y       z     vdW  Elec       q    Type
REMARK                         _______ _______ _______ _____ _____    ______ ____
ROOT
ATOM      1  N   UNL     1       9.399  -1.847  -0.096  0.00  0.00    -0.206 N 
ATOM      2  C   UNL     1      10.191  -2.937  -0.109  0.00  0.00    +0.251 C 
ATOM      3  O   UNL     1       9.698  -4.046  -0.111  0.00  0.00    -0.272 OA
ATOM      4  H   UNL     1       9.793  -0.961  -0.095  0.00  0.00    +0.177 HD
ENDROOT
BRANCH   2   5
ATOM      5  C   UNL     1      11.690  -2.779  -0.122  0.00  0.00    +0.170 C 
ATOM      6  C   UNL     1      12.153  -2.058   1.161  0.00  0.00    +0.062 C 
ATOM      7  C   UNL     1      12.583  -3.229   2.083  0.00  0.00    +0.132 C 
ATOM      8  C   UNL     1      13.187  -4.224   1.060  0.00  0.00    +0.141 C 
ATOM      9  N   UNL     1      12.332  -4.102  -0.135  0.00  0.00    -0.162 NA
BRANCH   9  10
ATOM     10  S   UNL     1      12.130  -5.262  -1.300  0.00  0.00    +0.062 S 
ATOM     11  O   UNL     1      12.434  -6.508  -0.689  0.00  0.00    -0.153 OA
ATOM     12  O   UNL     1      10.877  -5.002  -1.918  0.00  0.00    -0.153 OA
BRANCH  10  13
ATOM     13  C   UNL     1      13.364  -4.988  -2.527  0.00  0.00    +0.106 A 
ATOM     14  C   UNL     1      13.097  -4.162  -3.603  0.00  0.00    +0.030 A 
ATOM     15  C   UNL     1      14.066  -3.942  -4.563  0.00  0.00    +0.022 A 
ATOM     16  C   UNL     1      15.300  -4.559  -4.454  0.00  0.00    +0.041 A 
ATOM     17  C   UNL     1      15.564  -5.391  -3.380  0.00  0.00    +0.022 A 
ATOM     18  C   UNL     1      14.596  -5.605  -2.418  0.00  0.00    +0.030 A 
ATOM     19 CL   UNL     1      16.516  -4.289  -5.663  0.00  0.00    -0.084 Cl
ENDBRANCH  10  13
ENDBRANCH   9  10
BRANCH   7  20
ATOM     20  O   UNL     1      13.568  -2.804   3.026  0.00  0.00    -0.390 OA
ATOM     21  H   UNL     1      13.938  -3.521   3.559  0.00  0.00    +0.210 HD
ENDBRANCH   7  20
ENDBRANCH   2   5
BRANCH   1  23
ATOM     22  C   UNL     1       7.243  -0.944  -0.072  0.00  0.00    +0.141 C 
ATOM     23  N   UNL     1       8.006  -1.994  -0.084  0.00  0.00    -0.188 NA
BRANCH  22  26
ATOM     24  N   UNL     1       3.623  -0.652  -0.037  0.00  0.00    -0.239 N 
ATOM     25  C   UNL     1       4.847  -0.081  -0.045  0.00  0.00    +0.124 A 
ATOM     26  C   UNL     1       5.776  -1.099  -0.059  0.00  0.00    +0.032 A 
ATOM     27  C   UNL     1       5.062  -2.318  -0.059  0.00  0.00    +0.144 A 
ATOM     28  N   UNL     1       3.786  -2.042  -0.040  0.00  0.00    -0.174 NA
BRANCH  24  32
ATOM     29  C   UNL     1      -0.017   1.379   0.010  0.00  0.00    +0.000 A 
ATOM     30  C   UNL     1       1.170   2.089   0.002  0.00  0.00    +0.002 A 
ATOM     31  C   UNL     1       2.377   1.419  -0.013  0.00  0.00    +0.028 A 
ATOM     32  C   UNL     1       2.400   0.031  -0.021  0.00  0.00    +0.065 A 
ATOM     33  C   UNL     1       1.207  -0.680  -0.014  0.00  0.00    +0.028 A 
ATOM     34  C   UNL     1       0.002  -0.004   0.002  0.00  0.00    +0.002 A 
ENDBRANCH  24  32
ENDBRANCH  22  26
ENDBRANCH   1  23
TORSDOF 7
