REMARK  Name = ZINC63666772
REMARK  9 active torsions:
REMARK  status: ('A' for Active; 'I' for Inactive)
REMARK    1  A    between atoms: C_1  and  C_2
REMARK    2  A    between atoms: C_8  and  C_11
REMARK    3  A    between atoms: C_11  and  C_12
REMARK    4  A    between atoms: C_12  and  N_13
REMARK    5  A    between atoms: C_14  and  C_16
REMARK    6  A    between atoms: C_16  and  C_17
REMARK    7  A    between atoms: C_17  and  C_18
REMARK    8  A    between atoms: C_28  and  C_38
REMARK    9  A    between atoms: N_31  and  C_32
REMARK                            x       y       z     vdW  Elec       q    Type
REMARK                         _______ _______ _______ _____ _____    ______ ____
ROOT
ATOM      1  C   UNL     1      -4.944  -3.624   8.876  0.00  0.00    +0.105 C 
ENDROOT
BRANCH   1   2
ATOM      2  C   UNL     1      -4.624  -2.778  10.081  0.00  0.00    +0.216 C 
ATOM      3  O   UNL     1      -3.528  -2.269  10.191  0.00  0.00    -0.276 OA
ATOM      4  N   UNL     1      -5.555  -2.586  11.036  0.00  0.00    -0.293 N 
ATOM      5  C   UNL     1      -6.989  -2.808  10.766  0.00  0.00    +0.119 C 
ATOM      6  C   UNL     1      -7.564  -3.937  11.620  0.00  0.00    +0.090 C 
ATOM      7  S   UNL     1      -7.173  -3.664  13.382  0.00  0.00    -0.134 S 
ATOM      8  C   UNL     1      -5.393  -3.376  13.314  0.00  0.00    +0.170 C 
ATOM      9  C   UNL     1      -5.190  -2.161  12.366  0.00  0.00    +0.126 C 
ATOM     10  C   UNL     1      -3.729  -1.867  12.700  0.00  0.00    +0.093 C 
ATOM     11  N   UNL     1      -3.705  -2.104  14.175  0.00  0.00    -0.234 NA
ATOM     12  N   UNL     1      -4.752  -2.929  14.538  0.00  0.00    -0.252 N 
ATOM     13  C   UNL     1      -2.795  -2.836  11.973  0.00  0.00    +0.027 C 
ATOM     14  H   UNL     1      -3.740  -1.232  14.682  0.00  0.00    +0.145 HD
BRANCH  12  15
ATOM     15  C   UNL     1      -5.128  -3.274  15.838  0.00  0.00    +0.046 A 
ATOM     16  C   UNL     1      -5.386  -4.601  16.159  0.00  0.00    +0.024 A 
ATOM     17  C   UNL     1      -5.758  -4.939  17.445  0.00  0.00    +0.002 A 
ATOM     18  C   UNL     1      -5.873  -3.958  18.414  0.00  0.00    +0.000 A 
ATOM     19  C   UNL     1      -5.617  -2.637  18.098  0.00  0.00    +0.002 A 
ATOM     20  C   UNL     1      -5.240  -2.293  16.815  0.00  0.00    +0.024 A 
ENDBRANCH  12  15
ENDBRANCH   1   2
BRANCH   1  21
ATOM     21  C   UNL     1      -3.724  -3.680   7.953  0.00  0.00    +0.105 C 
BRANCH  21  23
ATOM     22  N   UNL     1      -3.113  -4.718   5.793  0.00  0.00    -0.315 N 
ATOM     23  C   UNL     1      -4.044  -4.526   6.748  0.00  0.00    +0.213 C 
ATOM     24  O   UNL     1      -5.140  -5.035   6.638  0.00  0.00    -0.276 OA
ATOM     25  H   UNL     1      -2.237  -4.311   5.881  0.00  0.00    +0.149 HD
BRANCH  22  26
ATOM     26  C   UNL     1      -3.424  -5.541   4.621  0.00  0.00    +0.108 C 
BRANCH  26  27
ATOM     27  C   UNL     1      -2.205  -5.597   3.699  0.00  0.00    +0.052 C 
BRANCH  27  35
ATOM     28  C   UNL     1      -4.009  -3.184  -1.057  0.00  0.00    +0.044 C 
ATOM     29  C   UNL     1      -3.700  -4.555  -0.512  0.00  0.00    -0.050 A 
ATOM     30  C   UNL     1      -3.870  -5.673  -1.341  0.00  0.00    +0.005 A 
ATOM     31  C   UNL     1      -3.615  -6.932  -0.928  0.00  0.00    +0.026 A 
ATOM     32  C   UNL     1      -3.152  -7.175   0.395  0.00  0.00    +0.043 A 
ATOM     33  N   UNL     1      -2.841  -8.284   1.021  0.00  0.00    -0.380 N 
ATOM     34  C   UNL     1      -2.420  -7.948   2.386  0.00  0.00    +0.144 C 
ATOM     35  C   UNL     1      -2.525  -6.443   2.494  0.00  0.00    -0.040 C 
ATOM     36  C   UNL     1      -2.964  -6.011   1.290  0.00  0.00    -0.001 A 
ATOM     37  C   UNL     1      -3.259  -4.674   0.761  0.00  0.00    +0.013 A 
ATOM     38  H   UNL     1      -2.883  -9.177   0.645  0.00  0.00    +0.160 HD
ENDBRANCH  27  35
ENDBRANCH  26  27
ENDBRANCH  22  26
ENDBRANCH  21  23
ENDBRANCH   1  21
TORSDOF 7
