REMARK  Name = ZINC08878071
REMARK  5 active torsions:
REMARK  status: ('A' for Active; 'I' for Inactive)
REMARK    1  A    between atoms: C_16  and  C_17
REMARK    2  A    between atoms: C_16  and  N_60
REMARK    3  A    between atoms: C_17  and  O_18
REMARK    4  A    between atoms: O_18  and  C_19
REMARK    5  A    between atoms: C_27  and  C_30
REMARK                            x       y       z     vdW  Elec       q    Type
REMARK                         _______ _______ _______ _____ _____    ______ ____
ROOT
ATOM      1  O   UNL     1      -0.339   0.445  -5.172  0.00  0.00    -0.494 OA
ENDROOT
BRANCH   1   2
ATOM      2  C   UNL     1       0.302   0.043  -6.299  0.00  0.00    +0.124 A 
ATOM      3  C   UNL     1       0.959   0.982  -7.091  0.00  0.00    +0.046 A 
ATOM      4  C   UNL     1       1.608   0.592  -8.228  0.00  0.00    +0.019 A 
ATOM      5  C   UNL     1       1.612  -0.754  -8.596  0.00  0.00    +0.065 A 
ATOM      6  C   UNL     1       0.952  -1.710  -7.803  0.00  0.00    +0.142 A 
ATOM      7  C   UNL     1       0.302  -1.297  -6.648  0.00  0.00    +0.092 A 
ATOM      8  O   UNL     1       0.957  -3.009  -8.160  0.00  0.00    -0.462 OA
ATOM      9  C   UNL     1       1.568  -3.466  -9.256  0.00  0.00    +0.208 A 
ATOM     10  C   UNL     1       2.242  -2.653 -10.110  0.00  0.00    +0.064 A 
ATOM     11  C   UNL     1       2.301  -1.211  -9.816  0.00  0.00    +0.200 A 
ATOM     12  O   UNL     1       2.891  -0.434 -10.546  0.00  0.00    -0.286 OA
BRANCH  10  13
ATOM     13  C   UNL     1       2.905  -3.207 -11.316  0.00  0.00    -0.011 A 
ATOM     14  C   UNL     1       2.681  -2.630 -12.564  0.00  0.00    +0.010 A 
ATOM     15  C   UNL     1       3.304  -3.145 -13.682  0.00  0.00    +0.020 A 
ATOM     16  C   UNL     1       4.143  -4.240 -13.567  0.00  0.00    +0.041 A 
ATOM     17  C   UNL     1       4.365  -4.821 -12.329  0.00  0.00    +0.020 A 
ATOM     18  C   UNL     1       3.751  -4.309 -11.205  0.00  0.00    +0.010 A 
ATOM     19 CL   UNL     1       4.919  -4.889 -14.978  0.00  0.00    -0.084 Cl
ENDBRANCH  10  13
ENDBRANCH   1   2
BRANCH   1  20
ATOM     20  C   UNL     1      -0.297   1.839  -4.864  0.00  0.00    +0.210 C 
BRANCH  20  21
ATOM     21  C   UNL     1      -1.069   2.099  -3.568  0.00  0.00    -0.037 C 
BRANCH  21  35
ATOM     22  C   UNL     1      -0.797  -3.085  -1.485  0.00  0.00    +0.007 A 
ATOM     23  C   UNL     1      -1.069  -1.876  -0.835  0.00  0.00    +0.022 A 
ATOM     24  C   UNL     1      -0.185  -0.846  -0.894  0.00  0.00    +0.023 A 
ATOM     25  N   UNL     1       1.000  -0.993  -1.531  0.00  0.00    -0.312 N 
ATOM     26  C   UNL     1       1.247  -2.119  -2.244  0.00  0.00    +0.251 A 
ATOM     27  O   UNL     1       2.253  -2.190  -2.932  0.00  0.00    -0.268 OA
ATOM     28  C   UNL     1       0.359  -3.203  -2.200  0.00  0.00    +0.070 A 
ATOM     29  C   UNL     1       2.081  -0.010  -1.448  0.00  0.00    +0.126 C 
ATOM     30  C   UNL     1       1.589   1.355  -0.996  0.00  0.00    -0.007 C 
ATOM     31  C   UNL     1       0.684   1.190   0.229  0.00  0.00    +0.011 C 
ATOM     32  C   UNL     1      -0.580   0.452  -0.227  0.00  0.00    +0.020 C 
ATOM     33  C   UNL     1      -1.282   1.321  -1.284  0.00  0.00    -0.069 C 
ATOM     34  C   UNL     1       0.861   2.092  -2.110  0.00  0.00    -0.073 C 
ATOM     35  N   UNL     1      -0.390   1.392  -2.463  0.00  0.00    +0.383 N 
ATOM     36  H   UNL     1      -0.163   0.438  -2.767  0.00  0.00    -0.082 HD
ENDBRANCH  21  35
ENDBRANCH  20  21
ENDBRANCH   1  20
TORSDOF 5
