REMARK  Name = ZINC08594208
REMARK  4 active torsions:
REMARK  status: ('A' for Active; 'I' for Inactive)
REMARK    1  A    between atoms: C_1  and  N_2
REMARK    2  A    between atoms: N_7  and  C_10
REMARK    3  A    between atoms: C_11  and  C_17
REMARK    4  A    between atoms: C_21  and  O_23
REMARK                            x       y       z     vdW  Elec       q    Type
REMARK                         _______ _______ _______ _____ _____    ______ ____
ROOT
ATOM      1  C   UNL     1      -0.018   1.461   0.010  0.00  0.00    +0.155 C 
ATOM      2  N   UNL     1       0.002  -0.004   0.002  0.00  0.00    -0.284 N 
ATOM      3  C   UNL     1      -1.180  -0.704   0.004  0.00  0.00    +0.118 A 
ATOM      4  C   UNL     1      -1.151  -2.066  -0.004  0.00  0.00    +0.063 A 
ATOM      5  C   UNL     1       0.089  -2.727  -0.014  0.00  0.00    +0.262 A 
ATOM      6  O   UNL     1       0.136  -3.945  -0.022  0.00  0.00    -0.267 OA
ATOM      7  N   UNL     1       1.226  -2.002  -0.016  0.00  0.00    -0.264 N 
ATOM      8  C   UNL     1       1.178  -0.658  -0.013  0.00  0.00    +0.333 A 
ATOM      9  O   UNL     1       2.215  -0.023  -0.019  0.00  0.00    -0.246 OA
ATOM     10  C   UNL     1       2.523  -2.684  -0.025  0.00  0.00    +0.157 C 
ATOM     11  C   UNL     1      -2.433  -2.854  -0.002  0.00  0.00    +0.066 C 
ATOM     12  C   UNL     1      -3.500  -2.092  -0.791  0.00  0.00    +0.109 C 
ATOM     13  C   UNL     1      -3.519  -0.652  -0.352  0.00  0.00    +0.219 C 
ATOM     14  O   UNL     1      -4.568  -0.044  -0.328  0.00  0.00    -0.275 OA
ATOM     15  N   UNL     1      -2.382  -0.033   0.015  0.00  0.00    -0.271 N 
ATOM     16  H   UNL     1      -2.409   0.897   0.290  0.00  0.00    +0.156 HD
ENDROOT
BRANCH  11  17
ATOM     17  C   UNL     1      -2.901  -3.048   1.418  0.00  0.00    -0.036 A 
ATOM     18  C   UNL     1      -3.187  -1.949   2.207  0.00  0.00    +0.004 A 
ATOM     19  C   UNL     1      -3.617  -2.124   3.510  0.00  0.00    +0.004 A 
ATOM     20  C   UNL     1      -3.760  -3.397   4.026  0.00  0.00    +0.045 A 
ATOM     21  C   UNL     1      -3.473  -4.501   3.236  0.00  0.00    +0.117 A 
ATOM     22  C   UNL     1      -3.049  -4.323   1.927  0.00  0.00    +0.049 A 
BRANCH  21  23
ATOM     23  O   UNL     1      -3.614  -5.755   3.742  0.00  0.00    -0.507 OA
ATOM     24  H   UNL     1      -4.492  -6.136   3.610  0.00  0.00    +0.292 HD
ENDBRANCH  21  23
ENDBRANCH  11  17
TORSDOF 2
