REMARK  Name = ZINC02795253
REMARK  7 active torsions:
REMARK  status: ('A' for Active; 'I' for Inactive)
REMARK    1  A    between atoms: C_1  and  C_2
REMARK    2  A    between atoms: C_6  and  N_8
REMARK    3  A    between atoms: C_9  and  N_26
REMARK    4  A    between atoms: C_14  and  S_15
REMARK    5  A    between atoms: S_15  and  C_16
REMARK    6  A    between atoms: C_16  and  C_17
REMARK    7  A    between atoms: N_19  and  C_20
REMARK                            x       y       z     vdW  Elec       q    Type
REMARK                         _______ _______ _______ _____ _____    ______ ____
ROOT
ATOM      1  N   UNL     1       0.063  -2.799   2.394  0.00  0.00    -0.278 N 
ATOM      2  C   UNL     1       0.146  -2.121   3.584  0.00  0.00    +0.108 A 
ATOM      3  C   UNL     1       0.147  -2.829   4.751  0.00  0.00    +0.112 A 
ATOM      4  C   UNL     1       0.064  -4.235   4.696  0.00  0.00    +0.254 A 
ATOM      5  O   UNL     1       0.063  -4.891   5.727  0.00  0.00    -0.268 OA
ATOM      6  N   UNL     1      -0.015  -4.851   3.506  0.00  0.00    -0.303 N 
ATOM      7  C   UNL     1      -0.021  -4.161   2.385  0.00  0.00    +0.156 A 
ATOM      8  H   UNL     1      -0.073  -5.819   3.472  0.00  0.00    +0.171 HD
ENDROOT
BRANCH   1  14
ATOM      9  C   UNL     1       2.553  -0.756  -1.323  0.00  0.00    +0.044 C 
ATOM     10  C   UNL     1       1.252  -1.087  -0.637  0.00  0.00    -0.048 A 
ATOM     11  C   UNL     1       0.053  -0.691  -1.202  0.00  0.00    +0.003 A 
ATOM     12  C   UNL     1      -1.142  -0.993  -0.576  0.00  0.00    +0.002 A 
ATOM     13  C   UNL     1      -1.142  -1.691   0.616  0.00  0.00    +0.026 A 
ATOM     14  C   UNL     1       0.060  -2.090   1.185  0.00  0.00    +0.050 A 
ATOM     15  C   UNL     1       1.258  -1.790   0.551  0.00  0.00    +0.029 A 
ENDBRANCH   1  14
BRANCH   2  16
ATOM     16  N   UNL     1       0.227  -0.747   3.601  0.00  0.00    -0.344 N 
ATOM     17  H   UNL     1       0.144  -0.246   2.775  0.00  0.00    +0.144 HD
ATOM     18  H   UNL     1       0.366  -0.280   4.440  0.00  0.00    +0.144 HD
ENDBRANCH   2  16
BRANCH   7  19
ATOM     19  S   UNL     1      -0.134  -5.011   0.845  0.00  0.00    -0.080 S 
BRANCH  19  20
ATOM     20  C   UNL     1      -0.224  -6.761   1.316  0.00  0.00    +0.173 C 
BRANCH  20  21
ATOM     21  C   UNL     1      -0.324  -7.610   0.075  0.00  0.00    +0.224 C 
ATOM     22  O   UNL     1      -0.334  -7.086  -1.019  0.00  0.00    -0.275 OA
ATOM     23  N   UNL     1      -0.403  -8.951   0.181  0.00  0.00    -0.312 N 
ATOM     24  H   UNL     1      -0.395  -9.370   1.056  0.00  0.00    +0.149 HD
BRANCH  23  25
ATOM     25  C   UNL     1      -0.501  -9.777  -1.025  0.00  0.00    +0.073 C 
ATOM     26  C   UNL     1       0.902 -10.049  -1.572  0.00  0.00    +0.022 C 
ATOM     27  C   UNL     1       0.800 -10.912  -2.831  0.00  0.00    +0.002 C 
ATOM     28  C   UNL     1       0.119 -12.238  -2.488  0.00  0.00    +0.000 C 
ATOM     29  C   UNL     1      -1.283 -11.966  -1.941  0.00  0.00    +0.002 C 
ATOM     30  C   UNL     1      -1.181 -11.103  -0.681  0.00  0.00    +0.022 C 
ENDBRANCH  23  25
ENDBRANCH  20  21
ENDBRANCH  19  20
ENDBRANCH   7  19
TORSDOF 6
