REMARK  Name = ZINC63209158
REMARK  5 active torsions:
REMARK  status: ('A' for Active; 'I' for Inactive)
REMARK    1  A    between atoms: C_1  and  C_2
REMARK    2  A    between atoms: C_6  and  S_8
REMARK    3  A    between atoms: S_8  and  N_11
REMARK    4  A    between atoms: N_11  and  C_12
REMARK    5  A    between atoms: C_17  and  N_18
REMARK                            x       y       z     vdW  Elec       q    Type
REMARK                         _______ _______ _______ _____ _____    ______ ____
ROOT
ATOM      1  N   UNL     1      -1.366  -3.815   2.803  0.00  0.00    -0.214 N 
ATOM      2  H   UNL     1      -2.006  -3.608   3.502  0.00  0.00    +0.174 HD
ENDROOT
BRANCH   1   3
ATOM      3  C   UNL     1      -1.683  -4.763   1.823  0.00  0.00    +0.071 A 
ATOM      4  C   UNL     1      -0.973  -5.952   1.751  0.00  0.00    +0.064 A 
ATOM      5  C   UNL     1      -1.288  -6.888   0.781  0.00  0.00    +0.125 A 
ATOM      6  C   UNL     1      -2.311  -6.640  -0.118  0.00  0.00    +0.040 A 
ATOM      7  C   UNL     1      -3.022  -5.456  -0.052  0.00  0.00    +0.027 A 
ATOM      8  C   UNL     1      -2.716  -4.516   0.920  0.00  0.00    +0.047 A 
ATOM      9  F   UNL     1      -0.595  -8.046   0.712  0.00  0.00    -0.205 F 
BRANCH   8  10
ATOM     10  N   UNL     1      -3.441  -3.319   0.992  0.00  0.00    -0.357 N 
ATOM     11  H   UNL     1      -3.223  -2.660   1.670  0.00  0.00    +0.142 HD
ATOM     12  H   UNL     1      -4.160  -3.148   0.363  0.00  0.00    +0.142 HD
ENDBRANCH   8  10
ENDBRANCH   1   3
BRANCH   1  13
ATOM     13  S   UNL     1       0.100  -3.046   2.769  0.00  0.00    +0.075 S 
ATOM     14  O   UNL     1       1.084  -4.056   2.585  0.00  0.00    -0.150 OA
ATOM     15  O   UNL     1       0.119  -2.158   3.878  0.00  0.00    -0.150 OA
BRANCH  13  21
ATOM     16  C   UNL     1       0.272   1.619   0.419  0.00  0.00    +0.044 C 
ATOM     17  C   UNL     1       0.209   0.118   0.295  0.00  0.00    -0.048 A 
ATOM     18  C   UNL     1       0.175  -0.471  -0.955  0.00  0.00    +0.006 A 
ATOM     19  C   UNL     1       0.117  -1.847  -1.069  0.00  0.00    +0.040 A 
ATOM     20  C   UNL     1       0.095  -2.635   0.069  0.00  0.00    +0.150 A 
ATOM     21  C   UNL     1       0.130  -2.044   1.320  0.00  0.00    +0.144 A 
ATOM     22  C   UNL     1       0.192  -0.668   1.432  0.00  0.00    +0.035 A 
ATOM     23  F   UNL     1       0.038  -3.981  -0.042  0.00  0.00    -0.203 F 
ENDBRANCH  13  21
ENDBRANCH   1  13
TORSDOF 4
