REMARK  Name = ZINC13658411
REMARK  6 active torsions:
REMARK  status: ('A' for Active; 'I' for Inactive)
REMARK    1  A    between atoms: C_1  and  C_2
REMARK    2  A    between atoms: C_4  and  C_25
REMARK    3  A    between atoms: C_8  and  C_11
REMARK    4  A    between atoms: N_13  and  O_14
REMARK    5  A    between atoms: O_14  and  C_15
REMARK    6  A    between atoms: N_17  and  C_18
REMARK                            x       y       z     vdW  Elec       q    Type
REMARK                         _______ _______ _______ _____ _____    ______ ____
ROOT
ATOM      1  C   UNL     1       3.689  -2.572  -0.039  0.00  0.00    +0.145 C 
ATOM      2  N   UNL     1       4.078  -1.322  -0.045  0.00  0.00    -0.382 N 
ATOM      3  N   UNL     1       4.621  -3.581  -0.042  0.00  0.00    -0.200 N 
ATOM      4  H   UNL     1       5.024  -1.109  -0.050  0.00  0.00    +0.157 HD
ATOM      5  H   UNL     1       4.333  -4.507  -0.038  0.00  0.00    +0.209 HD
ATOM      6  H   UNL     1       3.420  -0.609  -0.043  0.00  0.00    +0.157 HD
ENDROOT
BRANCH   1  14
ATOM      7  C   UNL     1      -0.018   1.504  -0.029  0.00  0.00    +0.066 C 
ATOM      8  C   UNL     1       0.002  -0.003  -0.026  0.00  0.00    +0.042 A 
ATOM      9  C   UNL     1      -1.202  -0.718  -0.018  0.00  0.00    +0.046 A 
ATOM     10  C   UNL     1      -1.171  -2.075  -0.015  0.00  0.00    +0.044 A 
ATOM     11  N   UNL     1       0.035  -2.711  -0.020  0.00  0.00    -0.218 N 
ATOM     12  C   UNL     1       1.190  -1.978  -0.028  0.00  0.00    +0.167 A 
ATOM     13  N   UNL     1       1.150  -0.643  -0.036  0.00  0.00    -0.232 NA
ATOM     14  C   UNL     1       2.253  -2.896  -0.031  0.00  0.00    +0.081 A 
ATOM     15  C   UNL     1       1.688  -4.180  -0.025  0.00  0.00    +0.148 A 
ATOM     16  N   UNL     1       0.384  -4.066  -0.019  0.00  0.00    -0.172 NA
ATOM     17  C   UNL     1      -2.452  -2.867  -0.006  0.00  0.00    +0.066 C 
ENDBRANCH   1  14
BRANCH   3  18
ATOM     18  O   UNL     1       6.003  -3.270  -0.050  0.00  0.00    -0.323 OA
BRANCH  18  19
ATOM     19  C   UNL     1       6.806  -4.346  -0.051  0.00  0.00    +0.429 C 
ATOM     20  O   UNL     1       6.325  -5.463  -0.046  0.00  0.00    -0.224 OA
ATOM     21  N   UNL     1       8.144  -4.189  -0.059  0.00  0.00    -0.249 N 
ATOM     22  H   UNL     1       8.527  -3.301  -0.131  0.00  0.00    +0.158 HD
BRANCH  21  23
ATOM     23  C   UNL     1       8.981  -5.307   0.037  0.00  0.00    +0.037 A 
ATOM     24  C   UNL     1      10.180  -5.221   0.733  0.00  0.00    +0.025 A 
ATOM     25  C   UNL     1      11.003  -6.325   0.827  0.00  0.00    +0.022 A 
ATOM     26  C   UNL     1      10.635  -7.517   0.228  0.00  0.00    +0.041 A 
ATOM     27  C   UNL     1       9.441  -7.606  -0.466  0.00  0.00    +0.022 A 
ATOM     28  C   UNL     1       8.611  -6.506  -0.558  0.00  0.00    +0.025 A 
ATOM     29 CL   UNL     1      11.673  -8.904   0.347  0.00  0.00    -0.084 Cl
ENDBRANCH  21  23
ENDBRANCH  18  19
ENDBRANCH   3  18
TORSDOF 4
