REMARK  Name = ZINC58338485
REMARK  14 active torsions:
REMARK  status: ('A' for Active; 'I' for Inactive)
REMARK    1  A    between atoms: C_1  and  C_2
REMARK    2  A    between atoms: C_2  and  N_3
REMARK    3  A    between atoms: N_3  and  C_4
REMARK    4  A    between atoms: N_3  and  C_6
REMARK    5  A    between atoms: C_4  and  C_5
REMARK    6  A    between atoms: C_6  and  C_8
REMARK    7  A    between atoms: C_6  and  C_24
REMARK    8  A    between atoms: C_8  and  N_9
REMARK    9  A    between atoms: C_10  and  C_12
REMARK   10  A    between atoms: C_12  and  N_13
REMARK   11  A    between atoms: N_13  and  C_14
REMARK   12  A    between atoms: N_13  and  C_17
REMARK   13  A    between atoms: C_14  and  C_15
REMARK   14  A    between atoms: C_17  and  C_18
REMARK                            x       y       z     vdW  Elec       q    Type
REMARK                         _______ _______ _______ _____ _____    ______ ____
ROOT
ATOM      1  N   UNL     1       0.805  -1.429   0.750  0.00  0.00    -0.318 N 
ATOM      2  C   UNL     1       1.898  -1.505   1.535  0.00  0.00    +0.196 C 
ATOM      3  O   UNL     1       1.984  -2.379   2.372  0.00  0.00    -0.278 OA
ATOM      4  H   UNL     1       0.736  -0.730   0.081  0.00  0.00    +0.149 HD
ENDROOT
BRANCH   1   5
ATOM      5  C   UNL     1      -0.279  -2.402   0.907  0.00  0.00    +0.096 C 
BRANCH   5   6
ATOM      6  C   UNL     1      -1.339  -2.163  -0.170  0.00  0.00    +0.016 C 
BRANCH   6   7
ATOM      7  C   UNL     1      -2.510  -3.081   0.066  0.00  0.00    +0.093 A 
ATOM      8  C   UNL     1      -2.753  -4.230  -0.591  0.00  0.00    +0.043 A 
ATOM      9  C   UNL     1      -3.948  -4.763  -0.055  0.00  0.00    +0.041 A 
ATOM     10  C   UNL     1      -4.363  -3.909   0.898  0.00  0.00    +0.195 A 
ATOM     11  O   UNL     1      -3.485  -2.895   0.970  0.00  0.00    -0.469 OA
ENDBRANCH   6   7
BRANCH   6  12
ATOM     12  N   UNL     1      -1.792  -0.766  -0.109  0.00  0.00    +0.387 N 
ATOM     13  H   UNL     1      -1.024  -0.153  -0.339  0.00  0.00    -0.081 HD
BRANCH  12  15
ATOM     14  C   UNL     1      -2.348  -0.718  -2.493  0.00  0.00    -0.017 C 
ATOM     15  C   UNL     1      -2.885  -0.564  -1.069  0.00  0.00    -0.081 C 
ENDBRANCH  12  15
BRANCH  12  16
ATOM     16  C   UNL     1      -2.269  -0.465   1.248  0.00  0.00    -0.081 C 
ATOM     17  C   UNL     1      -2.586   1.028   1.357  0.00  0.00    -0.017 C 
ENDBRANCH  12  16
ENDBRANCH   6  12
ENDBRANCH   5   6
ENDBRANCH   1   5
BRANCH   2  18
ATOM     18  C   UNL     1       3.013  -0.504   1.374  0.00  0.00    +0.019 C 
BRANCH  18  19
ATOM     19  N   UNL     1       4.080  -0.800   2.339  0.00  0.00    +0.391 N 
ATOM     20  H   UNL     1       3.694  -0.826   3.270  0.00  0.00    -0.080 HD
BRANCH  19  21
ATOM     21  C   UNL     1       4.679  -2.104   2.022  0.00  0.00    -0.051 C 
BRANCH  21  22
ATOM     22  C   UNL     1       5.667  -2.478   3.097  0.00  0.00    -0.053 C 
ATOM     23  C   UNL     1       5.547  -3.620   3.727  0.00  0.00    +0.002 C 
ENDBRANCH  21  22
ENDBRANCH  19  21
BRANCH  19  24
ATOM     24  C   UNL     1       5.111   0.243   2.264  0.00  0.00    -0.034 C 
BRANCH  24  25
ATOM     25  C   UNL     1       4.535   1.554   2.735  0.00  0.00    -0.025 A 
ATOM     26  C   UNL     1       4.414   2.027   3.999  0.00  0.00    +0.011 A 
ATOM     27  C   UNL     1       3.846   3.272   4.197  0.00  0.00    +0.028 A 
ATOM     28  C   UNL     1       3.426   3.982   3.120  0.00  0.00    +0.078 A 
ATOM     29  S   UNL     1       3.841   2.887   1.772  0.00  0.00    -0.084 S 
ATOM     30 CL   UNL     1       2.686   5.551   3.066  0.00  0.00    -0.076 Cl
ENDBRANCH  24  25
ENDBRANCH  19  24
ENDBRANCH  18  19
ENDBRANCH   2  18
TORSDOF 12
