REMARK  Name = ZINC04260510
REMARK  13 active torsions:
REMARK  status: ('A' for Active; 'I' for Inactive)
REMARK    1  A    between atoms: C_1  and  C_2
REMARK    2  A    between atoms: C_5  and  O_35
REMARK    3  A    between atoms: C_7  and  C_32
REMARK    4  A    between atoms: C_7  and  C_33
REMARK    5  A    between atoms: C_17  and  C_19
REMARK    6  A    between atoms: C_19  and  S_20
REMARK    7  A    between atoms: S_20  and  C_21
REMARK    8  A    between atoms: C_22  and  C_24
REMARK    9  A    between atoms: C_24  and  C_25
REMARK   10  A    between atoms: N_27  and  C_28
REMARK   11  A    between atoms: N_27  and  C_29
REMARK   12  A    between atoms: C_29  and  C_30
REMARK   13  A    between atoms: C_33  and  O_34
REMARK                            x       y       z     vdW  Elec       q    Type
REMARK                         _______ _______ _______ _____ _____    ______ ____
ROOT
ATOM      1  C   UNL     1       2.059   1.287  -1.250  0.00  0.00    +0.012 C 
ATOM      2  C   UNL     1       1.403   1.939  -0.031  0.00  0.00    -0.019 C 
ATOM      3  C   UNL     1      -0.082   1.566   0.013  0.00  0.00    +0.010 C 
ATOM      4  C   UNL     1      -0.247   0.057   0.175  0.00  0.00    +0.032 C 
ATOM      5  C   UNL     1       0.407  -0.372   1.492  0.00  0.00    +0.123 C 
ATOM      6  C   UNL     1       1.897  -0.043   1.430  0.00  0.00    +0.021 C 
ATOM      7  C   UNL     1       2.104   1.463   1.244  0.00  0.00    +0.011 C 
ATOM      8  C   UNL     1       3.620   1.701   1.100  0.00  0.00    +0.049 C 
ATOM      9  C   UNL     1       3.848   3.073   0.573  0.00  0.00    +0.015 A 
ATOM     10  C   UNL     1       2.939   3.906   0.004  0.00  0.00    +0.058 A 
ATOM     11  N   UNL     1       3.400   5.090  -0.391  0.00  0.00    -0.229 NA
ATOM     12  C   UNL     1       4.661   5.439  -0.239  0.00  0.00    +0.165 A 
ATOM     13  S   UNL     1       5.339   4.031   0.523  0.00  0.00    -0.057 S 
ATOM     14  N   UNL     1       5.288   6.628  -0.594  0.00  0.00    -0.264 N 
ATOM     15  C   UNL     1       6.603   6.795  -0.351  0.00  0.00    +0.228 C 
ATOM     16  O   UNL     1       7.239   5.908   0.177  0.00  0.00    -0.275 OA
ATOM     17  C   UNL     1       1.491   3.467  -0.145  0.00  0.00    +0.054 C 
ATOM     18  C   UNL     1       2.569  -0.489   2.730  0.00  0.00    +0.016 C 
ATOM     19  H   UNL     1       4.779   7.337  -1.017  0.00  0.00    +0.157 HD
ENDROOT
BRANCH   5  20
ATOM     20  O   UNL     1       0.234  -1.778   1.679  0.00  0.00    -0.391 OA
ATOM     21  H   UNL     1      -0.691  -2.059   1.716  0.00  0.00    +0.210 HD
ENDBRANCH   5  20
BRANCH  15  22
ATOM     22  C   UNL     1       7.282   8.084  -0.737  0.00  0.00    +0.164 C 
BRANCH  22  23
ATOM     23  S   UNL     1       9.037   8.001  -0.283  0.00  0.00    -0.155 S 
ATOM     24  C   UNL     1       9.701   9.606  -0.807  0.00  0.00    +0.085 C 
ENDBRANCH  22  23
ENDBRANCH  15  22
BRANCH  17  25
ATOM     25  C   UNL     1       0.963   3.907  -1.513  0.00  0.00    +0.106 C 
BRANCH  25  26
ATOM     26  C   UNL     1       0.863   5.410  -1.552  0.00  0.00    +0.216 C 
ATOM     27  O   UNL     1       1.182   6.065  -0.583  0.00  0.00    -0.276 OA
ATOM     28  N   UNL     1       0.419   6.026  -2.666  0.00  0.00    -0.301 N 
ATOM     29  C   UNL     1       0.034   5.235  -3.837  0.00  0.00    +0.132 C 
BRANCH  28  30
ATOM     30  C   UNL     1       0.321   7.487  -2.704  0.00  0.00    +0.134 C 
BRANCH  30  31
ATOM     31  C   UNL     1       1.620   8.064  -3.207  0.00  0.00    -0.016 C 
ATOM     32  C   UNL     1       1.622   8.871  -4.239  0.00  0.00    +0.005 C 
ENDBRANCH  30  31
ENDBRANCH  28  30
ENDBRANCH  25  26
ENDBRANCH  17  25
BRANCH   6  33
ATOM     33  C   UNL     1       2.532  -0.790   0.255  0.00  0.00    +0.165 C 
BRANCH  33  34
ATOM     34  O   UNL     1       2.502  -2.195   0.512  0.00  0.00    -0.394 OA
ATOM     35  H   UNL     1       2.889  -2.732  -0.193  0.00  0.00    +0.209 HD
ENDBRANCH  33  34
ENDBRANCH   6  33
TORSDOF 9
