REMARK  Name = ZINC67019196
REMARK  7 active torsions:
REMARK  status: ('A' for Active; 'I' for Inactive)
REMARK    1  A    between atoms: C_1  and  C_2
REMARK    2  A    between atoms: C_3  and  C_14
REMARK    3  A    between atoms: C_4  and  C_13
REMARK    4  A    between atoms: C_14  and  C_15
REMARK    5  A    between atoms: C_15  and  O_17
REMARK    6  A    between atoms: O_17  and  C_18
REMARK    7  A    between atoms: C_21  and  C_24
REMARK                            x       y       z     vdW  Elec       q    Type
REMARK                         _______ _______ _______ _____ _____    ______ ____
ROOT
ATOM      1  C   UNL     1       0.005   1.387   0.037  0.00  0.00    +0.066 C 
ATOM      2  C   UNL     1      -0.024  -0.119   0.014  0.00  0.00    +0.046 A 
ATOM      3  C   UNL     1      -1.250  -0.793   0.002  0.00  0.00    +0.005 A 
ATOM      4  C   UNL     1      -1.264  -2.152  -0.019  0.00  0.00    +0.045 A 
ATOM      5  N   UNL     1      -0.084  -2.828  -0.028  0.00  0.00    -0.238 N 
ATOM      6  C   UNL     1       1.101  -2.134  -0.016  0.00  0.00    +0.158 A 
ATOM      7  N   UNL     1       1.104  -0.796  -0.001  0.00  0.00    -0.233 NA
ATOM      8  C   UNL     1       2.133  -3.070  -0.030  0.00  0.00    +0.119 A 
ATOM      9  C   UNL     1       1.555  -4.339  -0.050  0.00  0.00    +0.267 A 
ATOM     10  O   UNL     1       2.160  -5.399  -0.066  0.00  0.00    -0.266 OA
ATOM     11  N   UNL     1       0.216  -4.195  -0.049  0.00  0.00    -0.258 N 
ATOM     12  H   UNL     1      -0.432  -4.917  -0.060  0.00  0.00    +0.191 HD
ATOM     13  C   UNL     1      -2.571  -2.901  -0.031  0.00  0.00    +0.066 C 
ENDROOT
BRANCH   3  14
ATOM     14  C   UNL     1      -2.543  -0.020   0.013  0.00  0.00    +0.159 C 
BRANCH  14  15
ATOM     15  C   UNL     1      -2.912   0.322   1.434  0.00  0.00    +0.317 C 
ATOM     16  O   UNL     1      -2.197  -0.027   2.344  0.00  0.00    -0.250 OA
BRANCH  15  17
ATOM     17  O   UNL     1      -4.034   1.014   1.689  0.00  0.00    -0.426 OA
BRANCH  17  18
ATOM     18  C   UNL     1      -4.380   1.212   2.987  0.00  0.00    +0.132 A 
ATOM     19  C   UNL     1      -3.722   2.176   3.740  0.00  0.00    +0.047 A 
ATOM     20  C   UNL     1      -4.071   2.380   5.058  0.00  0.00    +0.022 A 
ATOM     21  C   UNL     1      -5.088   1.616   5.635  0.00  0.00    +0.052 A 
ATOM     22  C   UNL     1      -5.747   0.647   4.874  0.00  0.00    +0.022 A 
ATOM     23  C   UNL     1      -5.396   0.453   3.556  0.00  0.00    +0.047 A 
BRANCH  21  24
ATOM     24  C   UNL     1      -5.454   1.824   7.004  0.00  0.00    +0.099 C 
ATOM     25  N   UNL     1      -5.743   1.989   8.090  0.00  0.00    -0.191 NA
ENDBRANCH  21  24
ENDBRANCH  17  18
ENDBRANCH  15  17
ENDBRANCH  14  15
ENDBRANCH   3  14
TORSDOF 5
