REMARK  Name = ZINC09856362
REMARK  12 active torsions:
REMARK  status: ('A' for Active; 'I' for Inactive)
REMARK    1  A    between atoms: C_1  and  C_2
REMARK    2  A    between atoms: C_2  and  N_70
REMARK    3  A    between atoms: C_3  and  C_4
REMARK    4  A    between atoms: C_3  and  N_70
REMARK    5  A    between atoms: C_4  and  C_5
REMARK    6  A    between atoms: C_5  and  N_6
REMARK    7  A    between atoms: C_7  and  C_9
REMARK    8  A    between atoms: N_14  and  S_16
REMARK    9  A    between atoms: S_16  and  C_19
REMARK   10  A    between atoms: N_28  and  C_29
REMARK   11  A    between atoms: C_30  and  C_31
REMARK   12  A    between atoms: C_30  and  N_70
REMARK                            x       y       z     vdW  Elec       q    Type
REMARK                         _______ _______ _______ _____ _____    ______ ____
ROOT
ATOM      1  C   UNL     1       9.372   4.652  -5.931  0.00  0.00    +0.091 C 
ATOM      2  C   UNL     1       9.465   3.276  -6.594  0.00  0.00    +0.015 C 
ATOM      3  C   UNL     1       9.899   3.439  -8.053  0.00  0.00    +0.018 C 
ATOM      4  C   UNL     1      11.284   4.093  -8.100  0.00  0.00    +0.109 C 
ATOM      5  N   UNL     1      11.239   5.350  -7.339  0.00  0.00    -0.176 NA
ATOM      6  C   UNL     1      10.750   5.320  -5.954  0.00  0.00    +0.122 C 
ENDROOT
BRANCH   1   8
ATOM      7  N   UNL     1       7.720   3.926  -4.240  0.00  0.00    -0.315 N 
ATOM      8  C   UNL     1       8.913   4.493  -4.505  0.00  0.00    +0.217 C 
ATOM      9  O   UNL     1       9.618   4.876  -3.595  0.00  0.00    -0.275 OA
ATOM     10  H   UNL     1       7.156   3.620  -4.967  0.00  0.00    +0.149 HD
BRANCH   7  11
ATOM     11  C   UNL     1       7.274   3.771  -2.853  0.00  0.00    +0.102 C 
BRANCH  11  12
ATOM     12  C   UNL     1       5.897   3.104  -2.831  0.00  0.00    +0.000 C 
BRANCH  12  13
ATOM     13  C   UNL     1       5.432   2.942  -1.383  0.00  0.00    -0.077 C 
BRANCH  13  14
ATOM     14  N   UNL     1       4.114   2.272  -1.379  0.00  0.00    +0.382 N 
ATOM     15  H   UNL     1       4.147   1.469  -2.018  0.00  0.00    -0.081 HD
BRANCH  14  17
ATOM     16  C   UNL     1       3.003   4.433  -0.923  0.00  0.00    -0.017 C 
ATOM     17  C   UNL     1       3.069   3.210  -1.840  0.00  0.00    -0.082 C 
ENDBRANCH  14  17
BRANCH  14  18
ATOM     18  C   UNL     1       3.796   1.790  -0.018  0.00  0.00    -0.043 C 
BRANCH  18  19
ATOM     19  C   UNL     1       2.564   0.926  -0.085  0.00  0.00    -0.064 A 
ATOM     20  C   UNL     1       1.314   1.490   0.086  0.00  0.00    +0.002 A 
ATOM     21  C   UNL     1       0.183   0.696   0.025  0.00  0.00    +0.000 A 
ATOM     22  C   UNL     1       0.303  -0.661  -0.205  0.00  0.00    +0.000 A 
ATOM     23  C   UNL     1       1.554  -1.226  -0.374  0.00  0.00    +0.000 A 
ATOM     24  C   UNL     1       2.684  -0.432  -0.314  0.00  0.00    +0.002 A 
ENDBRANCH  18  19
ENDBRANCH  14  18
ENDBRANCH  13  14
ENDBRANCH  12  13
ENDBRANCH  11  12
ENDBRANCH   7  11
ENDBRANCH   1   8
BRANCH   5  25
ATOM     25  S   UNL     1      11.730   6.772  -8.031  0.00  0.00    +0.061 S 
ATOM     26  O   UNL     1      11.600   6.607  -9.436  0.00  0.00    -0.153 OA
ATOM     27  O   UNL     1      11.075   7.816  -7.323  0.00  0.00    -0.153 OA
BRANCH  25  28
ATOM     28  C   UNL     1      13.452   6.944  -7.701  0.00  0.00    +0.109 A 
ATOM     29  C   UNL     1      14.379   6.429  -8.591  0.00  0.00    +0.031 A 
ATOM     30  C   UNL     1      15.730   6.559  -8.339  0.00  0.00    +0.031 A 
ATOM     31  C   UNL     1      16.159   7.209  -7.192  0.00  0.00    +0.090 A 
ATOM     32  C   UNL     1      15.226   7.729  -6.295  0.00  0.00    +0.159 A 
ATOM     33  C   UNL     1      13.871   7.598  -6.559  0.00  0.00    +0.077 A 
ATOM     34  O   UNL     1      15.919   8.301  -5.280  0.00  0.00    -0.407 OA
ATOM     35  C   UNL     1      17.234   8.158  -5.509  0.00  0.00    +0.421 A 
ATOM     36  O   UNL     1      18.121   8.563  -4.782  0.00  0.00    -0.223 OA
ATOM     37  N   UNL     1      17.419   7.496  -6.668  0.00  0.00    -0.277 N 
ATOM     38  C   UNL     1      18.708   7.142  -7.268  0.00  0.00    +0.156 C 
ENDBRANCH  25  28
ENDBRANCH   5  25
TORSDOF 10
