REMARK  Name = ZINC19315063
REMARK  9 active torsions:
REMARK  status: ('A' for Active; 'I' for Inactive)
REMARK    1  A    between atoms: C_1  and  C_2
REMARK    2  A    between atoms: C_5  and  C_8
REMARK    3  A    between atoms: C_11  and  S_14
REMARK    4  A    between atoms: N_12  and  N_13
REMARK    5  A    between atoms: S_14  and  C_15
REMARK    6  A    between atoms: C_15  and  C_16
REMARK    7  A    between atoms: N_18  and  C_19
REMARK    8  A    between atoms: N_18  and  C_20
REMARK    9  A    between atoms: C_20  and  C_21
REMARK                            x       y       z     vdW  Elec       q    Type
REMARK                         _______ _______ _______ _____ _____    ______ ____
ROOT
ATOM      1  S   UNL     1      -0.240   9.939  -4.221  0.00  0.00    -0.075 S 
ENDROOT
BRANCH   1   5
ATOM      2  C   UNL     1       2.494  11.756  -6.339  0.00  0.00    +0.182 A 
ATOM      3  N   UNL     1       3.170  11.339  -5.294  0.00  0.00    -0.127 NA
ATOM      4  N   UNL     1       2.389  10.710  -4.490  0.00  0.00    -0.121 NA
ATOM      5  C   UNL     1       1.167  10.687  -4.973  0.00  0.00    +0.209 A 
ATOM      6  N   UNL     1       1.192  11.347  -6.168  0.00  0.00    -0.224 N 
BRANCH   2  11
ATOM      7  C   UNL     1       4.591  14.719 -10.805  0.00  0.00    +0.044 C 
ATOM      8  C   UNL     1       4.042  13.943  -9.635  0.00  0.00    -0.050 A 
ATOM      9  C   UNL     1       4.908  13.305  -8.765  0.00  0.00    +0.004 A 
ATOM     10  C   UNL     1       4.412  12.593  -7.692  0.00  0.00    +0.012 A 
ATOM     11  C   UNL     1       3.033  12.518  -7.486  0.00  0.00    +0.021 A 
ATOM     12  C   UNL     1       2.165  13.159  -8.371  0.00  0.00    +0.012 A 
ATOM     13  C   UNL     1       2.675  13.872  -9.437  0.00  0.00    +0.004 A 
ENDBRANCH   2  11
BRANCH   6  14
ATOM     14  N   UNL     1       0.143  11.558  -7.017  0.00  0.00    -0.295 N 
ATOM     15  H   UNL     1      -0.857  11.175  -6.762  0.00  0.00    +0.163 HD
ATOM     16  H   UNL     1       0.297  12.111  -7.955  0.00  0.00    +0.163 HD
ENDBRANCH   6  14
ENDBRANCH   1   5
BRANCH   1  17
ATOM     17  C   UNL     1       0.518   9.287  -2.713  0.00  0.00    +0.173 C 
BRANCH  17  18
ATOM     18  C   UNL     1      -0.528   8.583  -1.888  0.00  0.00    +0.226 C 
ATOM     19  O   UNL     1      -1.675   8.528  -2.281  0.00  0.00    -0.275 OA
ATOM     20  N   UNL     1      -0.191   8.015  -0.714  0.00  0.00    -0.300 N 
ATOM     21  C   UNL     1       1.193   8.081  -0.239  0.00  0.00    +0.132 C 
BRANCH  20  22
ATOM     22  C   UNL     1      -1.208   7.331   0.088  0.00  0.00    +0.155 C 
BRANCH  22  23
ATOM     23  C   UNL     1      -1.270   5.856  -0.315  0.00  0.00    +0.228 C 
ATOM     24  C   UNL     1      -2.417   5.163   0.432  0.00  0.00    +0.275 C 
ATOM     25  O   UNL     1      -2.437   3.785   0.043  0.00  0.00    -0.485 OA
ATOM     26  C   UNL     1      -1.241   3.136   0.031  0.00  0.00    +0.162 A 
ATOM     27  C   UNL     1      -1.219   1.749   0.017  0.00  0.00    +0.049 A 
ATOM     28  C   UNL     1      -0.013   1.076   0.008  0.00  0.00    +0.004 A 
ATOM     29  C   UNL     1       1.176   1.782   0.000  0.00  0.00    +0.004 A 
ATOM     30  C   UNL     1       1.161   3.164   0.009  0.00  0.00    +0.049 A 
ATOM     31  C   UNL     1      -0.046   3.846   0.026  0.00  0.00    +0.163 A 
ATOM     32  O   UNL     1      -0.045   5.207   0.043  0.00  0.00    -0.480 OA
ENDBRANCH  22  23
ENDBRANCH  20  22
ENDBRANCH  17  18
ENDBRANCH   1  17
TORSDOF 7
