REMARK  Name = ZINC13962749
REMARK  7 active torsions:
REMARK  status: ('A' for Active; 'I' for Inactive)
REMARK    1  A    between atoms: C_1  and  C_2
REMARK    2  A    between atoms: C_5  and  N_9
REMARK    3  A    between atoms: C_6  and  C_8
REMARK    4  A    between atoms: C_14  and  N_18
REMARK    5  A    between atoms: C_19  and  N_24
REMARK    6  A    between atoms: C_21  and  C_23
REMARK    7  A    between atoms: C_25  and  C_27
REMARK                            x       y       z     vdW  Elec       q    Type
REMARK                         _______ _______ _______ _____ _____    ______ ____
ROOT
ATOM      1  N   UNL     1      -0.211   7.934   0.522  0.00  0.00    -0.214 N 
ATOM      2  C   UNL     1       0.330   6.697   0.733  0.00  0.00    +0.168 A 
ATOM      3  C   UNL     1      -0.752   5.813   0.919  0.00  0.00    +0.083 A 
ATOM      4  C   UNL     1      -1.934   6.579   0.817  0.00  0.00    +0.148 A 
ATOM      5  N   UNL     1      -1.606   7.818   0.581  0.00  0.00    -0.172 NA
ATOM      6  C   UNL     1      -0.470   4.457   1.165  0.00  0.00    +0.170 A 
ATOM      7  N   UNL     1       0.799   4.074   1.200  0.00  0.00    -0.216 NA
ATOM      8  C   UNL     1       1.782   4.937   1.015  0.00  0.00    +0.226 A 
ATOM      9  N   UNL     1       1.569   6.215   0.787  0.00  0.00    -0.216 NA
ENDROOT
BRANCH   1  14
ATOM     10  C   UNL     1       2.690  12.716  -0.431  0.00  0.00    +0.044 C 
ATOM     11  C   UNL     1       1.920  11.446  -0.178  0.00  0.00    -0.050 A 
ATOM     12  C   UNL     1       2.594  10.285   0.153  0.00  0.00    +0.005 A 
ATOM     13  C   UNL     1       1.890   9.120   0.390  0.00  0.00    +0.028 A 
ATOM     14  C   UNL     1       0.505   9.114   0.286  0.00  0.00    +0.071 A 
ATOM     15  C   UNL     1      -0.169  10.282  -0.046  0.00  0.00    -0.025 A 
ATOM     16  C   UNL     1       0.541  11.445  -0.277  0.00  0.00    +0.008 A 
ATOM     17  C   UNL     1      -1.672  10.281  -0.153  0.00  0.00    +0.046 C 
ENDBRANCH   1  14
BRANCH   6  18
ATOM     18  N   UNL     1      -1.498   3.540   1.361  0.00  0.00    -0.199 N 
ATOM     19  C   UNL     1      -1.350   2.206   1.600  0.00  0.00    +0.130 A 
ATOM     20  C   UNL     1      -2.595   1.674   1.726  0.00  0.00    +0.068 A 
ATOM     21  C   UNL     1      -3.523   2.709   1.568  0.00  0.00    +0.062 A 
ATOM     22  N   UNL     1      -2.870   3.821   1.347  0.00  0.00    -0.169 NA
ATOM     23  C   UNL     1      -5.021   2.566   1.635  0.00  0.00    +0.067 C 
BRANCH  19  24
ATOM     24  N   UNL     1      -0.144   1.514   1.693  0.00  0.00    -0.269 N 
ATOM     25  C   UNL     1      -0.145   0.188   1.935  0.00  0.00    +0.233 C 
ATOM     26  O   UNL     1      -1.195  -0.402   2.078  0.00  0.00    -0.274 OA
ATOM     27  H   UNL     1       0.696   1.986   1.579  0.00  0.00    +0.156 HD
BRANCH  25  28
ATOM     28  C   UNL     1       1.159  -0.562   2.029  0.00  0.00    +0.204 C 
ATOM     29 CL   UNL     1       0.828  -2.303   2.359  0.00  0.00    -0.116 Cl
ENDBRANCH  25  28
ENDBRANCH  19  24
ENDBRANCH   6  18
TORSDOF 4
