REMARK  Name = ZINC58247447
REMARK  4 active torsions:
REMARK  status: ('A' for Active; 'I' for Inactive)
REMARK    1  A    between atoms: C_1  and  C_2
REMARK    2  A    between atoms: C_10  and  C_11
REMARK    3  A    between atoms: N_13  and  C_14
REMARK    4  A    between atoms: C_16  and  N_21
REMARK                            x       y       z     vdW  Elec       q    Type
REMARK                         _______ _______ _______ _____ _____    ______ ____
ROOT
ATOM      1  C   UNL     1       0.035  -0.383   2.483  0.00  0.00    +0.284 C 
ATOM      2  O   UNL     1       0.014   0.806   2.744  0.00  0.00    -0.266 OA
ATOM      3  N   UNL     1       0.054  -1.291   3.478  0.00  0.00    -0.277 N 
ATOM      4  H   UNL     1      -0.011  -2.237   3.273  0.00  0.00    +0.155 HD
ENDROOT
BRANCH   1  14
ATOM      5  C   UNL     1      -0.005   1.502   0.010  0.00  0.00    +0.048 C 
ATOM      6  C   UNL     1       0.022  -0.005   0.002  0.00  0.00    +0.008 A 
ATOM      7  C   UNL     1       0.040  -0.877  -1.172  0.00  0.00    +0.024 A 
ATOM      8  C   UNL     1       0.040  -0.655  -2.551  0.00  0.00    +0.012 A 
ATOM      9  C   UNL     1       0.060  -1.719  -3.408  0.00  0.00    +0.001 A 
ATOM     10  C   UNL     1       0.082  -3.018  -2.917  0.00  0.00    +0.004 A 
ATOM     11  C   UNL     1       0.083  -3.258  -1.561  0.00  0.00    +0.047 A 
ATOM     12  C   UNL     1       0.063  -2.192  -0.669  0.00  0.00    +0.136 A 
ATOM     13  O   UNL     1       0.058  -2.114   0.676  0.00  0.00    -0.450 OA
ATOM     14  C   UNL     1       0.039  -0.827   1.083  0.00  0.00    +0.194 A 
ENDBRANCH   1  14
BRANCH   3  15
ATOM     15  C   UNL     1       0.166  -0.870   4.808  0.00  0.00    +0.071 A 
ATOM     16  C   UNL     1       0.758   0.350   5.103  0.00  0.00    +0.054 A 
ATOM     17  C   UNL     1       0.867   0.764   6.422  0.00  0.00    +0.071 A 
ATOM     18  C   UNL     1       0.385  -0.042   7.445  0.00  0.00    +0.031 A 
ATOM     19  C   UNL     1      -0.204  -1.256   7.151  0.00  0.00    +0.042 A 
ATOM     20  C   UNL     1      -0.320  -1.671   5.836  0.00  0.00    +0.145 A 
ATOM     21  F   UNL     1      -0.901  -2.857   5.551  0.00  0.00    -0.204 F 
BRANCH  17  22
ATOM     22  N   UNL     1       1.466   1.997   6.723  0.00  0.00    -0.200 N 
ATOM     23  C   UNL     1       1.654   2.541   7.945  0.00  0.00    +0.250 A 
ATOM     24  N   UNL     1       2.245   3.694   7.770  0.00  0.00    -0.116 NA
ATOM     25  N   UNL     1       2.444   3.916   6.521  0.00  0.00    -0.023 NA
ATOM     26  N   UNL     1       2.003   2.929   5.817  0.00  0.00    -0.039 NA
ENDBRANCH  17  22
ENDBRANCH   3  15
TORSDOF 3
