REMARK  Name = ZINC39995210
REMARK  8 active torsions:
REMARK  status: ('A' for Active; 'I' for Inactive)
REMARK    1  A    between atoms: C_1  and  N_2
REMARK    2  A    between atoms: N_2  and  C_25
REMARK    3  A    between atoms: C_3  and  C_5
REMARK    4  A    between atoms: C_5  and  S_6
REMARK    5  A    between atoms: S_6  and  C_7
REMARK    6  A    between atoms: C_11  and  C_16
REMARK    7  A    between atoms: N_12  and  C_13
REMARK    8  A    between atoms: C_25  and  C_31
REMARK                            x       y       z     vdW  Elec       q    Type
REMARK                         _______ _______ _______ _____ _____    ______ ____
ROOT
ATOM      1  C   UNL     1       0.074  -0.077   5.252  0.00  0.00    +0.237 C 
ATOM      2  N   UNL     1      -1.086   0.814   5.081  0.00  0.00    -0.237 N 
ATOM      3  N   UNL     1      -0.613   2.120   5.255  0.00  0.00    -0.169 NA
ATOM      4  C   UNL     1       0.669   2.131   5.506  0.00  0.00    +0.147 C 
ATOM      5  N   UNL     1       1.196   0.834   5.530  0.00  0.00    -0.282 N 
ATOM      6  H   UNL     1      -1.998   0.548   4.885  0.00  0.00    +0.171 HD
ENDROOT
BRANCH   4   7
ATOM      7  C   UNL     1       1.422   3.295   5.726  0.00  0.00    +0.022 C 
ATOM      8  C   UNL     1       0.947   4.603   5.814  0.00  0.00    +0.006 A 
ATOM      9  C   UNL     1      -0.349   5.154   5.722  0.00  0.00    +0.010 A 
ATOM     10  C   UNL     1      -0.521   6.495   5.851  0.00  0.00    +0.001 A 
ATOM     11  C   UNL     1       0.558   7.353   6.075  0.00  0.00    +0.002 A 
ATOM     12  C   UNL     1       1.829   6.892   6.175  0.00  0.00    +0.026 A 
ATOM     13  C   UNL     1       2.087   5.503   6.050  0.00  0.00    +0.043 A 
ATOM     14  N   UNL     1       3.212   4.816   6.108  0.00  0.00    -0.380 N 
ATOM     15  C   UNL     1       2.919   3.392   5.921  0.00  0.00    +0.152 C 
ATOM     16  H   UNL     1       4.093   5.194   6.255  0.00  0.00    +0.160 HD
ENDBRANCH   4   7
BRANCH   5  17
ATOM     17  C   UNL     1       2.589   0.456   5.781  0.00  0.00    +0.078 C 
ATOM     18  C   UNL     1       2.950  -1.027   5.670  0.00  0.00    +0.024 C 
ATOM     19  C   UNL     1       2.884  -0.356   7.044  0.00  0.00    +0.024 C 
ENDBRANCH   5  17
BRANCH   1  20
ATOM     20  S   UNL     1       0.382  -1.018   3.732  0.00  0.00    -0.109 S 
BRANCH  20  21
ATOM     21  C   UNL     1       0.599   0.260   2.462  0.00  0.00    +0.168 C 
BRANCH  21  24
ATOM     22  C   UNL     1       1.011   1.823   0.135  0.00  0.00    +0.133 C 
ATOM     23  N   UNL     1       1.059   0.362   0.034  0.00  0.00    -0.285 N 
ATOM     24  C   UNL     1       0.865  -0.396   1.131  0.00  0.00    +0.226 C 
ATOM     25  O   UNL     1       0.904  -1.605   1.048  0.00  0.00    -0.275 OA
BRANCH  23  26
ATOM     26  C   UNL     1       1.317  -0.274  -1.260  0.00  0.00    +0.123 C 
ATOM     27  C   UNL     1       0.134  -1.169  -1.633  0.00  0.00    +0.041 C 
ATOM     28  C   UNL     1       0.404  -1.834  -2.985  0.00  0.00    +0.003 C 
ATOM     29  C   UNL     1       0.587  -0.757  -4.056  0.00  0.00    +0.000 C 
ATOM     30  C   UNL     1       1.771   0.138  -3.682  0.00  0.00    +0.003 C 
ATOM     31  C   UNL     1       1.500   0.803  -2.331  0.00  0.00    +0.041 C 
BRANCH  26  32
ATOM     32  C   UNL     1       2.540  -1.089  -1.170  0.00  0.00    +0.089 C 
ATOM     33  N   UNL     1       3.483  -1.718  -1.100  0.00  0.00    -0.194 NA
ENDBRANCH  26  32
ENDBRANCH  23  26
ENDBRANCH  21  24
ENDBRANCH  20  21
ENDBRANCH   1  20
TORSDOF 7
