REMARK  Name = ZINC39606836
REMARK  9 active torsions:
REMARK  status: ('A' for Active; 'I' for Inactive)
REMARK    1  A    between atoms: C_1  and  C_2
REMARK    2  A    between atoms: C_9  and  C_14
REMARK    3  A    between atoms: C_14  and  O_16
REMARK    4  A    between atoms: O_16  and  C_17
REMARK    5  A    between atoms: C_17  and  C_19
REMARK    6  A    between atoms: C_17  and  C_20
REMARK    7  A    between atoms: N_22  and  C_23
REMARK    8  A    between atoms: C_28  and  O_29
REMARK    9  A    between atoms: O_29  and  C_30
REMARK                            x       y       z     vdW  Elec       q    Type
REMARK                         _______ _______ _______ _____ _____    ______ ____
ROOT
ATOM      1  O   UNL     1       0.007  -7.300   2.221  0.00  0.00    -0.449 OA
ENDROOT
BRANCH   1   2
ATOM      2  C   UNL     1      -0.821  -6.369   1.706  0.00  0.00    +0.340 C 
ATOM      3  O   UNL     1      -1.908  -6.696   1.272  0.00  0.00    -0.245 OA
BRANCH   2  11
ATOM      4  C   UNL     1      -0.029   1.538   0.091  0.00  0.00    +0.029 C 
ATOM      5  C   UNL     1      -0.008   0.008   0.073  0.00  0.00    +0.134 C 
ATOM      6  C   UNL     1      -1.418  -0.515   0.095  0.00  0.00    +0.230 C 
ATOM      7  O   UNL     1      -2.299   0.193  -0.344  0.00  0.00    -0.274 OA
ATOM      8  N   UNL     1      -1.752  -1.712   0.570  0.00  0.00    -0.284 N 
ATOM      9  C   UNL     1      -0.882  -2.661   1.101  0.00  0.00    +0.048 A 
ATOM     10  C   UNL     1      -1.266  -3.991   1.137  0.00  0.00    +0.039 A 
ATOM     11  C   UNL     1      -0.407  -4.955   1.670  0.00  0.00    +0.061 A 
ATOM     12  C   UNL     1       0.844  -4.581   2.170  0.00  0.00    +0.016 A 
ATOM     13  C   UNL     1       1.228  -3.259   2.133  0.00  0.00    +0.017 A 
ATOM     14  C   UNL     1       0.375  -2.301   1.601  0.00  0.00    +0.030 A 
ATOM     15  S   UNL     1       0.872  -0.607   1.541  0.00  0.00    -0.111 S 
ATOM     16  H   UNL     1      -2.693  -1.947   0.543  0.00  0.00    +0.155 HD
ENDBRANCH   2  11
ENDBRANCH   1   2
BRANCH   1  17
ATOM     17  C   UNL     1      -0.459  -8.651   2.224  0.00  0.00    +0.259 C 
ATOM     18  C   UNL     1      -1.207  -8.930   3.530  0.00  0.00    +0.062 C 
BRANCH  17  19
ATOM     19  C   UNL     1       0.716  -9.588   2.109  0.00  0.00    +0.258 C 
ATOM     20  O   UNL     1       1.846  -9.148   2.123  0.00  0.00    -0.271 OA
ATOM     21  N   UNL     1       0.511 -10.915   1.990  0.00  0.00    -0.279 N 
ATOM     22  H   UNL     1      -0.389 -11.273   2.044  0.00  0.00    +0.155 HD
BRANCH  21  23
ATOM     23  C   UNL     1       1.598 -11.776   1.789  0.00  0.00    +0.077 A 
ATOM     24  C   UNL     1       2.821 -11.503   2.383  0.00  0.00    +0.047 A 
ATOM     25  C   UNL     1       3.892 -12.355   2.183  0.00  0.00    +0.043 A 
ATOM     26  C   UNL     1       3.746 -13.480   1.392  0.00  0.00    +0.024 A 
ATOM     27  C   UNL     1       2.530 -13.758   0.796  0.00  0.00    +0.049 A 
ATOM     28  C   UNL     1       1.451 -12.912   0.997  0.00  0.00    +0.141 A 
ATOM     29 CL   UNL     1       5.422 -12.012   2.928  0.00  0.00    -0.083 Cl
BRANCH  28  30
ATOM     30  O   UNL     1       0.252 -13.188   0.417  0.00  0.00    -0.493 OA
ATOM     31  C   UNL     1       0.174 -14.370  -0.382  0.00  0.00    +0.277 C 
ENDBRANCH  28  30
ENDBRANCH  21  23
ENDBRANCH  17  19
ENDBRANCH   1  17
TORSDOF 6
