REMARK  Name = ZINC39514245
REMARK  10 active torsions:
REMARK  status: ('A' for Active; 'I' for Inactive)
REMARK    1  A    between atoms: C_1  and  C_2
REMARK    2  A    between atoms: C_7  and  O_8
REMARK    3  A    between atoms: O_8  and  C_9
REMARK    4  A    between atoms: C_9  and  C_11
REMARK    5  A    between atoms: C_9  and  C_12
REMARK    6  A    between atoms: C_12  and  O_14
REMARK    7  A    between atoms: O_14  and  C_15
REMARK    8  A    between atoms: C_15  and  C_16
REMARK    9  A    between atoms: C_18  and  O_19
REMARK   10  A    between atoms: C_28  and  C_30
REMARK                            x       y       z     vdW  Elec       q    Type
REMARK                         _______ _______ _______ _____ _____    ______ ____
ROOT
ATOM      1  C   UNL     1       1.229  -0.785   8.223  0.00  0.00    +0.007 A 
ATOM      2  C   UNL     1       2.134  -1.819   8.361  0.00  0.00    +0.095 A 
ATOM      3  C   UNL     1       2.300  -2.433   9.594  0.00  0.00    +0.285 A 
ATOM      4  O   UNL     1       1.599  -2.046  10.665  0.00  0.00    -0.425 OA
ATOM      5  C   UNL     1       0.702  -1.042  10.586  0.00  0.00    +0.141 A 
ATOM      6  C   UNL     1       0.496  -0.376   9.357  0.00  0.00    +0.024 A 
ATOM      7  C   UNL     1      -0.434   0.675   9.272  0.00  0.00    +0.014 A 
ATOM      8  C   UNL     1      -1.131   1.054  10.375  0.00  0.00    +0.024 A 
ATOM      9  C   UNL     1      -0.928   0.402  11.604  0.00  0.00    +0.037 A 
ATOM     10  C   UNL     1      -0.017  -0.651  11.701  0.00  0.00    +0.070 A 
ATOM     11  N   UNL     1      -1.633   0.791  12.702  0.00  0.00    -0.286 N 
ATOM     12  C   UNL     1      -1.241   0.417  13.904  0.00  0.00    +0.214 C 
ATOM     13  O   UNL     1      -0.184  -0.174  14.043  0.00  0.00    -0.276 OA
ATOM     14  C   UNL     1      -2.099   0.720  15.105  0.00  0.00    +0.109 C 
ATOM     15  H   UNL     1      -2.423   1.344  12.600  0.00  0.00    +0.155 HD
ENDROOT
BRANCH   3  16
ATOM     16  O   UNL     1       3.186  -3.441   9.714  0.00  0.00    -0.480 OA
ATOM     17  H   UNL     1       3.240  -3.813  10.605  0.00  0.00    +0.295 HD
ENDBRANCH   3  16
BRANCH   1  18
ATOM     18  C   UNL     1       1.034  -0.105   6.893  0.00  0.00    +0.268 C 
BRANCH  18  19
ATOM     19  O   UNL     1       0.504  -1.041   5.952  0.00  0.00    -0.457 OA
BRANCH  19  20
ATOM     20  C   UNL     1       0.270  -0.590   4.710  0.00  0.00    +0.348 C 
ATOM     21  O   UNL     1       0.508   0.561   4.430  0.00  0.00    -0.247 OA
BRANCH  20  22
ATOM     22  C   UNL     1      -0.289  -1.520   3.664  0.00  0.00    +0.278 C 
ATOM     23  C   UNL     1      -1.700  -1.952   4.067  0.00  0.00    +0.064 C 
BRANCH  22  24
ATOM     24  O   UNL     1      -0.339  -0.845   2.405  0.00  0.00    -0.478 OA
BRANCH  24  31
ATOM     25  C   UNL     1      -0.640   0.453  -0.085  0.00  0.00    +0.047 C 
ATOM     26  C   UNL     1      -0.469  -1.039   0.037  0.00  0.00    -0.007 A 
ATOM     27  C   UNL     1      -0.450  -1.828  -1.097  0.00  0.00    +0.027 A 
ATOM     28  C   UNL     1      -0.293  -3.198  -0.985  0.00  0.00    +0.041 A 
ATOM     29  C   UNL     1      -0.156  -3.781   0.263  0.00  0.00    +0.023 A 
ATOM     30  C   UNL     1      -0.175  -2.995   1.399  0.00  0.00    +0.047 A 
ATOM     31  C   UNL     1      -0.326  -1.621   1.288  0.00  0.00    +0.125 A 
ATOM     32 CL   UNL     1      -0.270  -4.188  -2.411  0.00  0.00    -0.084 Cl
ENDBRANCH  24  31
ENDBRANCH  22  24
ENDBRANCH  20  22
ENDBRANCH  19  20
ENDBRANCH  18  19
ENDBRANCH   1  18
TORSDOF 7
