REMARK  Name = ZINC65432719
REMARK  3 active torsions:
REMARK  status: ('A' for Active; 'I' for Inactive)
REMARK    1  A    between atoms: C_1  and  N_2
REMARK    2  A    between atoms: C_5  and  C_7
REMARK    3  A    between atoms: C_13  and  C_19
REMARK                            x       y       z     vdW  Elec       q    Type
REMARK                         _______ _______ _______ _____ _____    ______ ____
ROOT
ATOM      1  C   UNL     1      -0.384   1.529  -0.612  0.00  0.00    +0.174 C 
ATOM      2  N   UNL     1      -0.417   0.071  -0.467  0.00  0.00    -0.253 N 
ATOM      3  C   UNL     1      -0.381  -0.826  -1.471  0.00  0.00    +0.127 A 
ATOM      4  C   UNL     1      -0.418  -2.075  -0.917  0.00  0.00    +0.031 A 
ATOM      5  C   UNL     1      -0.492  -1.929   0.470  0.00  0.00    +0.117 A 
ATOM      6  N   UNL     1      -0.486  -0.637   0.744  0.00  0.00    -0.168 NA
ATOM      7  C   UNL     1      -0.371  -3.331  -1.750  0.00  0.00    +0.083 C 
ATOM      8  C   UNL     1      -0.987  -3.022  -3.119  0.00  0.00    +0.110 C 
ATOM      9  C   UNL     1      -0.496  -1.706  -3.652  0.00  0.00    +0.219 C 
ATOM     10  O   UNL     1      -0.265  -1.602  -4.838  0.00  0.00    -0.275 OA
ATOM     11  N   UNL     1      -0.303  -0.636  -2.851  0.00  0.00    -0.270 N 
ATOM     12  H   UNL     1      -0.117   0.239  -3.225  0.00  0.00    +0.156 HD
ENDROOT
BRANCH   7  13
ATOM     13  C   UNL     1      -1.160  -4.421  -1.071  0.00  0.00    +0.070 A 
ATOM     14  C   UNL     1      -2.433  -4.333  -0.648  0.00  0.00    +0.152 A 
ATOM     15  N   UNL     1      -2.778  -5.507  -0.097  0.00  0.00    -0.209 NA
ATOM     16  C   UNL     1      -1.763  -6.320  -0.165  0.00  0.00    +0.179 A 
ATOM     17  N   UNL     1      -0.703  -5.704  -0.775  0.00  0.00    -0.295 N 
ATOM     18  C   UNL     1       0.449  -6.445  -0.925  0.00  0.00    +0.100 A 
ATOM     19  C   UNL     1       0.510  -7.704  -0.494  0.00  0.00    +0.067 A 
ATOM     20  S   UNL     1      -1.121  -7.938   0.194  0.00  0.00    -0.058 S 
ATOM     21 CL   UNL     1      -3.456  -2.937  -0.789  0.00  0.00    -0.060 Cl
ENDBRANCH   7  13
BRANCH   5  22
ATOM     22  C   UNL     1      -0.560  -3.030   1.462  0.00  0.00    +0.091 A 
ATOM     23  C   UNL     1      -1.214  -2.828   2.675  0.00  0.00    +0.030 A 
ATOM     24  C   UNL     1      -1.269  -3.865   3.590  0.00  0.00    +0.004 A 
ATOM     25  C   UNL     1      -0.667  -5.071   3.261  0.00  0.00    +0.020 A 
ATOM     26  C   UNL     1      -0.035  -5.203   2.039  0.00  0.00    +0.111 A 
ATOM     27  N   UNL     1      -0.002  -4.201   1.184  0.00  0.00    -0.253 NA
ENDBRANCH   5  22
TORSDOF 2
