REMARK  Name = ZINC07813086
REMARK  8 active torsions:
REMARK  status: ('A' for Active; 'I' for Inactive)
REMARK    1  A    between atoms: C_1  and  C_2
REMARK    2  A    between atoms: C_3  and  C_24
REMARK    3  A    between atoms: C_4  and  C_23
REMARK    4  A    between atoms: C_7  and  C_8
REMARK    5  A    between atoms: C_8  and  C_10
REMARK    6  A    between atoms: C_10  and  N_49
REMARK    7  A    between atoms: C_16  and  C_18
REMARK    8  A    between atoms: C_24  and  C_26
REMARK                            x       y       z     vdW  Elec       q    Type
REMARK                         _______ _______ _______ _____ _____    ______ ____
ROOT
ATOM      1  C   UNL     1      -1.473   3.232  -2.271  0.00  0.00    +0.004 C 
ENDROOT
BRANCH   1   9
ATOM      2  C   UNL     1      -1.896   2.680   0.048  0.00  0.00    -0.059 C 
ATOM      3  C   UNL     1      -1.317   1.949   1.264  0.00  0.00    +0.089 C 
ATOM      4  N   UNL     1      -0.030   2.567   1.616  0.00  0.00    -0.299 N 
ATOM      5  C   UNL     1       0.970   2.745   0.551  0.00  0.00    +0.089 C 
ATOM      6  C   UNL     1       0.301   3.445  -0.637  0.00  0.00    -0.059 C 
ATOM      7  C   UNL     1       0.225   2.963   2.879  0.00  0.00    +0.282 C 
ATOM      8  O   UNL     1      -0.568   2.713   3.767  0.00  0.00    -0.267 OA
ATOM      9  N   UNL     1      -0.891   2.666  -1.037  0.00  0.00    +0.387 N 
ATOM     10  H   UNL     1      -0.609   1.695  -1.217  0.00  0.00    -0.081 HD
BRANCH   7  11
ATOM     11  C   UNL     1       1.459   3.695   3.182  0.00  0.00    +0.189 A 
ATOM     12  C   UNL     1       1.905   4.036   4.428  0.00  0.00    +0.054 A 
ATOM     13  C   UNL     1       3.116   4.722   4.249  0.00  0.00    +0.042 A 
ATOM     14  C   UNL     1       3.354   4.770   2.920  0.00  0.00    +0.196 A 
ATOM     15  O   UNL     1       2.356   4.146   2.281  0.00  0.00    -0.458 OA
ENDBRANCH   7  11
ENDBRANCH   1   9
BRANCH   1  16
ATOM     16  C   UNL     1      -1.844   4.679  -2.067  0.00  0.00    +0.163 C 
ATOM     17  O   UNL     1      -1.741   5.183  -0.967  0.00  0.00    -0.293 OA
BRANCH  16  24
ATOM     18  C   UNL     1      -2.678   7.667  -1.895  0.00  0.00    +0.047 C 
ATOM     19  C   UNL     1      -2.688   6.774  -3.110  0.00  0.00    -0.012 A 
ATOM     20  C   UNL     1      -3.083   7.135  -4.418  0.00  0.00    +0.041 A 
ATOM     21  C   UNL     1      -2.938   6.008  -5.213  0.00  0.00    +0.024 A 
ATOM     22  N   UNL     1      -2.477   5.005  -4.454  0.00  0.00    -0.355 N 
ATOM     23  H   UNL     1      -2.288   4.106  -4.767  0.00  0.00    +0.166 HD
ATOM     24  C   UNL     1      -2.312   5.450  -3.158  0.00  0.00    +0.084 A 
ATOM     25  C   UNL     1      -3.247   5.925  -6.686  0.00  0.00    +0.064 C 
BRANCH  20  26
ATOM     26  C   UNL     1      -3.561   8.452  -4.852  0.00  0.00    +0.162 C 
ATOM     27  O   UNL     1      -4.731   8.745  -4.724  0.00  0.00    -0.292 OA
ATOM     28  C   UNL     1      -2.598   9.442  -5.456  0.00  0.00    +0.091 C 
ENDBRANCH  20  26
ENDBRANCH  16  24
ENDBRANCH   1  16
TORSDOF 5
