REMARK  Name = ZINC09427014
REMARK  10 active torsions:
REMARK  status: ('A' for Active; 'I' for Inactive)
REMARK    1  A    between atoms: C_1  and  C_2
REMARK    2  A    between atoms: C_5  and  S_8
REMARK    3  A    between atoms: S_8  and  N_11
REMARK    4  A    between atoms: N_11  and  C_12
REMARK    5  A    between atoms: N_11  and  C_26
REMARK    6  A    between atoms: C_12  and  C_13
REMARK    7  A    between atoms: C_28  and  O_34
REMARK    8  A    between atoms: C_31  and  O_32
REMARK    9  A    between atoms: O_32  and  C_33
REMARK   10  A    between atoms: O_34  and  C_35
REMARK                            x       y       z     vdW  Elec       q    Type
REMARK                         _______ _______ _______ _____ _____    ______ ____
ROOT
ATOM      1  N   UNL     1       1.069  -2.183  -0.020  0.00  0.00    -0.191 N 
ENDROOT
BRANCH   1   2
ATOM      2  C   UNL     1       0.835  -2.849  -1.229  0.00  0.00    +0.097 A 
ATOM      3  C   UNL     1       1.902  -3.290  -1.997  0.00  0.00    +0.074 A 
ATOM      4  C   UNL     1       1.667  -3.949  -3.194  0.00  0.00    +0.122 A 
ATOM      5  C   UNL     1       0.366  -4.168  -3.622  0.00  0.00    +0.049 A 
ATOM      6  C   UNL     1      -0.699  -3.728  -2.858  0.00  0.00    +0.051 A 
ATOM      7  C   UNL     1      -0.470  -3.074  -1.660  0.00  0.00    +0.143 A 
BRANCH   7   8
ATOM      8  O   UNL     1      -1.520  -2.647  -0.905  0.00  0.00    -0.493 OA
ATOM      9  C   UNL     1      -2.831  -2.913  -1.409  0.00  0.00    +0.277 C 
ENDBRANCH   7   8
BRANCH   4  10
ATOM     10  O   UNL     1       2.712  -4.382  -3.948  0.00  0.00    -0.495 OA
ATOM     11  C   UNL     1       2.397  -5.053  -5.169  0.00  0.00    +0.277 C 
ENDBRANCH   4  10
ENDBRANCH   1   2
BRANCH   1  12
ATOM     12  S   UNL     1       1.066  -3.028   1.404  0.00  0.00    +0.075 S 
ATOM     13  O   UNL     1       1.363  -4.379   1.076  0.00  0.00    -0.150 OA
ATOM     14  O   UNL     1       1.847  -2.278   2.324  0.00  0.00    -0.150 OA
BRANCH  12  19
ATOM     15  C   UNL     1      -4.592  -2.969   3.501  0.00  0.00    +0.044 C 
ATOM     16  C   UNL     1      -3.179  -2.984   2.978  0.00  0.00    -0.050 A 
ATOM     17  C   UNL     1      -2.764  -4.000   2.137  0.00  0.00    +0.005 A 
ATOM     18  C   UNL     1      -1.467  -4.014   1.657  0.00  0.00    +0.029 A 
ATOM     19  C   UNL     1      -0.587  -3.011   2.016  0.00  0.00    +0.109 A 
ATOM     20  C   UNL     1      -1.000  -1.998   2.861  0.00  0.00    +0.029 A 
ATOM     21  C   UNL     1      -2.298  -1.982   3.337  0.00  0.00    +0.005 A 
ENDBRANCH  12  19
ENDBRANCH   1  12
BRANCH   1  22
ATOM     22  C   UNL     1       1.317  -0.740  -0.015  0.00  0.00    +0.227 C 
BRANCH  22  23
ATOM     23  C   UNL     1       0.002  -0.004   0.002  0.00  0.00    +0.239 C 
ATOM     24  O   UNL     1      -1.040  -0.625   0.009  0.00  0.00    -0.273 OA
ATOM     25  N   UNL     1      -0.016   1.344   0.009  0.00  0.00    -0.259 N 
ATOM     26  C   UNL     1       1.233   2.119   0.002  0.00  0.00    +0.209 C 
ATOM     27  C   UNL     1       1.100   3.274   0.962  0.00  0.00    +0.235 C 
ATOM     28  O   UNL     1       2.088   3.712   1.512  0.00  0.00    -0.274 OA
ATOM     29  N   UNL     1      -0.102   3.825   1.215  0.00  0.00    -0.283 N 
ATOM     30  C   UNL     1      -1.263   3.308   0.632  0.00  0.00    +0.055 A 
ATOM     31  C   UNL     1      -1.228   2.051   0.019  0.00  0.00    +0.058 A 
ATOM     32  C   UNL     1      -2.368   1.525  -0.561  0.00  0.00    +0.025 A 
ATOM     33  C   UNL     1      -3.547   2.249  -0.539  0.00  0.00    +0.002 A 
ATOM     34  C   UNL     1      -3.586   3.495   0.059  0.00  0.00    +0.002 A 
ATOM     35  C   UNL     1      -2.447   4.027   0.652  0.00  0.00    +0.025 A 
ATOM     36  H   UNL     1      -0.163   4.590   1.809  0.00  0.00    +0.155 HD
ENDBRANCH  22  23
ENDBRANCH   1  22
TORSDOF 7
