REMARK  Name = ZINC66964855
REMARK  5 active torsions:
REMARK  status: ('A' for Active; 'I' for Inactive)
REMARK    1  A    between atoms: C_1  and  C_2
REMARK    2  A    between atoms: C_4  and  N_7
REMARK    3  A    between atoms: C_8  and  C_10
REMARK    4  A    between atoms: C_10  and  N_11
REMARK    5  A    between atoms: C_19  and  C_21
REMARK                            x       y       z     vdW  Elec       q    Type
REMARK                         _______ _______ _______ _____ _____    ______ ____
ROOT
ATOM      1  N   UNL     1       0.093  -6.891  -1.082  0.00  0.00    -0.215 N 
ATOM      2  C   UNL     1       1.220  -7.500  -0.658  0.00  0.00    +0.247 C 
ATOM      3  O   UNL     1       2.363  -7.162  -0.877  0.00  0.00    -0.273 OA
ATOM      4  C   UNL     1       0.756  -8.692   0.147  0.00  0.00    +0.115 C 
ATOM      5  C   UNL     1       1.234  -8.578   1.590  0.00  0.00    +0.035 C 
ATOM      6  C   UNL     1       0.729  -9.778   2.394  0.00  0.00    +0.003 C 
ATOM      7  C   UNL     1       1.255 -11.070   1.766  0.00  0.00    +0.000 C 
ATOM      8  C   UNL     1       0.748 -11.182   0.327  0.00  0.00    +0.006 C 
ATOM      9  C   UNL     1       1.254  -9.987  -0.486  0.00  0.00    +0.018 C 
ATOM     10  C   UNL     1       0.730 -10.088  -1.920  0.00  0.00    +0.010 C 
ATOM     11  N   UNL     1      -0.709  -8.618   0.083  0.00  0.00    -0.285 N 
ATOM     12  C   UNL     1      -1.003  -7.529  -0.653  0.00  0.00    +0.310 C 
ATOM     13  O   UNL     1      -2.137  -7.168  -0.903  0.00  0.00    -0.252 OA
ATOM     14  H   UNL     1      -1.341  -9.230   0.492  0.00  0.00    +0.151 HD
ENDROOT
BRANCH   1  15
ATOM     15  C   UNL     1       0.071  -5.679  -1.905  0.00  0.00    +0.214 C 
BRANCH  15  17
ATOM     16  N   UNL     1       0.039  -3.231  -1.552  0.00  0.00    -0.253 N 
ATOM     17  C   UNL     1       0.059  -4.466  -1.011  0.00  0.00    +0.237 C 
ATOM     18  O   UNL     1       0.068  -4.600   0.194  0.00  0.00    -0.274 OA
ATOM     19  H   UNL     1       0.033  -3.124  -2.516  0.00  0.00    +0.158 HD
BRANCH  16  23
ATOM     20  C   UNL     1      -0.018   1.503   0.010  0.00  0.00    +0.069 C 
ATOM     21  C   UNL     1       0.002  -0.004   0.002  0.00  0.00    +0.082 A 
ATOM     22  C   UNL     1       0.008  -0.820  -1.138  0.00  0.00    +0.092 A 
ATOM     23  C   UNL     1       0.028  -2.114  -0.729  0.00  0.00    +0.224 A 
ATOM     24  O   UNL     1       0.035  -2.120   0.615  0.00  0.00    -0.339 OA
ATOM     25  N   UNL     1       0.023  -0.774   1.055  0.00  0.00    -0.081 NA
ENDBRANCH  16  23
ENDBRANCH  15  17
ENDBRANCH   1  15
TORSDOF 3
