REMARK  Name = ZINC15934958
REMARK  9 active torsions:
REMARK  status: ('A' for Active; 'I' for Inactive)
REMARK    1  A    between atoms: C_1  and  C_2
REMARK    2  A    between atoms: C_2  and  O_3
REMARK    3  A    between atoms: O_3  and  C_4
REMARK    4  A    between atoms: C_6  and  C_18
REMARK    5  A    between atoms: C_9  and  O_10
REMARK    6  A    between atoms: O_10  and  C_11
REMARK    7  A    between atoms: C_11  and  C_13
REMARK    8  A    between atoms: C_29  and  S_30
REMARK    9  A    between atoms: S_30  and  C_33
REMARK                            x       y       z     vdW  Elec       q    Type
REMARK                         _______ _______ _______ _____ _____    ______ ____
ROOT
ATOM      1  C   UNL     1       0.636  -4.860   0.305  0.00  0.00    +0.024 C 
ATOM      2  C   UNL     1       0.668  -6.106   0.888  0.00  0.00    +0.078 C 
ATOM      3  C   UNL     1       1.779  -7.069   0.629  0.00  0.00    +0.117 C 
ATOM      4  N   UNL     1       3.010  -6.701   0.400  0.00  0.00    -0.386 N 
ATOM      5  N   UNL     1       1.363  -8.415   0.656  0.00  0.00    -0.203 N 
ATOM      6  C   UNL     1       0.220  -8.735   1.357  0.00  0.00    +0.183 C 
ATOM      7  N   UNL     1      -0.605  -7.893   1.938  0.00  0.00    -0.152 NA
ATOM      8  C   UNL     1      -0.396  -6.567   1.814  0.00  0.00    +0.273 C 
ATOM      9  O   UNL     1      -1.067  -5.764   2.443  0.00  0.00    -0.268 OA
ATOM     10  S   UNL     1       0.162 -10.398   1.254  0.00  0.00    +0.049 S 
ATOM     11  N   UNL     1       1.487 -10.655   0.260  0.00  0.00    -0.174 NA
ATOM     12  C   UNL     1       1.975  -9.469   0.066  0.00  0.00    +0.257 C 
ATOM     13  H   UNL     1       3.243  -5.759   0.400  0.00  0.00    +0.157 HD
ATOM     14  H   UNL     1       3.692  -7.369   0.230  0.00  0.00    +0.157 HD
ENDROOT
BRANCH   1  17
ATOM     15  C   UNL     1      -1.581  -1.861   0.676  0.00  0.00    +0.163 A 
ATOM     16  C   UNL     1      -0.446  -2.639   0.568  0.00  0.00    +0.057 A 
ATOM     17  C   UNL     1      -0.564  -4.028   0.421  0.00  0.00    -0.021 A 
ATOM     18  C   UNL     1      -1.835  -4.618   0.385  0.00  0.00    +0.012 A 
ATOM     19  C   UNL     1      -2.961  -3.834   0.494  0.00  0.00    +0.051 A 
ATOM     20  C   UNL     1      -2.841  -2.457   0.645  0.00  0.00    +0.173 A 
BRANCH  15  21
ATOM     21  O   UNL     1      -1.470  -0.513   0.819  0.00  0.00    -0.489 OA
BRANCH  21  23
ATOM     22  C   UNL     1      -0.224   1.549   1.010  0.00  0.00    +0.048 C 
ATOM     23  C   UNL     1      -0.148   0.030   0.843  0.00  0.00    +0.226 C 
ENDBRANCH  21  23
ENDBRANCH  15  21
BRANCH  20  24
ATOM     24  O   UNL     1      -3.956  -1.690   0.757  0.00  0.00    -0.416 OA
BRANCH  24  25
ATOM     25  C   UNL     1      -4.462  -1.140  -0.366  0.00  0.00    +0.380 C 
ATOM     26  O   UNL     1      -3.978  -1.413  -1.448  0.00  0.00    -0.241 OA
BRANCH  25  27
ATOM     27  C   UNL     1      -5.595  -0.216  -0.282  0.00  0.00    +0.212 A 
ATOM     28  C   UNL     1      -6.205   0.404  -1.336  0.00  0.00    +0.056 A 
ATOM     29  C   UNL     1      -7.235   1.192  -0.800  0.00  0.00    +0.042 A 
ATOM     30  C   UNL     1      -7.209   1.022   0.541  0.00  0.00    +0.196 A 
ATOM     31  O   UNL     1      -6.223   0.169   0.848  0.00  0.00    -0.456 OA
ENDBRANCH  25  27
ENDBRANCH  24  25
ENDBRANCH  20  24
ENDBRANCH   1  17
BRANCH  12  32
ATOM     32  S   UNL     1       3.401  -9.235  -0.942  0.00  0.00    +0.026 S 
ATOM     33  O   UNL     1       3.461 -10.394  -1.761  0.00  0.00    -0.167 OA
ATOM     34  O   UNL     1       3.230  -7.947  -1.519  0.00  0.00    -0.167 OA
ATOM     35  C   UNL     1       4.795  -9.218   0.219  0.00  0.00    +0.203 C 
ENDBRANCH  12  32
TORSDOF 7
