REMARK  Name = ZINC63351327
REMARK  5 active torsions:
REMARK  status: ('A' for Active; 'I' for Inactive)
REMARK    1  A    between atoms: C_1  and  O_2
REMARK    2  A    between atoms: O_2  and  C_3
REMARK    3  A    between atoms: C_3  and  C_5
REMARK    4  A    between atoms: C_20  and  C_22
REMARK    5  A    between atoms: C_22  and  N_23
REMARK                            x       y       z     vdW  Elec       q    Type
REMARK                         _______ _______ _______ _____ _____    ______ ____
ROOT
ATOM      1  C   UNL     1       0.646  -2.104  -1.125  0.00  0.00    +0.189 C 
ATOM      2  C   UNL     1       1.506  -2.635   0.036  0.00  0.00    +0.067 C 
ATOM      3  C   UNL     1       1.835  -4.071  -0.289  0.00  0.00    -0.035 C 
ATOM      4  C   UNL     1       1.695  -5.185   0.418  0.00  0.00    -0.001 A 
ATOM      5  C   UNL     1       1.275  -5.417   1.809  0.00  0.00    +0.010 A 
ATOM      6  C   UNL     1       1.223  -6.714   2.212  0.00  0.00    +0.001 A 
ATOM      7  C   UNL     1       1.544  -7.791   1.380  0.00  0.00    +0.002 A 
ATOM      8  C   UNL     1       1.948  -7.670   0.090  0.00  0.00    +0.026 A 
ATOM      9  C   UNL     1       2.049  -6.353  -0.445  0.00  0.00    +0.043 A 
ATOM     10  N   UNL     1       2.426  -5.951  -1.623  0.00  0.00    -0.376 N 
ATOM     11  C   UNL     1       2.419  -4.487  -1.634  0.00  0.00    +0.124 C 
ATOM     12  C   UNL     1       1.482  -3.925  -2.708  0.00  0.00    +0.137 C 
ATOM     13  N   UNL     1       1.247  -2.505  -2.401  0.00  0.00    -0.287 N 
ATOM     14  C   UNL     1       1.589  -1.562  -3.302  0.00  0.00    +0.200 C 
ATOM     15  O   UNL     1       1.493  -0.388  -3.017  0.00  0.00    -0.278 OA
ATOM     16  H   UNL     1       2.671  -6.523  -2.367  0.00  0.00    +0.160 HD
ENDROOT
BRANCH   1  17
ATOM     17  C   UNL     1       0.576  -0.601  -1.052  0.00  0.00    +0.328 C 
ATOM     18  O   UNL     1       1.458   0.020  -0.508  0.00  0.00    -0.249 OA
BRANCH  17  20
ATOM     19  C   UNL     1      -0.468   1.475  -1.487  0.00  0.00    +0.280 C 
ATOM     20  O   UNL     1      -0.467   0.050  -1.593  0.00  0.00    -0.467 OA
ENDBRANCH  17  20
ENDBRANCH   1  17
BRANCH  14  21
ATOM     21  C   UNL     1       2.090  -1.968  -4.664  0.00  0.00    +0.019 C 
BRANCH  21  22
ATOM     22  N   UNL     1       2.392  -0.767  -5.453  0.00  0.00    +0.385 N 
ATOM     23  C   UNL     1       1.152   0.018  -5.614  0.00  0.00    -0.078 C 
ATOM     24  C   UNL     1       1.531   1.457  -5.857  0.00  0.00    -0.019 C 
ATOM     25  C   UNL     1       1.557   1.787  -7.361  0.00  0.00    -0.002 C 
ATOM     26  C   UNL     1       2.183   0.645  -8.187  0.00  0.00    -0.002 C 
ATOM     27  C   UNL     1       3.397   0.052  -7.518  0.00  0.00    -0.019 C 
ATOM     28  C   UNL     1       2.961  -1.159  -6.666  0.00  0.00    -0.078 C 
ATOM     29  H   UNL     1       3.063  -0.208  -4.947  0.00  0.00    -0.081 HD
ENDBRANCH  21  22
ENDBRANCH  14  21
TORSDOF 4
