REMARK  Name = ZINC40897342
REMARK  9 active torsions:
REMARK  status: ('A' for Active; 'I' for Inactive)
REMARK    1  A    between atoms: C_1  and  C_2
REMARK    2  A    between atoms: C_2  and  C_4
REMARK    3  A    between atoms: C_2  and  N_29
REMARK    4  A    between atoms: C_4  and  O_6
REMARK    5  A    between atoms: O_6  and  C_7
REMARK    6  A    between atoms: C_12  and  C_18
REMARK    7  A    between atoms: N_20  and  C_21
REMARK    8  A    between atoms: C_21  and  C_22
REMARK    9  A    between atoms: C_22  and  C_23
REMARK                            x       y       z     vdW  Elec       q    Type
REMARK                         _______ _______ _______ _____ _____    ______ ____
ROOT
ATOM      1  C   UNL     1       2.703  -0.559   2.526  0.00  0.00    +0.135 A 
ATOM      2  C   UNL     1       2.099  -1.412   3.450  0.00  0.00    +0.047 A 
ATOM      3  C   UNL     1       2.772  -1.810   4.566  0.00  0.00    +0.015 A 
ATOM      4  C   UNL     1       4.079  -1.353   4.795  0.00  0.00    +0.019 A 
ATOM      5  C   UNL     1       4.777  -1.730   5.968  0.00  0.00    +0.031 A 
ATOM      6  C   UNL     1       5.982  -1.095   6.245  0.00  0.00    +0.122 A 
ATOM      7  C   UNL     1       6.428  -0.049   5.309  0.00  0.00    +0.350 A 
ATOM      8  O   UNL     1       7.169   0.846   5.670  0.00  0.00    -0.244 OA
ATOM      9  O   UNL     1       5.985  -0.118   4.032  0.00  0.00    -0.422 OA
ATOM     10  C   UNL     1       4.703  -0.515   3.848  0.00  0.00    +0.143 A 
ATOM     11  C   UNL     1       4.002  -0.119   2.720  0.00  0.00    +0.093 A 
ENDROOT
BRANCH   6  12
ATOM     12  C   UNL     1       6.782  -1.454   7.428  0.00  0.00    +0.251 C 
ATOM     13  O   UNL     1       6.391  -2.322   8.185  0.00  0.00    -0.270 OA
ATOM     14  N   UNL     1       7.947  -0.822   7.671  0.00  0.00    -0.311 N 
ATOM     15  H   UNL     1       8.258  -0.130   7.067  0.00  0.00    +0.149 HD
BRANCH  14  16
ATOM     16  C   UNL     1       8.743  -1.179   8.848  0.00  0.00    +0.109 C 
BRANCH  16  17
ATOM     17  C   UNL     1      10.007  -0.319   8.890  0.00  0.00    +0.054 C 
BRANCH  17  18
ATOM     18  C   UNL     1      10.825  -0.686  10.101  0.00  0.00    -0.046 A 
ATOM     19  C   UNL     1      10.615  -0.035  11.301  0.00  0.00    +0.004 A 
ATOM     20  C   UNL     1      11.365  -0.372  12.412  0.00  0.00    +0.000 A 
ATOM     21  C   UNL     1      12.327  -1.361  12.322  0.00  0.00    +0.000 A 
ATOM     22  C   UNL     1      12.537  -2.014  11.121  0.00  0.00    +0.000 A 
ATOM     23  C   UNL     1      11.783  -1.679  10.012  0.00  0.00    +0.004 A 
ENDBRANCH  17  18
ENDBRANCH  16  17
ENDBRANCH  14  16
ENDBRANCH   6  12
BRANCH   1  24
ATOM     24  O   UNL     1       2.014  -0.163   1.425  0.00  0.00    -0.424 OA
BRANCH  24  25
ATOM     25  C   UNL     1       1.085   0.796   1.574  0.00  0.00    +0.333 C 
ATOM     26  O   UNL     1       0.821   1.215   2.676  0.00  0.00    -0.248 OA
BRANCH  25  28
ATOM     27  C   UNL     1       1.395   1.970  -0.588  0.00  0.00    +0.040 C 
ATOM     28  C   UNL     1       0.373   1.349   0.367  0.00  0.00    +0.190 C 
BRANCH  28  29
ATOM     29  N   UNL     1      -0.584   2.374   0.791  0.00  0.00    -0.220 N 
ATOM     30  C   UNL     1      -0.251   3.503   1.442  0.00  0.00    +0.255 C 
ATOM     31  O   UNL     1       0.873   3.829   1.767  0.00  0.00    -0.270 OA
ATOM     32  C   UNL     1      -1.482   4.281   1.697  0.00  0.00    +0.049 A 
ATOM     33  C   UNL     1      -1.751   5.493   2.312  0.00  0.00    +0.014 A 
ATOM     34  C   UNL     1      -3.058   5.951   2.385  0.00  0.00    +0.001 A 
ATOM     35  C   UNL     1      -4.092   5.208   1.848  0.00  0.00    +0.001 A 
ATOM     36  C   UNL     1      -3.837   3.994   1.230  0.00  0.00    +0.014 A 
ATOM     37  C   UNL     1      -2.537   3.523   1.149  0.00  0.00    +0.049 A 
ATOM     38  C   UNL     1      -1.910   2.313   0.576  0.00  0.00    +0.255 C 
ATOM     39  O   UNL     1      -2.495   1.413   0.008  0.00  0.00    -0.270 OA
ENDBRANCH  28  29
ENDBRANCH  25  28
ENDBRANCH  24  25
ENDBRANCH   1  24
TORSDOF 8
