REMARK  Name = ZINC15826478
REMARK  4 active torsions:
REMARK  status: ('A' for Active; 'I' for Inactive)
REMARK    1  A    between atoms: C_4  and  C_7
REMARK    2  A    between atoms: N_9  and  N_10
REMARK    3  A    between atoms: C_11  and  C_13
REMARK    4  A    between atoms: C_13  and  N_14
REMARK                            x       y       z     vdW  Elec       q    Type
REMARK                         _______ _______ _______ _____ _____    ______ ____
ROOT
ATOM      1  C   UNL     1       6.280  -4.793  -0.085  0.00  0.00    +0.223 C 
ENDROOT
BRANCH   1   2
ATOM      2  N   UNL     1       6.036  -6.237  -0.090  0.00  0.00    -0.287 N 
ATOM      3  C   UNL     1       5.930  -6.906   1.085  0.00  0.00    +0.203 A 
ATOM      4  N   UNL     1       5.712  -8.191   1.127  0.00  0.00    -0.233 NA
ATOM      5  C   UNL     1       5.583  -8.910   0.001  0.00  0.00    +0.124 A 
ATOM      6  C   UNL     1       5.340 -10.332  -0.287  0.00  0.00    +0.046 A 
ATOM      7  C   UNL     1       5.153 -11.463   0.505  0.00  0.00    +0.014 A 
ATOM      8  C   UNL     1       4.941 -12.686  -0.092  0.00  0.00    +0.001 A 
ATOM      9  C   UNL     1       4.915 -12.793  -1.474  0.00  0.00    +0.004 A 
ATOM     10  C   UNL     1       5.099 -11.682  -2.269  0.00  0.00    +0.047 A 
ATOM     11  C   UNL     1       5.314 -10.438  -1.687  0.00  0.00    +0.138 A 
ATOM     12  O   UNL     1       5.519  -9.210  -2.208  0.00  0.00    -0.448 OA
ATOM     13  C   UNL     1       5.681  -8.286  -1.239  0.00  0.00    +0.219 A 
ATOM     14  C   UNL     1       5.912  -6.892  -1.265  0.00  0.00    +0.297 A 
ATOM     15  O   UNL     1       6.003  -6.294  -2.324  0.00  0.00    -0.264 OA
ENDBRANCH   1   2
BRANCH   1  17
ATOM     16  N   UNL     1       4.942  -2.713  -0.060  0.00  0.00    -0.233 N 
ATOM     17  C   UNL     1       4.963  -4.061  -0.068  0.00  0.00    +0.249 C 
ATOM     18  O   UNL     1       3.923  -4.684  -0.061  0.00  0.00    -0.272 OA
ATOM     19  H   UNL     1       5.774  -2.215  -0.066  0.00  0.00    +0.173 HD
BRANCH  16  22
ATOM     20  C   UNL     1       3.696  -0.685  -0.037  0.00  0.00    +0.260 C 
ATOM     21  O   UNL     1       4.738  -0.060  -0.044  0.00  0.00    -0.269 OA
ATOM     22  N   UNL     1       3.717  -2.032  -0.045  0.00  0.00    -0.230 N 
ATOM     23  H   UNL     1       2.885  -2.531  -0.039  0.00  0.00    +0.173 HD
BRANCH  20  27
ATOM     24  C   UNL     1      -0.017   1.379   0.010  0.00  0.00    +0.000 A 
ATOM     25  C   UNL     1       1.168   2.094   0.002  0.00  0.00    +0.001 A 
ATOM     26  C   UNL     1       2.377   1.429  -0.013  0.00  0.00    +0.013 A 
ATOM     27  C   UNL     1       2.403   0.034  -0.021  0.00  0.00    +0.038 A 
ATOM     28  C   UNL     1       1.204  -0.681  -0.013  0.00  0.00    +0.013 A 
ATOM     29  C   UNL     1       0.002  -0.004   0.002  0.00  0.00    +0.001 A 
ENDBRANCH  20  27
ENDBRANCH  16  22
ENDBRANCH   1  17
TORSDOF 4
