REMARK  Name = ZINC67205629
REMARK  6 active torsions:
REMARK  status: ('A' for Active; 'I' for Inactive)
REMARK    1  A    between atoms: N_10  and  C_11
REMARK    2  A    between atoms: C_11  and  C_13
REMARK    3  A    between atoms: C_13  and  C_14
REMARK    4  A    between atoms: C_14  and  C_15
REMARK    5  A    between atoms: C_15  and  C_16
REMARK    6  A    between atoms: C_16  and  C_17
REMARK                            x       y       z     vdW  Elec       q    Type
REMARK                         _______ _______ _______ _____ _____    ______ ____
ROOT
ATOM      1  C   UNL     1       7.141  -1.110  -0.075  0.00  0.00    +0.098 C 
ENDROOT
BRANCH   1   2
ATOM      2  C   UNL     1       5.677  -1.469  -0.062  0.00  0.00    +0.239 C 
ATOM      3  O   UNL     1       5.337  -2.637  -0.065  0.00  0.00    -0.274 OA
BRANCH   2  13
ATOM      4  C   UNL     1      -0.016   1.352   0.009  0.00  0.00    +0.005 A 
ATOM      5  C   UNL     1       1.196   2.069   0.002  0.00  0.00    +0.018 A 
ATOM      6  C   UNL     1       2.375   1.420  -0.013  0.00  0.00    +0.096 A 
ATOM      7  N   UNL     1       2.419   0.048  -0.021  0.00  0.00    -0.271 N 
ATOM      8  C   UNL     1       1.247  -0.681  -0.013  0.00  0.00    +0.160 A 
ATOM      9  C   UNL     1       0.002  -0.004   0.002  0.00  0.00    +0.048 A 
ATOM     10  N   UNL     1       1.552  -1.959  -0.023  0.00  0.00    -0.153 NA
ATOM     11  N   UNL     1       2.949  -2.074  -0.038  0.00  0.00    -0.246 N 
ATOM     12  C   UNL     1       3.462  -0.829  -0.036  0.00  0.00    +0.222 A 
ATOM     13  N   UNL     1       4.760  -0.511  -0.048  0.00  0.00    -0.145 NA
ATOM     14  H   UNL     1       3.455  -2.902  -0.047  0.00  0.00    +0.192 HD
ENDBRANCH   2  13
ENDBRANCH   1   2
BRANCH   1  15
ATOM     15  C   UNL     1       7.979  -2.390  -0.090  0.00  0.00    +0.009 C 
BRANCH  15  16
ATOM     16  C   UNL     1       9.465  -2.026  -0.103  0.00  0.00    +0.002 C 
BRANCH  16  17
ATOM     17  C   UNL     1      10.304  -3.305  -0.118  0.00  0.00    +0.016 C 
BRANCH  17  18
ATOM     18  C   UNL     1      11.790  -2.941  -0.132  0.00  0.00    +0.069 C 
ATOM     19  C   UNL     1      12.653  -4.176  -0.180  0.00  0.00    +0.108 C 
ATOM     20  C   UNL     1      14.033  -3.843   0.466  0.00  0.00    +0.105 C 
ATOM     21  C   UNL     1      13.716  -3.396   1.891  0.00  0.00    +0.093 C 
ATOM     22  S   UNL     1      12.316  -2.218   1.491  0.00  0.00    -0.154 S 
ATOM     23  N   UNL     1      14.721  -5.086   0.200  0.00  0.00    -0.294 N 
ATOM     24  C   UNL     1      14.215  -5.536  -0.987  0.00  0.00    +0.300 C 
ATOM     25  O   UNL     1      14.727  -6.420  -1.646  0.00  0.00    -0.253 OA
ATOM     26  N   UNL     1      13.085  -4.873  -1.355  0.00  0.00    -0.294 N 
ATOM     27  H   UNL     1      15.399  -5.512   0.749  0.00  0.00    +0.151 HD
ATOM     28  H   UNL     1      12.662  -4.878  -2.228  0.00  0.00    +0.151 HD
ENDBRANCH  17  18
ENDBRANCH  16  17
ENDBRANCH  15  16
ENDBRANCH   1  15
TORSDOF 6
