REMARK  Name = ZINC19845573
REMARK  3 active torsions:
REMARK  status: ('A' for Active; 'I' for Inactive)
REMARK    1  A    between atoms: C_9  and  S_11
REMARK    2  A    between atoms: S_11  and  C_12
REMARK    3  A    between atoms: C_17  and  N_18
REMARK                            x       y       z     vdW  Elec       q    Type
REMARK                         _______ _______ _______ _____ _____    ______ ____
ROOT
ATOM      1  S   UNL     1       1.254  -2.443  -0.024  0.00  0.00    -0.050 S 
ENDROOT
BRANCH   1  10
ATOM      2  C   UNL     1       7.307  -4.025  -0.669  0.00  0.00    +0.002 A 
ATOM      3  C   UNL     1       7.498  -2.655  -0.560  0.00  0.00    +0.002 A 
ATOM      4  C   UNL     1       6.423  -1.811  -0.394  0.00  0.00    +0.030 A 
ATOM      5  C   UNL     1       5.130  -2.337  -0.336  0.00  0.00    +0.090 A 
ATOM      6  C   UNL     1       4.943  -3.724  -0.446  0.00  0.00    +0.067 A 
ATOM      7  C   UNL     1       6.037  -4.560  -0.612  0.00  0.00    +0.028 A 
ATOM      8  N   UNL     1       3.578  -3.938  -0.347  0.00  0.00    -0.333 N 
ATOM      9  H   UNL     1       3.176  -4.961  -0.400  0.00  0.00    +0.168 HD
ATOM     10  C   UNL     1       2.987  -2.716  -0.193  0.00  0.00    +0.172 A 
ATOM     11  N   UNL     1       3.901  -1.778  -0.183  0.00  0.00    -0.222 NA
ENDBRANCH   1  10
BRANCH   1  12
ATOM     12  C   UNL     1       1.221  -0.681  -0.018  0.00  0.00    +0.036 A 
ATOM     13  C   UNL     1       1.032   0.007   1.171  0.00  0.00    +0.018 A 
ATOM     14  C   UNL     1       1.007   1.389   1.174  0.00  0.00    +0.016 A 
ATOM     15  C   UNL     1       1.170   2.090  -0.008  0.00  0.00    +0.020 A 
ATOM     16  C   UNL     1       1.359   1.412  -1.198  0.00  0.00    +0.039 A 
ATOM     17  C   UNL     1       1.386   0.025  -1.210  0.00  0.00    +0.040 A 
ATOM     18 BR   UNL     1       1.135   3.981   0.005  0.00  0.00    -0.050 Br
BRANCH  17  19
ATOM     19  N   UNL     1       1.577  -0.663  -2.413  0.00  0.00    -0.357 N 
ATOM     20  H   UNL     1       1.707  -0.104  -3.351  0.00  0.00    +0.142 HD
ATOM     21  H   UNL     1       1.599  -1.763  -2.420  0.00  0.00    +0.142 HD
ENDBRANCH  17  19
ENDBRANCH   1  12
TORSDOF 3
