REMARK  Name = ZINC22052895
REMARK  5 active torsions:
REMARK  status: ('A' for Active; 'I' for Inactive)
REMARK    1  A    between atoms: C_1  and  C_2
REMARK    2  A    between atoms: C_2  and  C_3
REMARK    3  A    between atoms: C_2  and  C_4
REMARK    4  A    between atoms: C_2  and  O_5
REMARK    5  A    between atoms: O_5  and  C_6
REMARK                            x       y       z     vdW  Elec       q    Type
REMARK                         _______ _______ _______ _____ _____    ______ ____
ROOT
ATOM      1  C   UNL     1      -4.102   5.665   0.071  0.00  0.00    +0.403 C 
ATOM      2  O   UNL     1      -4.482   6.125   1.130  0.00  0.00    -0.226 OA
ATOM      3  N   UNL     1      -3.237   4.631   0.058  0.00  0.00    -0.267 N 
ATOM      4  C   UNL     1      -2.745   4.051   1.315  0.00  0.00    +0.113 C 
ATOM      5  C   UNL     1      -1.213   4.052   1.291  0.00  0.00    +0.054 C 
ATOM      6  C   UNL     1      -0.725   3.352   0.027  0.00  0.00    +0.115 C 
ATOM      7  C   UNL     1      -1.237   4.066  -1.220  0.00  0.00    +0.054 C 
ATOM      8  C   UNL     1      -2.769   4.064  -1.214  0.00  0.00    +0.113 C 
ATOM      9  C   UNL     1       0.785   3.285   0.012  0.00  0.00    +0.244 C 
ATOM     10  O   UNL     1       1.561   4.217   0.010  0.00  0.00    -0.273 OA
ATOM     11  N   UNL     1       1.088   1.971   0.002  0.00  0.00    -0.238 N 
ATOM     12  C   UNL     1      -0.014   1.211   0.009  0.00  0.00    +0.307 C 
ATOM     13  O   UNL     1       0.002  -0.004   0.002  0.00  0.00    -0.252 OA
ATOM     14  N   UNL     1      -1.144   1.945   0.018  0.00  0.00    -0.285 N 
ATOM     15  H   UNL     1       2.140   1.648  -0.009  0.00  0.00    +0.159 HD
ATOM     16  H   UNL     1      -2.214   1.690   0.019  0.00  0.00    +0.151 HD
ENDROOT
BRANCH   1  17
ATOM     17  O   UNL     1      -4.545   6.188  -1.088  0.00  0.00    -0.445 OA
BRANCH  17  19
ATOM     18  C   UNL     1      -4.812   8.459  -0.250  0.00  0.00    +0.055 C 
ATOM     19  C   UNL     1      -5.475   7.299  -0.997  0.00  0.00    +0.107 C 
ATOM     20  C   UNL     1      -5.863   7.755  -2.405  0.00  0.00    +0.055 C 
ATOM     21  C   UNL     1      -6.728   6.855  -0.241  0.00  0.00    +0.055 C 
ENDBRANCH  17  19
ENDBRANCH   1  17
TORSDOF 2
