REMARK  Name = ZINC36371061
REMARK  7 active torsions:
REMARK  status: ('A' for Active; 'I' for Inactive)
REMARK    1  A    between atoms: C_1  and  C_2
REMARK    2  A    between atoms: C_5  and  O_32
REMARK    3  A    between atoms: C_16  and  O_31
REMARK    4  A    between atoms: C_19  and  C_30
REMARK    5  A    between atoms: C_24  and  C_26
REMARK    6  A    between atoms: C_26  and  C_28
REMARK    7  A    between atoms: C_28  and  O_29
REMARK                            x       y       z     vdW  Elec       q    Type
REMARK                         _______ _______ _______ _____ _____    ______ ____
ROOT
ATOM      1  C   UNL     1      -0.019   1.543   0.011  0.00  0.00    +0.012 C 
ATOM      2  C   UNL     1       0.002  -0.004   0.002  0.00  0.00    -0.024 C 
ATOM      3  C   UNL     1       0.711  -0.465  -1.265  0.00  0.00    +0.010 C 
ATOM      4  C   UNL     1       2.179  -0.037  -1.273  0.00  0.00    +0.032 C 
ATOM      5  C   UNL     1       2.886  -0.607  -0.042  0.00  0.00    +0.115 C 
ATOM      6  C   UNL     1       2.222  -0.049   1.217  0.00  0.00    +0.035 C 
ATOM      7  C   UNL     1       0.749  -0.442   1.256  0.00  0.00    -0.002 C 
ATOM      8  C   UNL     1       0.623  -1.955   1.447  0.00  0.00    +0.004 C 
ATOM      9  C   UNL     1      -0.854  -2.252   1.719  0.00  0.00    +0.004 C 
ATOM     10  C   UNL     1      -1.673  -1.907   0.475  0.00  0.00    -0.001 C 
ATOM     11  C   UNL     1      -1.450  -0.474   0.017  0.00  0.00    +0.027 C 
ATOM     12  C   UNL     1      -2.138  -0.155  -1.304  0.00  0.00    +0.119 C 
ATOM     13  C   UNL     1      -2.021  -1.237  -2.378  0.00  0.00    +0.039 C 
ATOM     14  C   UNL     1      -2.341  -2.600  -1.824  0.00  0.00    -0.017 C 
ATOM     15  C   UNL     1      -1.389  -2.881  -0.638  0.00  0.00    -0.001 C 
ATOM     16  C   UNL     1      -1.682  -4.359  -0.344  0.00  0.00    +0.005 C 
ATOM     17  C   UNL     1      -1.796  -4.979  -1.763  0.00  0.00    +0.012 C 
ATOM     18  C   UNL     1      -2.099  -3.809  -2.734  0.00  0.00    +0.064 C 
ATOM     19  C   UNL     1      -3.810  -2.662  -1.384  0.00  0.00    +0.012 C 
ENDROOT
BRANCH  18  20
ATOM     20  C   UNL     1      -0.942  -3.591  -3.665  0.00  0.00    +0.162 C 
ATOM     21  O   UNL     1      -0.023  -2.882  -3.331  0.00  0.00    -0.295 OA
BRANCH  20  22
ATOM     22  C   UNL     1      -0.927  -4.257  -5.017  0.00  0.00    +0.230 C 
BRANCH  22  23
ATOM     23  O   UNL     1       0.269  -3.897  -5.712  0.00  0.00    -0.388 OA
ATOM     24  H   UNL     1       0.346  -4.291  -6.591  0.00  0.00    +0.210 HD
ENDBRANCH  22  23
ENDBRANCH  20  22
ENDBRANCH  18  20
BRANCH  12  25
ATOM     25  O   UNL     1      -3.512   0.160  -1.059  0.00  0.00    -0.391 OA
ATOM     26  H   UNL     1      -4.016   0.374  -1.856  0.00  0.00    +0.210 HD
ENDBRANCH  12  25
BRANCH   5  27
ATOM     27  O   UNL     1       4.263  -0.226  -0.063  0.00  0.00    -0.392 OA
ATOM     28  H   UNL     1       4.746  -0.540  -0.839  0.00  0.00    +0.210 HD
ENDBRANCH   5  27
TORSDOF 5
