REMARK  Name = ZINC09336164
REMARK  8 active torsions:
REMARK  status: ('A' for Active; 'I' for Inactive)
REMARK    1  A    between atoms: C_1  and  C_2
REMARK    2  A    between atoms: C_2  and  C_3
REMARK    3  A    between atoms: C_2  and  C_4
REMARK    4  A    between atoms: C_4  and  C_6
REMARK    5  A    between atoms: C_4  and  N_16
REMARK    6  A    between atoms: N_8  and  C_9
REMARK    7  A    between atoms: N_16  and  S_17
REMARK    8  A    between atoms: S_17  and  C_20
REMARK                            x       y       z     vdW  Elec       q    Type
REMARK                         _______ _______ _______ _____ _____    ______ ____
ROOT
ATOM      1  N   UNL     1      -3.369   0.353   3.617  0.00  0.00    -0.178 NA
ATOM      2  H   UNL     1      -4.307   0.366   3.368  0.00  0.00    +0.149 HD
ENDROOT
BRANCH   1   3
ATOM      3  S   UNL     1      -2.782  -0.869   4.568  0.00  0.00    +0.059 S 
ATOM      4  O   UNL     1      -3.894  -1.679   4.921  0.00  0.00    -0.153 OA
ATOM      5  O   UNL     1      -1.640  -1.390   3.901  0.00  0.00    -0.153 OA
BRANCH   3   6
ATOM      6  C   UNL     1      -2.200  -0.134   6.061  0.00  0.00    +0.109 A 
ATOM      7  C   UNL     1      -0.904   0.342   6.135  0.00  0.00    +0.032 A 
ATOM      8  C   UNL     1      -0.443   0.925   7.301  0.00  0.00    +0.051 A 
ATOM      9  C   UNL     1      -1.281   1.021   8.399  0.00  0.00    +0.162 A 
ATOM     10  C   UNL     1      -2.580   0.538   8.326  0.00  0.00    +0.164 A 
ATOM     11  C   UNL     1      -3.041  -0.040   7.156  0.00  0.00    +0.078 A 
ATOM     12  O   UNL     1      -3.398   0.638   9.414  0.00  0.00    -0.488 OA
ATOM     13  C   UNL     1      -3.048  -0.174  10.536  0.00  0.00    +0.232 C 
ATOM     14  C   UNL     1      -2.004   0.519  11.398  0.00  0.00    +0.082 C 
ATOM     15  C   UNL     1      -0.682   0.705  10.669  0.00  0.00    +0.232 C 
ATOM     16  O   UNL     1      -0.837   1.590   9.558  0.00  0.00    -0.488 OA
ENDBRANCH   3   6
ENDBRANCH   1   3
BRANCH   1  17
ATOM     17  C   UNL     1      -2.473   1.415   3.152  0.00  0.00    +0.165 C 
BRANCH  17  18
ATOM     18  C   UNL     1      -1.973   1.080   1.770  0.00  0.00    +0.232 C 
ATOM     19  O   UNL     1      -2.577   0.284   1.083  0.00  0.00    -0.274 OA
ATOM     20  N   UNL     1      -0.854   1.665   1.299  0.00  0.00    -0.311 N 
ATOM     21  H   UNL     1      -0.412   2.356   1.817  0.00  0.00    +0.149 HD
BRANCH  20  22
ATOM     22  C   UNL     1      -0.305   1.258   0.003  0.00  0.00    +0.073 C 
ATOM     23  C   UNL     1      -0.981   2.026  -1.100  0.00  0.00    +0.022 C 
ATOM     24  C   UNL     1      -1.139   1.194  -2.387  0.00  0.00    +0.002 C 
ATOM     25  C   UNL     1       0.112   0.356  -2.713  0.00  0.00    +0.000 C 
ATOM     26  C   UNL     1       1.391   1.115  -2.483  0.00  0.00    +0.000 C 
ATOM     27  C   UNL     1       1.900   0.798  -1.062  0.00  0.00    +0.002 C 
ATOM     28  C   UNL     1       1.206   1.567  -0.040  0.00  0.00    +0.022 C 
ENDBRANCH  20  22
ENDBRANCH  17  18
BRANCH  17  30
ATOM     29  C   UNL     1      -4.429   2.617   2.165  0.00  0.00    +0.009 C 
ATOM     30  C   UNL     1      -3.233   2.742   3.112  0.00  0.00    +0.010 C 
ATOM     31  C   UNL     1      -3.729   3.088   4.517  0.00  0.00    +0.009 C 
ENDBRANCH  17  30
ENDBRANCH   1  17
TORSDOF 6
