REMARK  Name = ZINC37063454
REMARK  4 active torsions:
REMARK  status: ('A' for Active; 'I' for Inactive)
REMARK    1  A    between atoms: C_1  and  C_2
REMARK    2  A    between atoms: N_7  and  S_8
REMARK    3  A    between atoms: S_8  and  C_11
REMARK    4  A    between atoms: C_13  and  N_19
REMARK                            x       y       z     vdW  Elec       q    Type
REMARK                         _______ _______ _______ _____ _____    ______ ____
ROOT
ATOM      1  S   UNL     1       0.075  -4.553   1.809  0.00  0.00    +0.104 S 
ATOM      2  O   UNL     1      -1.169  -4.864   1.196  0.00  0.00    -0.146 OA
ATOM      3  O   UNL     1       1.321  -4.829   1.185  0.00  0.00    -0.146 OA
ENDROOT
BRANCH   1  10
ATOM      4  C   UNL     1      -0.018   1.503   0.010  0.00  0.00    +0.064 C 
ATOM      5  C   UNL     1       0.002  -0.004   0.002  0.00  0.00    +0.022 A 
ATOM      6  C   UNL     1       0.006  -0.662  -1.157  0.00  0.00    +0.069 A 
ATOM      7  S   UNL     1       0.032  -2.365  -0.622  0.00  0.00    -0.057 S 
ATOM      8  C   UNL     1       0.036  -2.068   1.139  0.00  0.00    +0.192 A 
ATOM      9  N   UNL     1       0.023  -0.690   1.181  0.00  0.00    -0.336 N 
ATOM     10  N   UNL     1       0.053  -2.928   2.127  0.00  0.00    -0.103 NA
ATOM     11  H   UNL     1       0.024  -0.220   2.029  0.00  0.00    +0.168 HD
ENDBRANCH   1  10
BRANCH   1  12
ATOM     12  C   UNL     1       0.094  -5.388   3.361  0.00  0.00    +0.151 A 
ATOM     13  C   UNL     1      -0.976  -6.180   3.732  0.00  0.00    +0.054 A 
ATOM     14  C   UNL     1      -0.961  -6.838   4.955  0.00  0.00    +0.028 A 
ATOM     15  C   UNL     1       0.130  -6.698   5.803  0.00  0.00    +0.045 A 
ATOM     16  C   UNL     1       1.198  -5.904   5.429  0.00  0.00    +0.080 A 
ATOM     17  C   UNL     1       1.182  -5.253   4.205  0.00  0.00    +0.168 A 
ATOM     18  F   UNL     1       2.229  -4.482   3.838  0.00  0.00    -0.202 F 
ATOM     19 CL   UNL     1       2.562  -5.728   6.488  0.00  0.00    -0.080 Cl
BRANCH  14  20
ATOM     20  N   UNL     1      -2.042  -7.639   5.332  0.00  0.00    -0.358 N 
ATOM     21  H   UNL     1      -2.804  -7.736   4.739  0.00  0.00    +0.142 HD
ATOM     22  H   UNL     1      -2.031  -8.099   6.186  0.00  0.00    +0.142 HD
ENDBRANCH  14  20
ENDBRANCH   1  12
TORSDOF 3
