REMARK  Name = ZINC02885762
REMARK  3 active torsions:
REMARK  status: ('A' for Active; 'I' for Inactive)
REMARK    1  A    between atoms: C_4  and  C_8
REMARK    2  A    between atoms: N_9  and  N_10
REMARK    3  A    between atoms: C_11  and  C_13
REMARK                            x       y       z     vdW  Elec       q    Type
REMARK                         _______ _______ _______ _____ _____    ______ ____
ROOT
ATOM      1  N   UNL     1      -2.349   0.993   0.019  0.00  0.00    -0.203 N 
ATOM      2  C   UNL     1      -3.525   1.651   0.028  0.00  0.00    +0.263 C 
ATOM      3  O   UNL     1      -3.542   2.866   0.034  0.00  0.00    -0.268 OA
ATOM      4  H   UNL     1      -2.336   0.023   0.013  0.00  0.00    +0.178 HD
ENDROOT
BRANCH   2   5
ATOM      5  C   UNL     1      -4.795   0.894   0.030  0.00  0.00    +0.040 A 
ATOM      6  C   UNL     1      -4.779  -0.502   0.016  0.00  0.00    +0.014 A 
ATOM      7  C   UNL     1      -5.966  -1.203   0.024  0.00  0.00    +0.022 A 
ATOM      8  C   UNL     1      -7.174  -0.524   0.033  0.00  0.00    +0.059 A 
ATOM      9  C   UNL     1      -7.197   0.861   0.041  0.00  0.00    +0.060 A 
ATOM     10  C   UNL     1      -6.014   1.573   0.039  0.00  0.00    +0.034 A 
ATOM     11 CL   UNL     1      -8.715   1.703   0.053  0.00  0.00    -0.082 Cl
ATOM     12 CL   UNL     1      -8.665  -1.414   0.036  0.00  0.00    -0.082 Cl
ENDBRANCH   2   5
BRANCH   1  14
ATOM     13  C   UNL     1      -0.013   1.076   0.008  0.00  0.00    +0.141 C 
ATOM     14  N   UNL     1      -1.145   1.710   0.017  0.00  0.00    -0.187 NA
BRANCH  13  18
ATOM     15  C   UNL     1       3.635   3.248  -0.016  0.00  0.00    +0.003 A 
ATOM     16  C   UNL     1       3.658   1.865  -0.023  0.00  0.00    +0.021 A 
ATOM     17  C   UNL     1       2.476   1.151  -0.015  0.00  0.00    +0.051 A 
ATOM     18  C   UNL     1       1.254   1.830  -0.000  0.00  0.00    +0.031 A 
ATOM     19  C   UNL     1       1.239   3.228   0.002  0.00  0.00    +0.051 A 
ATOM     20  C   UNL     1       2.430   3.928  -0.002  0.00  0.00    +0.021 A 
ATOM     21 CL   UNL     1      -0.272   4.082   0.014  0.00  0.00    -0.083 Cl
ATOM     22 CL   UNL     1       2.507  -0.584  -0.025  0.00  0.00    -0.083 Cl
ENDBRANCH  13  18
ENDBRANCH   1  14
TORSDOF 3
