REMARK  Name = ZINC23448584
REMARK  10 active torsions:
REMARK  status: ('A' for Active; 'I' for Inactive)
REMARK    1  A    between atoms: C_1  and  C_2
REMARK    2  A    between atoms: C_6  and  C_8
REMARK    3  A    between atoms: C_8  and  O_9
REMARK    4  A    between atoms: O_9  and  C_10
REMARK    5  A    between atoms: C_10  and  C_12
REMARK    6  A    between atoms: C_10  and  C_30
REMARK    7  A    between atoms: C_12  and  N_13
REMARK    8  A    between atoms: N_16  and  S_19
REMARK    9  A    between atoms: S_19  and  C_22
REMARK   10  A    between atoms: C_26  and  C_28
REMARK                            x       y       z     vdW  Elec       q    Type
REMARK                         _______ _______ _______ _____ _____    ______ ____
ROOT
ATOM      1  C   UNL     1      -1.233  -0.535   0.732  0.00  0.00    -0.042 C 
ENDROOT
BRANCH   1   2
ATOM      2  N   UNL     1      -1.227  -0.053   2.120  0.00  0.00    +0.383 N 
ATOM      3  C   UNL     1      -0.098  -0.621   2.869  0.00  0.00    -0.061 C 
ATOM      4  C   UNL     1      -0.020   0.042   4.249  0.00  0.00    +0.091 C 
ATOM      5  N   UNL     1      -1.330  -0.088   4.904  0.00  0.00    -0.180 NA
ATOM      6  C   UNL     1      -2.526   0.333   4.159  0.00  0.00    +0.091 C 
ATOM      7  C   UNL     1      -2.505  -0.341   2.783  0.00  0.00    -0.061 C 
ATOM      8  H   UNL     1      -1.099   1.040   2.099  0.00  0.00    -0.082 HD
BRANCH   5   9
ATOM      9  S   UNL     1      -1.456  -0.695   6.440  0.00  0.00    +0.061 S 
ATOM     10  O   UNL     1      -0.198  -0.478   7.066  0.00  0.00    -0.153 OA
ATOM     11  O   UNL     1      -2.671  -0.191   6.978  0.00  0.00    -0.153 OA
BRANCH   9  12
ATOM     12  C   UNL     1      -1.653  -2.440   6.297  0.00  0.00    +0.107 A 
ATOM     13  C   UNL     1      -2.921  -2.986   6.204  0.00  0.00    +0.028 A 
ATOM     14  C   UNL     1      -3.085  -4.354   6.086  0.00  0.00    +0.003 A 
ATOM     15  C   UNL     1      -1.984  -5.186   6.072  0.00  0.00    +0.019 A 
ATOM     16  C   UNL     1      -0.702  -4.642   6.170  0.00  0.00    +0.054 A 
ATOM     17  C   UNL     1      -0.544  -3.259   6.283  0.00  0.00    +0.047 A 
BRANCH  16  18
ATOM     18  C   UNL     1       0.445  -5.499   6.156  0.00  0.00    +0.099 C 
ATOM     19  N   UNL     1       1.355  -6.178   6.145  0.00  0.00    -0.191 NA
ENDBRANCH  16  18
ENDBRANCH   9  12
ENDBRANCH   5   9
ENDBRANCH   1   2
BRANCH   1  20
ATOM     20  C   UNL     1       0.002  -0.004   0.002  0.00  0.00    +0.132 C 
BRANCH  20  21
ATOM     21  C   UNL     1      -0.005  -0.499  -1.421  0.00  0.00    -0.021 A 
ATOM     22  C   UNL     1      -0.715   0.188  -2.388  0.00  0.00    +0.007 A 
ATOM     23  C   UNL     1      -0.717  -0.262  -3.695  0.00  0.00    +0.020 A 
ATOM     24  C   UNL     1      -0.017  -1.406  -4.033  0.00  0.00    +0.041 A 
ATOM     25  C   UNL     1       0.689  -2.097  -3.064  0.00  0.00    +0.020 A 
ATOM     26  C   UNL     1       0.695  -1.643  -1.759  0.00  0.00    +0.007 A 
ATOM     27 CL   UNL     1      -0.025  -1.976  -5.673  0.00  0.00    -0.084 Cl
ENDBRANCH  20  21
BRANCH  20  28
ATOM     28  O   UNL     1      -0.017   1.425   0.010  0.00  0.00    -0.369 OA
BRANCH  28  29
ATOM     29  C   UNL     1       1.280   2.024   0.001  0.00  0.00    +0.195 C 
BRANCH  29  35
ATOM     30  C   UNL     1       0.857   6.353  -2.475  0.00  0.00    +0.044 C 
ATOM     31  C   UNL     1       0.938   5.595  -1.174  0.00  0.00    -0.050 A 
ATOM     32  C   UNL     1       0.886   6.277   0.027  0.00  0.00    +0.003 A 
ATOM     33  C   UNL     1       0.961   5.582   1.220  0.00  0.00    +0.001 A 
ATOM     34  C   UNL     1       1.088   4.206   1.211  0.00  0.00    +0.006 A 
ATOM     35  C   UNL     1       1.141   3.524   0.010  0.00  0.00    -0.022 A 
ATOM     36  C   UNL     1       1.071   4.220  -1.183  0.00  0.00    +0.009 A 
ENDBRANCH  29  35
ENDBRANCH  28  29
ENDBRANCH  20  28
ENDBRANCH   1  20
TORSDOF 9
