REMARK  Name = ZINC23214101
REMARK  5 active torsions:
REMARK  status: ('A' for Active; 'I' for Inactive)
REMARK    1  A    between atoms: C_1  and  C_2
REMARK    2  A    between atoms: C_8  and  C_10
REMARK    3  A    between atoms: N_13  and  C_16
REMARK    4  A    between atoms: N_22  and  C_23
REMARK    5  A    between atoms: N_22  and  C_24
REMARK                            x       y       z     vdW  Elec       q    Type
REMARK                         _______ _______ _______ _____ _____    ______ ____
ROOT
ATOM      1  C   UNL     1      -0.136   1.326   0.027  0.00  0.00    +0.041 C 
ATOM      2  C   UNL     1       1.200   2.048  -0.163  0.00  0.00    +0.028 C 
ATOM      3  C   UNL     1       1.917   1.472  -1.386  0.00  0.00    +0.107 C 
ATOM      4  N   UNL     1       2.141   0.034  -1.192  0.00  0.00    -0.316 N 
ATOM      5  C   UNL     1       0.869  -0.688  -1.055  0.00  0.00    +0.107 C 
ATOM      6  C   UNL     1       0.121  -0.176   0.178  0.00  0.00    +0.028 C 
ENDROOT
BRANCH   4   7
ATOM      7  C   UNL     1       2.902  -0.494  -2.222  0.00  0.00    +0.106 A 
ATOM      8  C   UNL     1       4.296  -0.571  -2.104  0.00  0.00    +0.012 A 
ATOM      9  C   UNL     1       5.015  -1.096  -3.150  0.00  0.00    +0.051 A 
ATOM     10  N   UNL     1       4.366  -1.509  -4.236  0.00  0.00    -0.221 NA
ATOM     11  C   UNL     1       3.049  -1.425  -4.322  0.00  0.00    +0.197 A 
ATOM     12  N   UNL     1       2.320  -0.932  -3.331  0.00  0.00    -0.316 N 
ATOM     13  N   UNL     1       2.417  -1.862  -5.473  0.00  0.00    -0.307 N 
ATOM     14  C   UNL     1       3.206  -2.416  -6.576  0.00  0.00    +0.132 C 
ATOM     15  C   UNL     1       0.959  -1.771  -5.588  0.00  0.00    +0.132 C 
ATOM     16  C   UNL     1       6.514  -1.225  -3.120  0.00  0.00    +0.056 C 
ATOM     17  C   UNL     1       7.106  -0.333  -2.030  0.00  0.00    +0.006 C 
ATOM     18  C   UNL     1       6.365  -0.613  -0.717  0.00  0.00    +0.005 C 
ATOM     19  C   UNL     1       4.941  -0.068  -0.843  0.00  0.00    +0.040 C 
ATOM     20  H   UNL     1       1.225  -0.885  -3.425  0.00  0.00    +0.170 HD
ENDBRANCH   4   7
BRANCH   1  28
ATOM     21  C   UNL     1      -0.065   2.039   4.859  0.00  0.00    +0.086 C 
ATOM     22  C   UNL     1      -0.787   2.184   3.544  0.00  0.00    +0.107 A 
ATOM     23  N   UNL     1      -2.001   2.767   3.521  0.00  0.00    -0.311 N 
ATOM     24  H   UNL     1      -2.455   3.130   4.455  0.00  0.00    +0.170 HD
ATOM     25  C   UNL     1      -2.660   2.904   2.350  0.00  0.00    +0.252 A 
ATOM     26  O   UNL     1      -3.760   3.429   2.312  0.00  0.00    -0.268 OA
ATOM     27  C   UNL     1      -2.046   2.431   1.171  0.00  0.00    +0.093 A 
ATOM     28  C   UNL     1      -0.820   1.847   1.264  0.00  0.00    +0.052 A 
ATOM     29  N   UNL     1      -0.221   1.742   2.453  0.00  0.00    -0.239 NA
ENDBRANCH   1  28
TORSDOF 2
