REMARK  Name = ZINC09727017
REMARK  9 active torsions:
REMARK  status: ('A' for Active; 'I' for Inactive)
REMARK    1  A    between atoms: C_1  and  O_2
REMARK    2  A    between atoms: O_2  and  C_3
REMARK    3  A    between atoms: C_3  and  C_5
REMARK    4  A    between atoms: C_5  and  N_6
REMARK    5  A    between atoms: C_10  and  S_26
REMARK    6  A    between atoms: N_15  and  C_16
REMARK    7  A    between atoms: C_16  and  C_18
REMARK    8  A    between atoms: C_21  and  C_24
REMARK    9  A    between atoms: S_26  and  N_29
REMARK                            x       y       z     vdW  Elec       q    Type
REMARK                         _______ _______ _______ _____ _____    ______ ____
ROOT
ATOM      1  N   UNL     1      -0.833   1.249  -1.195  0.00  0.00    -0.310 N 
ATOM      2  C   UNL     1      -0.237   1.581  -2.397  0.00  0.00    +0.058 A 
ATOM      3  C   UNL     1       1.125   1.789  -2.666  0.00  0.00    +0.029 A 
ATOM      4  C   UNL     1       1.550   2.110  -3.933  0.00  0.00    +0.030 A 
ATOM      5  C   UNL     1       0.654   2.232  -4.982  0.00  0.00    +0.106 A 
ATOM      6  C   UNL     1      -0.694   2.026  -4.746  0.00  0.00    +0.045 A 
ATOM      7  C   UNL     1      -1.121   1.706  -3.479  0.00  0.00    +0.041 A 
ATOM      8  S   UNL     1      -2.705   1.368  -2.753  0.00  0.00    -0.052 S 
ATOM      9  C   UNL     1      -2.181   1.079  -1.125  0.00  0.00    +0.167 A 
ATOM     10  N   UNL     1      -2.919   0.767  -0.066  0.00  0.00    -0.152 NA
ENDROOT
BRANCH   5  11
ATOM     11  S   UNL     1       1.224   2.643  -6.598  0.00  0.00    +0.056 S 
ATOM     12  O   UNL     1       2.587   2.246  -6.661  0.00  0.00    -0.153 OA
ATOM     13  O   UNL     1       0.247   2.158  -7.508  0.00  0.00    -0.153 OA
BRANCH  11  14
ATOM     14  N   UNL     1       1.206   4.294  -6.718  0.00  0.00    -0.204 NA
ATOM     15  H   UNL     1       1.844   4.746  -7.292  0.00  0.00    +0.144 HD
ATOM     16  H   UNL     1       0.557   4.810  -6.214  0.00  0.00    +0.144 HD
ENDBRANCH  11  14
ENDBRANCH   5  11
BRANCH  10  17
ATOM     17  C   UNL     1      -4.244   0.641  -0.187  0.00  0.00    +0.269 C 
ATOM     18  O   UNL     1      -4.775   0.813  -1.270  0.00  0.00    -0.268 OA
BRANCH  17  19
ATOM     19  C   UNL     1      -5.067   0.292   0.995  0.00  0.00    +0.039 A 
ATOM     20  C   UNL     1      -4.457   0.090   2.233  0.00  0.00    +0.014 A 
ATOM     21  C   UNL     1      -5.222  -0.229   3.333  0.00  0.00    +0.019 A 
ATOM     22  C   UNL     1      -6.607  -0.361   3.207  0.00  0.00    +0.052 A 
ATOM     23  C   UNL     1      -7.216  -0.164   1.965  0.00  0.00    +0.019 A 
ATOM     24  C   UNL     1      -6.450   0.161   0.867  0.00  0.00    +0.014 A 
BRANCH  22  25
ATOM     25  C   UNL     1      -7.402  -0.698   4.349  0.00  0.00    +0.099 C 
ATOM     26  N   UNL     1      -8.033  -0.965   5.255  0.00  0.00    -0.191 NA
ENDBRANCH  22  25
ENDBRANCH  17  19
ENDBRANCH  10  17
BRANCH   1  27
ATOM     27  C   UNL     1      -0.013   1.086   0.008  0.00  0.00    +0.244 C 
BRANCH  27  28
ATOM     28  C   UNL     1      -0.717   1.711   1.185  0.00  0.00    +0.327 C 
ATOM     29  O   UNL     1      -1.708   2.380   1.010  0.00  0.00    -0.249 OA
BRANCH  28  31
ATOM     30  C   UNL     1      -0.971   2.156   3.512  0.00  0.00    +0.280 C 
ATOM     31  O   UNL     1      -0.243   1.524   2.427  0.00  0.00    -0.467 OA
ENDBRANCH  28  31
ENDBRANCH  27  28
ENDBRANCH   1  27
TORSDOF 8
