REMARK  Name = ZINC21655368
REMARK  10 active torsions:
REMARK  status: ('A' for Active; 'I' for Inactive)
REMARK    1  A    between atoms: C_1  and  C_2
REMARK    2  A    between atoms: C_2  and  O_3
REMARK    3  A    between atoms: O_3  and  C_4
REMARK    4  A    between atoms: C_9  and  N_10
REMARK    5  A    between atoms: C_11  and  C_13
REMARK    6  A    between atoms: C_13  and  N_14
REMARK    7  A    between atoms: C_16  and  C_26
REMARK    8  A    between atoms: C_22  and  C_25
REMARK    9  A    between atoms: C_28  and  C_31
REMARK   10  A    between atoms: C_34  and  C_37
REMARK                            x       y       z     vdW  Elec       q    Type
REMARK                         _______ _______ _______ _____ _____    ______ ____
ROOT
ATOM      1  N   UNL     1       2.764   3.821   0.096  0.00  0.00    -0.322 N 
ATOM      2  C   UNL     1       3.417   3.977   1.259  0.00  0.00    +0.105 A 
ATOM      3  C   UNL     1       4.752   4.311   1.314  0.00  0.00    +0.103 A 
ATOM      4  C   UNL     1       5.484   4.518   0.054  0.00  0.00    +0.203 A 
ATOM      5  O   UNL     1       6.665   4.820   0.046  0.00  0.00    -0.286 OA
ATOM      6  C   UNL     1       4.727   4.343  -1.198  0.00  0.00    +0.065 A 
ATOM      7  C   UNL     1       3.367   3.994  -1.127  0.00  0.00    +0.145 A 
ATOM      8  N   UNL     1       2.672   3.833  -2.247  0.00  0.00    -0.234 NA
ATOM      9  C   UNL     1       3.222   3.991  -3.432  0.00  0.00    +0.041 A 
ATOM     10  C   UNL     1       4.557   4.335  -3.574  0.00  0.00    +0.024 A 
ATOM     11  C   UNL     1       5.333   4.517  -2.444  0.00  0.00    +0.017 A 
ATOM     12  C   UNL     1       2.378   3.795  -4.665  0.00  0.00    +0.065 C 
ENDROOT
BRANCH   3  13
ATOM     13  C   UNL     1       5.434   4.466   2.611  0.00  0.00    +0.264 A 
ATOM     14  N   UNL     1       6.703   4.783   2.801  0.00  0.00    -0.187 NA
ATOM     15  C   UNL     1       6.870   4.811   4.140  0.00  0.00    +0.202 A 
ATOM     16  N   UNL     1       5.720   4.508   4.685  0.00  0.00    -0.056 NA
ATOM     17  O   UNL     1       4.886   4.307   3.827  0.00  0.00    -0.332 OA
BRANCH  15  18
ATOM     18  C   UNL     1       8.130   5.123   4.862  0.00  0.00    +0.022 A 
ATOM     19  C   UNL     1       9.288   5.425   4.149  0.00  0.00    +0.012 A 
ATOM     20  C   UNL     1      10.455   5.719   4.825  0.00  0.00    +0.004 A 
ATOM     21  C   UNL     1      10.478   5.704   6.208  0.00  0.00    -0.050 A 
ATOM     22  C   UNL     1       9.332   5.401   6.920  0.00  0.00    +0.004 A 
ATOM     23  C   UNL     1       8.159   5.110   6.255  0.00  0.00    +0.012 A 
ATOM     24  C   UNL     1      11.756   6.021   6.940  0.00  0.00    +0.044 C 
ENDBRANCH  15  18
ENDBRANCH   3  13
BRANCH   1  25
ATOM     25  C   UNL     1       1.345   3.458   0.133  0.00  0.00    +0.219 C 
BRANCH  25  27
ATOM     26  N   UNL     1      -0.017   1.397   0.010  0.00  0.00    -0.281 N 
ATOM     27  C   UNL     1       1.206   1.963   0.001  0.00  0.00    +0.237 C 
ATOM     28  O   UNL     1       2.195   1.270  -0.112  0.00  0.00    -0.274 OA
ATOM     29  H   UNL     1      -0.916   2.030   0.039  0.00  0.00    +0.155 HD
BRANCH  26  35
ATOM     30  C   UNL     1      -1.186  -0.619   0.666  0.00  0.00    +0.142 A 
ATOM     31  C   UNL     1      -1.306  -1.999   0.634  0.00  0.00    +0.047 A 
ATOM     32  C   UNL     1      -0.392  -2.756  -0.075  0.00  0.00    +0.004 A 
ATOM     33  C   UNL     1       0.642  -2.141  -0.755  0.00  0.00    +0.002 A 
ATOM     34  C   UNL     1       0.766  -0.765  -0.733  0.00  0.00    +0.027 A 
ATOM     35  C   UNL     1      -0.143   0.002  -0.019  0.00  0.00    +0.076 A 
BRANCH  30  36
ATOM     36  O   UNL     1      -2.083   0.127   1.363  0.00  0.00    -0.490 OA
BRANCH  36  38
ATOM     37  C   UNL     1      -4.030   0.422   2.764  0.00  0.00    +0.048 C 
ATOM     38  C   UNL     1      -3.126  -0.577   2.041  0.00  0.00    +0.226 C 
ENDBRANCH  36  38
ENDBRANCH  30  36
ENDBRANCH  26  35
ENDBRANCH  25  27
ENDBRANCH   1  25
TORSDOF 7
