REMARK  Name = ZINC12363875
REMARK  2 active torsions:
REMARK  status: ('A' for Active; 'I' for Inactive)
REMARK    1  A    between atoms: C_1  and  C_2
REMARK    2  A    between atoms: C_2  and  C_19
REMARK                            x       y       z     vdW  Elec       q    Type
REMARK                         _______ _______ _______ _____ _____    ______ ____
ROOT
ATOM      1  C   UNL     1      -0.018   1.503   0.010  0.00  0.00    +0.039 C 
ATOM      2  C   UNL     1       0.002  -0.004   0.002  0.00  0.00    -0.075 C 
ATOM      3  C   UNL     1       0.022  -0.665   1.133  0.00  0.00    -0.056 C 
ATOM      4  C   UNL     1       0.053  -2.191   1.472  0.00  0.00    +0.050 C 
ATOM      5  C   UNL     1      -1.204  -2.197   2.396  0.00  0.00    -0.022 C 
ATOM      6  C   UNL     1      -1.137  -1.079   3.097  0.00  0.00    -0.022 C 
ATOM      7  C   UNL     1       0.030  -0.209   2.638  0.00  0.00    +0.050 C 
ATOM      8  C   UNL     1       1.387  -0.816   2.984  0.00  0.00    +0.099 C 
ATOM      9  C   UNL     1       1.096  -2.292   2.531  0.00  0.00    +0.099 C 
ATOM     10  C   UNL     1       2.248  -2.992   3.013  0.00  0.00    +0.224 C 
ATOM     11  O   UNL     1       2.827  -3.926   2.500  0.00  0.00    -0.275 OA
ATOM     12  N   UNL     1       2.543  -2.349   4.199  0.00  0.00    -0.256 N 
ATOM     13  C   UNL     1       1.816  -1.172   4.370  0.00  0.00    +0.224 C 
ATOM     14  O   UNL     1       1.594  -0.561   5.393  0.00  0.00    -0.275 OA
ATOM     15  C   UNL     1      -0.000  -0.750  -1.307  0.00  0.00    +0.039 C 
ATOM     16  H   UNL     1       3.179  -2.685   4.850  0.00  0.00    +0.157 HD
ENDROOT
TORSDOF 0
