REMARK  Name = ZINC39699247
REMARK  9 active torsions:
REMARK  status: ('A' for Active; 'I' for Inactive)
REMARK    1  A    between atoms: C_1  and  C_2
REMARK    2  A    between atoms: C_7  and  C_14
REMARK    3  A    between atoms: C_14  and  C_16
REMARK    4  A    between atoms: C_14  and  N_28
REMARK    5  A    between atoms: N_21  and  C_22
REMARK    6  A    between atoms: N_28  and  C_29
REMARK    7  A    between atoms: N_28  and  C_36
REMARK    8  A    between atoms: C_29  and  C_30
REMARK    9  A    between atoms: C_36  and  C_37
REMARK                            x       y       z     vdW  Elec       q    Type
REMARK                         _______ _______ _______ _____ _____    ______ ____
ROOT
ATOM      1  C   UNL     1       0.768  -5.994   2.420  0.00  0.00    -0.008 C 
ENDROOT
BRANCH   1   8
ATOM      2  C   UNL     1      -0.735   1.348   2.226  0.00  0.00    +0.044 C 
ATOM      3  C   UNL     1      -0.758  -0.153   2.092  0.00  0.00    -0.049 A 
ATOM      4  C   UNL     1      -1.178  -0.712   0.885  0.00  0.00    +0.004 A 
ATOM      5  C   UNL     1      -1.220  -2.057   0.705  0.00  0.00    +0.010 A 
ATOM      6  C   UNL     1      -0.813  -2.930   1.807  0.00  0.00    -0.007 A 
ATOM      7  C   UNL     1      -0.839  -4.286   1.671  0.00  0.00    -0.006 C 
ATOM      8  C   UNL     1      -0.400  -5.112   2.864  0.00  0.00    +0.088 C 
ATOM      9  C   UNL     1       0.029  -4.365   4.107  0.00  0.00    +0.223 C 
ATOM     10  O   UNL     1       0.391  -4.978   5.093  0.00  0.00    -0.275 OA
ATOM     11  N   UNL     1       0.011  -3.043   4.117  0.00  0.00    -0.285 N 
ATOM     12  C   UNL     1      -0.374  -2.312   3.070  0.00  0.00    +0.041 A 
ATOM     13  C   UNL     1      -0.363  -0.908   3.151  0.00  0.00    +0.027 A 
ATOM     14  H   UNL     1       0.290  -2.583   4.924  0.00  0.00    +0.155 HD
ENDBRANCH   1   8
BRANCH   1  15
ATOM     15  C   UNL     1       1.979  -5.115   2.101  0.00  0.00    +0.205 C 
ATOM     16  N   UNL     1       2.364  -4.326   3.279  0.00  0.00    -0.152 NA
ATOM     17  N   UNL     1       2.263  -3.128   3.007  0.00  0.00    -0.070 NA
ATOM     18  N   UNL     1       1.826  -2.903   1.702  0.00  0.00    -0.179 N 
ATOM     19  N   UNL     1       1.630  -4.109   1.076  0.00  0.00    -0.185 NA
ATOM     20  H   UNL     1       1.684  -2.032   1.300  0.00  0.00    +0.191 HD
BRANCH  19  21
ATOM     21  C   UNL     1       2.495  -4.239  -0.104  0.00  0.00    +0.080 C 
ATOM     22  C   UNL     1       3.929  -3.860   0.270  0.00  0.00    +0.021 C 
ATOM     23  C   UNL     1       4.830  -3.995  -0.959  0.00  0.00    +0.002 C 
ATOM     24  C   UNL     1       4.328  -3.063  -2.064  0.00  0.00    +0.000 C 
ATOM     25  C   UNL     1       2.894  -3.441  -2.438  0.00  0.00    +0.002 C 
ATOM     26  C   UNL     1       1.993  -3.306  -1.209  0.00  0.00    +0.021 C 
ENDBRANCH  19  21
ENDBRANCH   1  15
BRANCH   1  27
ATOM     27  N   UNL     1       1.113  -6.930   3.499  0.00  0.00    +0.392 N 
ATOM     28  H   UNL     1       1.204  -6.423   4.367  0.00  0.00    -0.080 HD
BRANCH  27  29
ATOM     29  C   UNL     1       2.385  -7.594   3.184  0.00  0.00    -0.040 C 
BRANCH  29  30
ATOM     30  C   UNL     1       3.527  -6.777   3.732  0.00  0.00    -0.046 A 
ATOM     31  C   UNL     1       4.442  -6.186   2.875  0.00  0.00    +0.005 A 
ATOM     32  C   UNL     1       5.477  -5.444   3.424  0.00  0.00    +0.020 A 
ATOM     33  C   UNL     1       5.561  -5.320   4.798  0.00  0.00    +0.111 A 
ATOM     34  N   UNL     1       4.673  -5.897   5.583  0.00  0.00    -0.263 NA
ATOM     35  C   UNL     1       3.672  -6.605   5.095  0.00  0.00    +0.112 A 
ENDBRANCH  29  30
ENDBRANCH  27  29
BRANCH  27  36
ATOM     36  C   UNL     1       0.053  -7.939   3.630  0.00  0.00    -0.002 C 
BRANCH  36  37
ATOM     37  C   UNL     1      -1.129  -7.335   4.343  0.00  0.00    +0.089 A 
ATOM     38  C   UNL     1      -2.319  -7.045   3.786  0.00  0.00    +0.042 A 
ATOM     39  C   UNL     1      -3.128  -6.499   4.809  0.00  0.00    +0.041 A 
ATOM     40  C   UNL     1      -2.384  -6.489   5.930  0.00  0.00    +0.195 A 
ATOM     41  O   UNL     1      -1.176  -7.002   5.643  0.00  0.00    -0.470 OA
ENDBRANCH  36  37
ENDBRANCH  27  36
ENDBRANCH   1  27
TORSDOF 8
