REMARK  Name = ZINC65406534
REMARK  2 active torsions:
REMARK  status: ('A' for Active; 'I' for Inactive)
REMARK    1  A    between atoms: C_5  and  C_12
REMARK    2  A    between atoms: C_23  and  C_25
REMARK                            x       y       z     vdW  Elec       q    Type
REMARK                         _______ _______ _______ _____ _____    ______ ____
ROOT
ATOM      1  C   UNL     1       5.388   0.783  -1.281  0.00  0.00    +0.059 C 
ATOM      2  C   UNL     1       6.709   0.826  -1.276  0.00  0.00    +0.018 C 
ATOM      3  C   UNL     1       7.136   0.846  -2.728  0.00  0.00    +0.117 C 
ATOM      4  C   UNL     1       8.022  -0.403  -3.016  0.00  0.00    +0.132 C 
ATOM      5  N   UNL     1       8.269  -0.380  -4.423  0.00  0.00    -0.299 N 
ATOM      6  C   UNL     1       7.229  -0.364  -5.442  0.00  0.00    +0.109 C 
ATOM      7  C   UNL     1       6.867   1.086  -5.616  0.00  0.00    +0.036 C 
ATOM      8  C   UNL     1       5.665   1.447  -4.694  0.00  0.00    +0.108 C 
ATOM      9  N   UNL     1       5.904   0.659  -3.466  0.00  0.00    -0.221 NA
ATOM     10  N   UNL     1       4.884   0.753  -2.572  0.00  0.00    -0.278 N 
ATOM     11  C   UNL     1       9.552  -0.371  -4.836  0.00  0.00    +0.219 C 
ATOM     12  O   UNL     1      10.451  -0.383  -4.021  0.00  0.00    -0.275 OA
ATOM     13  H   UNL     1       3.943   0.794  -2.804  0.00  0.00    +0.166 HD
ENDROOT
BRANCH   1  18
ATOM     14  C   UNL     1      -0.017   1.405   0.010  0.00  0.00    +0.040 A 
ATOM     15  C   UNL     1       1.108   2.146   0.003  0.00  0.00    +0.030 A 
ATOM     16  C   UNL     1       2.417   1.477  -0.013  0.00  0.00    +0.061 A 
ATOM     17  N   UNL     1       3.639   1.925  -0.023  0.00  0.00    -0.359 N 
ATOM     18  C   UNL     1       4.536   0.763  -0.038  0.00  0.00    +0.221 C 
ATOM     19  N   UNL     1       3.673  -0.425  -0.036  0.00  0.00    -0.359 N 
ATOM     20  C   UNL     1       2.438  -0.011  -0.021  0.00  0.00    +0.063 A 
ATOM     21  C   UNL     1       1.151  -0.715  -0.012  0.00  0.00    +0.065 A 
ATOM     22  C   UNL     1       0.002  -0.004   0.002  0.00  0.00    +0.125 A 
ATOM     23  F   UNL     1      -1.174  -0.669   0.010  0.00  0.00    -0.205 F 
ATOM     24  H   UNL     1       3.908   2.857  -0.020  0.00  0.00    +0.162 HD
ATOM     25  H   UNL     1       3.969  -1.349  -0.043  0.00  0.00    +0.162 HD
ENDBRANCH   1  18
BRANCH  11  26
ATOM     26  C   UNL     1       9.870  -0.347  -6.309  0.00  0.00    +0.082 C 
ATOM     27  C   UNL     1      10.504  -1.601  -6.916  0.00  0.00    +0.021 C 
ATOM     28  C   UNL     1      11.340  -0.342  -6.712  0.00  0.00    -0.017 C 
ATOM     29  C   UNL     1      12.574  -0.147  -5.824  0.00  0.00    +0.008 C 
ATOM     30  C   UNL     1      13.367   0.087  -7.122  0.00  0.00    +0.001 C 
ATOM     31  C   UNL     1      12.039   0.523  -7.766  0.00  0.00    +0.008 C 
ENDBRANCH  11  26
TORSDOF 2
