REMARK  Name = ZINC38596971
REMARK  11 active torsions:
REMARK  status: ('A' for Active; 'I' for Inactive)
REMARK    1  A    between atoms: C_1  and  C_2
REMARK    2  A    between atoms: C_7  and  C_31
REMARK    3  A    between atoms: C_9  and  N_12
REMARK    4  A    between atoms: C_13  and  C_15
REMARK    5  A    between atoms: C_15  and  C_16
REMARK    6  A    between atoms: C_16  and  N_17
REMARK    7  A    between atoms: N_20  and  C_23
REMARK    8  A    between atoms: C_28  and  O_29
REMARK    9  A    between atoms: O_29  and  C_30
REMARK   10  A    between atoms: C_31  and  O_33
REMARK   11  A    between atoms: O_33  and  C_34
REMARK                            x       y       z     vdW  Elec       q    Type
REMARK                         _______ _______ _______ _____ _____    ______ ____
ROOT
ATOM      1  N   UNL     1      -0.202  -3.882   3.144  0.00  0.00    -0.286 N 
ATOM      2  C   UNL     1      -0.211  -2.945   4.112  0.00  0.00    +0.215 C 
ATOM      3  O   UNL     1      -0.247  -1.769   3.818  0.00  0.00    -0.276 OA
ATOM      4  H   UNL     1      -0.252  -4.822   3.378  0.00  0.00    +0.155 HD
ENDROOT
BRANCH   1  12
ATOM      5  C   UNL     1       0.447  -7.793  -0.734  0.00  0.00    +0.044 C 
ATOM      6  C   UNL     1       0.314  -6.297  -0.615  0.00  0.00    -0.050 A 
ATOM      7  C   UNL     1       0.347  -5.515  -1.772  0.00  0.00    +0.005 A 
ATOM      8  C   UNL     1       0.232  -4.166  -1.728  0.00  0.00    +0.026 A 
ATOM      9  C   UNL     1       0.072  -3.511  -0.479  0.00  0.00    +0.045 A 
ATOM     10  N   UNL     1      -0.059  -2.236  -0.173  0.00  0.00    -0.367 N 
ATOM     11  C   UNL     1      -0.192  -2.104   1.281  0.00  0.00    +0.234 C 
ATOM     12  C   UNL     1      -0.123  -3.509   1.836  0.00  0.00    +0.053 C 
ATOM     13  C   UNL     1       0.038  -4.338   0.739  0.00  0.00    +0.018 A 
ATOM     14  C   UNL     1       0.159  -5.743   0.613  0.00  0.00    +0.015 A 
ATOM     15  H   UNL     1      -0.065  -1.503  -0.808  0.00  0.00    +0.161 HD
BRANCH  11  16
ATOM     16  C   UNL     1      -1.517  -1.473   1.625  0.00  0.00    +0.335 C 
ATOM     17  O   UNL     1      -2.513  -1.791   1.021  0.00  0.00    -0.248 OA
BRANCH  16  18
ATOM     18  O   UNL     1      -1.589  -0.557   2.604  0.00  0.00    -0.466 OA
ATOM     19  C   UNL     1      -2.877  -0.000   2.877  0.00  0.00    +0.280 C 
ENDBRANCH  16  18
ENDBRANCH  11  16
ENDBRANCH   1  12
BRANCH   2  20
ATOM     20  C   UNL     1      -0.175  -3.358   5.561  0.00  0.00    +0.077 C 
BRANCH  20  21
ATOM     21  C   UNL     1      -0.193  -2.111   6.447  0.00  0.00    -0.069 C 
BRANCH  21  22
ATOM     22  N   UNL     1      -0.159  -2.513   7.860  0.00  0.00    +0.382 N 
ATOM     23  C   UNL     1       1.115  -3.186   8.144  0.00  0.00    -0.060 C 
ATOM     24  C   UNL     1       1.106  -3.707   9.585  0.00  0.00    +0.086 C 
ATOM     25  N   UNL     1       0.798  -2.585  10.485  0.00  0.00    -0.331 N 
ATOM     26  C   UNL     1      -0.376  -1.753  10.178  0.00  0.00    +0.086 C 
ATOM     27  C   UNL     1      -0.297  -1.324   8.710  0.00  0.00    -0.060 C 
ATOM     28  H   UNL     1      -0.920  -3.148   8.046  0.00  0.00    -0.082 HD
BRANCH  25  29
ATOM     29  C   UNL     1       1.598  -2.317  11.601  0.00  0.00    +0.072 A 
ATOM     30  C   UNL     1       2.680  -1.456  11.491  0.00  0.00    +0.027 A 
ATOM     31  C   UNL     1       3.469  -1.193  12.595  0.00  0.00    +0.002 A 
ATOM     32  C   UNL     1       3.182  -1.786  13.811  0.00  0.00    +0.004 A 
ATOM     33  C   UNL     1       2.105  -2.646  13.928  0.00  0.00    +0.047 A 
ATOM     34  C   UNL     1       1.307  -2.911  12.828  0.00  0.00    +0.141 A 
BRANCH  34  35
ATOM     35  O   UNL     1       0.244  -3.752  12.943  0.00  0.00    -0.493 OA
ATOM     36  C   UNL     1       0.006  -4.323  14.231  0.00  0.00    +0.277 C 
ENDBRANCH  34  35
ENDBRANCH  25  29
ENDBRANCH  21  22
ENDBRANCH  20  21
ENDBRANCH   2  20
TORSDOF 8
