REMARK  Name = ZINC13338159
REMARK  8 active torsions:
REMARK  status: ('A' for Active; 'I' for Inactive)
REMARK    1  A    between atoms: C_4  and  C_7
REMARK    2  A    between atoms: C_10  and  S_18
REMARK    3  A    between atoms: N_11  and  C_12
REMARK    4  A    between atoms: S_18  and  C_19
REMARK    5  A    between atoms: C_19  and  C_20
REMARK    6  A    between atoms: N_22  and  N_23
REMARK    7  A    between atoms: C_24  and  C_25
REMARK    8  A    between atoms: C_30  and  C_31
REMARK                            x       y       z     vdW  Elec       q    Type
REMARK                         _______ _______ _______ _____ _____    ______ ____
ROOT
ATOM      1  C   UNL     1       7.415  12.197  -0.430  0.00  0.00    +0.169 A 
ATOM      2  N   UNL     1       7.874  10.971  -0.329  0.00  0.00    -0.128 NA
ATOM      3  N   UNL     1       6.898  10.136  -0.302  0.00  0.00    -0.122 NA
ATOM      4  C   UNL     1       5.752  10.776  -0.384  0.00  0.00    +0.197 A 
ATOM      5  N   UNL     1       6.040  12.111  -0.474  0.00  0.00    -0.270 N 
ENDROOT
BRANCH   1   9
ATOM      6  C   UNL     1       9.729  15.754  -0.605  0.00  0.00    +0.000 A 
ATOM      7  C   UNL     1      10.335  14.527  -0.810  0.00  0.00    +0.001 A 
ATOM      8  C   UNL     1       9.589  13.368  -0.755  0.00  0.00    +0.011 A 
ATOM      9  C   UNL     1       8.220  13.435  -0.490  0.00  0.00    +0.020 A 
ATOM     10  C   UNL     1       7.614  14.676  -0.290  0.00  0.00    +0.011 A 
ATOM     11  C   UNL     1       8.372  15.827  -0.342  0.00  0.00    +0.001 A 
ENDBRANCH   1   9
BRANCH   5  12
ATOM     12  C   UNL     1       5.128  13.169  -0.585  0.00  0.00    +0.051 A 
ATOM     13  C   UNL     1       5.101  13.947  -1.735  0.00  0.00    +0.026 A 
ATOM     14  C   UNL     1       4.198  14.986  -1.844  0.00  0.00    +0.002 A 
ATOM     15  C   UNL     1       3.328  15.259  -0.804  0.00  0.00    +0.000 A 
ATOM     16  C   UNL     1       3.355  14.489   0.344  0.00  0.00    +0.002 A 
ATOM     17  C   UNL     1       4.252  13.445   0.456  0.00  0.00    +0.026 A 
ENDBRANCH   5  12
BRANCH   4  18
ATOM     18  S   UNL     1       4.147  10.051  -0.384  0.00  0.00    -0.076 S 
BRANCH  18  19
ATOM     19  C   UNL     1       4.592   8.302  -0.247  0.00  0.00    +0.174 C 
BRANCH  19  20
ATOM     20  C   UNL     1       3.339   7.464  -0.228  0.00  0.00    +0.242 C 
ATOM     21  O   UNL     1       2.252   7.997  -0.301  0.00  0.00    -0.273 OA
ATOM     22  N   UNL     1       3.427   6.123  -0.131  0.00  0.00    -0.206 N 
ATOM     23  H   UNL     1       4.296   5.697  -0.073  0.00  0.00    +0.177 HD
BRANCH  22  24
ATOM     24  N   UNL     1       2.262   5.344  -0.114  0.00  0.00    -0.188 NA
ATOM     25  C   UNL     1       2.347   4.052  -0.020  0.00  0.00    +0.139 C 
BRANCH  25  26
ATOM     26  C   UNL     1       1.123   3.234  -0.002  0.00  0.00    +0.009 A 
ATOM     27  C   UNL     1       1.208   1.841  -0.020  0.00  0.00    +0.010 A 
ATOM     28  C   UNL     1       0.059   1.079  -0.003  0.00  0.00    +0.001 A 
ATOM     29  C   UNL     1      -1.187   1.687   0.027  0.00  0.00    +0.001 A 
ATOM     30  C   UNL     1      -1.294   3.062   0.051  0.00  0.00    +0.016 A 
ATOM     31  C   UNL     1      -0.144   3.852   0.034  0.00  0.00    +0.072 A 
BRANCH  31  32
ATOM     32  C   UNL     1      -0.253   5.322   0.053  0.00  0.00    +0.387 C 
ATOM     33  O   UNL     1       0.321   5.962   0.912  0.00  0.00    -0.241 OA
ATOM     34  O   UNL     1      -0.988   5.955  -0.882  0.00  0.00    -0.241 OA
ENDBRANCH  31  32
ENDBRANCH  25  26
ENDBRANCH  22  24
ENDBRANCH  19  20
ENDBRANCH  18  19
ENDBRANCH   4  18
TORSDOF 8
