REMARK  Name = ZINC60269694
REMARK  7 active torsions:
REMARK  status: ('A' for Active; 'I' for Inactive)
REMARK    1  A    between atoms: C_1  and  C_2
REMARK    2  A    between atoms: C_5  and  C_7
REMARK    3  A    between atoms: N_9  and  C_10
REMARK    4  A    between atoms: N_13  and  C_16
REMARK    5  A    between atoms: C_16  and  C_18
REMARK    6  A    between atoms: C_16  and  C_19
REMARK    7  A    between atoms: N_21  and  C_22
REMARK                            x       y       z     vdW  Elec       q    Type
REMARK                         _______ _______ _______ _____ _____    ______ ____
ROOT
ATOM      1  C   UNL     1       1.881  -7.261   0.600  0.00  0.00    +0.070 C 
ATOM      2  C   UNL     1       1.933  -7.790  -0.836  0.00  0.00    +0.004 C 
ATOM      3  C   UNL     1       3.196  -8.635  -1.017  0.00  0.00    -0.076 C 
ATOM      4  N   UNL     1       4.382  -7.811  -0.755  0.00  0.00    +0.387 N 
ATOM      5  C   UNL     1       4.375  -7.359   0.642  0.00  0.00    -0.076 C 
ATOM      6  C   UNL     1       3.158  -6.465   0.886  0.00  0.00    +0.004 C 
ATOM      7  H   UNL     1       4.375  -7.009  -1.367  0.00  0.00    -0.081 HD
ENDROOT
BRANCH   1  10
ATOM      8  C   UNL     1      -0.488  -6.920   1.057  0.00  0.00    +0.251 C 
ATOM      9  O   UNL     1      -0.604  -8.124   1.194  0.00  0.00    -0.270 OA
ATOM     10  N   UNL     1       0.715  -6.389   0.758  0.00  0.00    -0.308 N 
ATOM     11  H   UNL     1       0.807  -5.430   0.649  0.00  0.00    +0.149 HD
BRANCH   8  16
ATOM     12  C   UNL     1      -4.186  -2.794   1.431  0.00  0.00    +0.051 C 
ATOM     13  C   UNL     1      -3.398  -4.078   1.390  0.00  0.00    -0.013 A 
ATOM     14  C   UNL     1      -3.849  -5.339   1.602  0.00  0.00    +0.011 A 
ATOM     15  C   UNL     1      -2.965  -6.388   1.518  0.00  0.00    +0.021 A 
ATOM     16  C   UNL     1      -1.655  -6.048   1.216  0.00  0.00    +0.074 A 
ATOM     17  S   UNL     1      -1.762  -4.275   1.064  0.00  0.00    -0.089 S 
ENDBRANCH   8  16
ENDBRANCH   1  10
BRANCH   4  18
ATOM     18  C   UNL     1       5.593  -8.604  -1.005  0.00  0.00    +0.016 C 
ATOM     19  C   UNL     1       6.830  -7.733  -0.778  0.00  0.00    -0.004 C 
BRANCH  18  20
ATOM     20  C   UNL     1       5.583  -9.101  -2.428  0.00  0.00    +0.203 C 
ATOM     21  O   UNL     1       5.015  -8.463  -3.289  0.00  0.00    -0.277 OA
ATOM     22  N   UNL     1       6.205 -10.254  -2.744  0.00  0.00    -0.287 N 
ATOM     23  H   UNL     1       6.598 -10.800  -2.045  0.00  0.00    +0.155 HD
BRANCH  22  24
ATOM     24  C   UNL     1       6.285 -10.663  -4.081  0.00  0.00    +0.037 A 
ATOM     25  C   UNL     1       6.401  -9.718  -5.091  0.00  0.00    +0.027 A 
ATOM     26  C   UNL     1       6.478 -10.121  -6.410  0.00  0.00    +0.051 A 
ATOM     27  C   UNL     1       6.441 -11.470  -6.730  0.00  0.00    +0.162 A 
ATOM     28  C   UNL     1       6.328 -12.419  -5.721  0.00  0.00    +0.164 A 
ATOM     29  C   UNL     1       6.253 -12.014  -4.397  0.00  0.00    +0.072 A 
ATOM     30  O   UNL     1       6.298 -13.748  -6.014  0.00  0.00    -0.485 OA
ATOM     31  C   UNL     1       6.005 -14.101  -7.370  0.00  0.00    +0.270 C 
ATOM     32  C   UNL     1       6.854 -13.216  -8.292  0.00  0.00    +0.270 C 
ATOM     33  O   UNL     1       6.515 -11.849  -8.036  0.00  0.00    -0.485 OA
ENDBRANCH  22  24
ENDBRANCH  18  20
ENDBRANCH   4  18
TORSDOF 5
