REMARK  Name = ZINC03291978
REMARK  8 active torsions:
REMARK  status: ('A' for Active; 'I' for Inactive)
REMARK    1  A    between atoms: C_1  and  C_2
REMARK    2  A    between atoms: C_5  and  N_9
REMARK    3  A    between atoms: C_6  and  C_8
REMARK    4  A    between atoms: C_10  and  S_14
REMARK    5  A    between atoms: S_14  and  C_15
REMARK    6  A    between atoms: C_15  and  C_16
REMARK    7  A    between atoms: C_19  and  C_31
REMARK    8  A    between atoms: C_22  and  C_24
REMARK                            x       y       z     vdW  Elec       q    Type
REMARK                         _______ _______ _______ _____ _____    ______ ____
ROOT
ATOM      1  C   UNL     1       0.771  -6.124  -4.812  0.00  0.00    +0.243 C 
ATOM      2  O   UNL     1       0.598  -5.028  -5.301  0.00  0.00    -0.273 OA
ATOM      3  N   UNL     1       0.941  -7.198  -5.609  0.00  0.00    -0.207 N 
ATOM      4  C   UNL     1       0.951  -7.216  -7.081  0.00  0.00    +0.187 C 
ATOM      5  C   UNL     1       1.178  -8.666  -7.446  0.00  0.00    +0.030 C 
ATOM      6  C   UNL     1       1.280  -9.351  -6.310  0.00  0.00    +0.050 C 
ATOM      7  N   UNL     1       1.151  -8.523  -5.204  0.00  0.00    -0.261 N 
ATOM      8  H   UNL     1       1.198  -8.820  -4.281  0.00  0.00    +0.170 HD
ENDROOT
BRANCH   6   9
ATOM      9  C   UNL     1       1.507 -10.813  -6.236  0.00  0.00    -0.003 A 
ATOM     10  C   UNL     1       1.634 -11.561  -7.406  0.00  0.00    +0.011 A 
ATOM     11  C   UNL     1       1.846 -12.923  -7.331  0.00  0.00    +0.020 A 
ATOM     12  C   UNL     1       1.932 -13.546  -6.098  0.00  0.00    +0.041 A 
ATOM     13  C   UNL     1       1.806 -12.807  -4.933  0.00  0.00    +0.020 A 
ATOM     14  C   UNL     1       1.599 -11.445  -4.997  0.00  0.00    +0.011 A 
ATOM     15 CL   UNL     1       2.198 -15.259  -6.011  0.00  0.00    -0.084 Cl
ENDBRANCH   6   9
BRANCH   4  16
ATOM     16  C   UNL     1       2.071  -6.357  -7.609  0.00  0.00    +0.131 A 
ATOM     17  C   UNL     1       1.999  -5.538  -8.674  0.00  0.00    +0.047 A 
ATOM     18  C   UNL     1       3.269  -4.932  -8.810  0.00  0.00    +0.041 A 
ATOM     19  C   UNL     1       4.040  -5.417  -7.821  0.00  0.00    +0.195 A 
ATOM     20  O   UNL     1       3.308  -6.275  -7.093  0.00  0.00    -0.466 OA
ENDBRANCH   4  16
BRANCH   1  21
ATOM     21  C   UNL     1       0.796  -6.286  -3.314  0.00  0.00    +0.175 C 
BRANCH  21  22
ATOM     22  S   UNL     1       0.540  -4.671  -2.527  0.00  0.00    -0.075 S 
BRANCH  22  24
ATOM     23  N   UNL     1       0.453  -4.131   0.209  0.00  0.00    -0.187 N 
ATOM     24  C   UNL     1       0.595  -5.024  -0.802  0.00  0.00    +0.214 A 
ATOM     25  N   UNL     1       0.781  -6.204  -0.251  0.00  0.00    -0.101 NA
ATOM     26  N   UNL     1       0.765  -6.110   1.030  0.00  0.00    -0.022 NA
ATOM     27  N   UNL     1       0.577  -4.886   1.388  0.00  0.00    -0.038 NA
BRANCH  23  32
ATOM     28  C   UNL     1      -0.428   1.459  -0.230  0.00  0.00    +0.044 C 
ATOM     29  C   UNL     1      -0.194  -0.025  -0.113  0.00  0.00    -0.050 A 
ATOM     30  C   UNL     1       0.799  -0.628  -0.863  0.00  0.00    +0.005 A 
ATOM     31  C   UNL     1       1.016  -1.988  -0.759  0.00  0.00    +0.028 A 
ATOM     32  C   UNL     1       0.236  -2.750   0.101  0.00  0.00    +0.073 A 
ATOM     33  C   UNL     1      -0.759  -2.141   0.853  0.00  0.00    -0.025 A 
ATOM     34  C   UNL     1      -0.968  -0.780   0.748  0.00  0.00    +0.008 A 
ATOM     35  C   UNL     1      -1.608  -2.965   1.788  0.00  0.00    +0.046 C 
ENDBRANCH  23  32
ENDBRANCH  22  24
ENDBRANCH  21  22
ENDBRANCH   1  21
TORSDOF 6
