REMARK  Name = ZINC67332218
REMARK  7 active torsions:
REMARK  status: ('A' for Active; 'I' for Inactive)
REMARK    1  A    between atoms: C_3  and  S_23
REMARK    2  A    between atoms: C_5  and  C_6
REMARK    3  A    between atoms: N_8  and  C_9
REMARK    4  A    between atoms: C_9  and  C_10
REMARK    5  A    between atoms: N_15  and  C_16
REMARK    6  A    between atoms: C_16  and  C_17
REMARK    7  A    between atoms: S_23  and  N_26
REMARK                            x       y       z     vdW  Elec       q    Type
REMARK                         _______ _______ _______ _____ _____    ______ ____
ROOT
ATOM      1  C   UNL     1      -0.754  -0.726  -0.140  0.00  0.00    +0.279 C 
ATOM      2  O   UNL     1      -1.823  -0.145  -0.125  0.00  0.00    -0.267 OA
ATOM      3  N   UNL     1      -0.718  -2.072  -0.097  0.00  0.00    -0.310 N 
ATOM      4  H   UNL     1       0.135  -2.535  -0.109  0.00  0.00    +0.149 HD
ENDROOT
BRANCH   1   9
ATOM      5  C   UNL     1       0.601   1.400  -0.254  0.00  0.00    +0.057 A 
ATOM      6  C   UNL     1       1.972   1.697  -0.307  0.00  0.00    +0.072 A 
ATOM      7  C   UNL     1       2.635   0.519  -0.289  0.00  0.00    +0.258 A 
ATOM      8  O   UNL     1       1.742  -0.477  -0.228  0.00  0.00    -0.432 OA
ATOM      9  C   UNL     1       0.495   0.040  -0.206  0.00  0.00    +0.192 A 
BRANCH   7  10
ATOM     10  S   UNL     1       4.385   0.326  -0.339  0.00  0.00    +0.089 S 
ATOM     11  O   UNL     1       4.636  -0.974  -0.855  0.00  0.00    -0.150 OA
ATOM     12  O   UNL     1       4.906   1.500  -0.947  0.00  0.00    -0.150 OA
BRANCH  10  13
ATOM     13  N   UNL     1       4.923   0.325   1.227  0.00  0.00    -0.201 NA
ATOM     14  H   UNL     1       4.291   0.421   1.957  0.00  0.00    +0.144 HD
ATOM     15  H   UNL     1       5.869   0.229   1.415  0.00  0.00    +0.144 HD
ENDBRANCH  10  13
ENDBRANCH   7  10
ENDBRANCH   1   9
BRANCH   3  16
ATOM     16  C   UNL     1      -1.965  -2.837  -0.031  0.00  0.00    +0.089 C 
BRANCH  16  17
ATOM     17  C   UNL     1      -1.645  -4.333   0.008  0.00  0.00    -0.051 C 
ATOM     18  C   UNL     1      -2.950  -5.151  -0.093  0.00  0.00    -0.016 C 
ATOM     19  C   UNL     1      -3.022  -5.508  -1.601  0.00  0.00    -0.020 C 
ATOM     20  C   UNL     1      -1.527  -5.718  -1.946  0.00  0.00    -0.078 C 
ATOM     21  N   UNL     1      -0.807  -4.697  -1.149  0.00  0.00    +0.383 N 
ATOM     22  H   UNL     1      -0.637  -3.880  -1.716  0.00  0.00    -0.081 HD
BRANCH  21  23
ATOM     23  C   UNL     1       0.473  -5.244  -0.678  0.00  0.00    -0.075 C 
BRANCH  23  24
ATOM     24  C   UNL     1       1.393  -5.490  -1.876  0.00  0.00    -0.028 C 
ATOM     25  C   UNL     1       2.670  -6.189  -1.403  0.00  0.00    +0.002 C 
ATOM     26  C   UNL     1       3.590  -6.435  -2.600  0.00  0.00    +0.000 C 
ATOM     27  C   UNL     1       3.951  -5.097  -3.249  0.00  0.00    +0.000 C 
ATOM     28  C   UNL     1       2.675  -4.398  -3.722  0.00  0.00    +0.000 C 
ATOM     29  C   UNL     1       1.754  -4.152  -2.525  0.00  0.00    +0.002 C 
ENDBRANCH  23  24
ENDBRANCH  21  23
ENDBRANCH  16  17
ENDBRANCH   3  16
TORSDOF 7
