REMARK  Name = ZINC19897229
REMARK  6 active torsions:
REMARK  status: ('A' for Active; 'I' for Inactive)
REMARK    1  A    between atoms: C_1  and  C_2
REMARK    2  A    between atoms: C_6  and  C_8
REMARK    3  A    between atoms: C_14  and  C_15
REMARK    4  A    between atoms: C_17  and  C_29
REMARK    5  A    between atoms: N_18  and  C_21
REMARK    6  A    between atoms: C_19  and  C_20
REMARK                            x       y       z     vdW  Elec       q    Type
REMARK                         _______ _______ _______ _____ _____    ______ ____
ROOT
ATOM      1  C   UNL     1       1.301  -3.268   2.449  0.00  0.00    +0.130 C 
ATOM      2  N   UNL     1       1.192  -4.539   2.750  0.00  0.00    -0.164 NA
ATOM      3  N   UNL     1       0.791  -4.941   4.006  0.00  0.00    -0.153 N 
ATOM      4  C   UNL     1       0.729  -6.274   4.465  0.00  0.00    +0.132 C 
ATOM      5  N   UNL     1       1.421  -7.248   3.935  0.00  0.00    -0.385 N 
ATOM      6  C   UNL     1      -0.202  -6.461   5.612  0.00  0.00    +0.079 C 
ATOM      7  C   UNL     1      -0.916  -7.629   5.786  0.00  0.00    +0.026 C 
ATOM      8  C   UNL     1      -0.320  -5.326   6.558  0.00  0.00    +0.273 C 
ATOM      9  O   UNL     1      -0.661  -5.507   7.716  0.00  0.00    -0.268 OA
ATOM     10  N   UNL     1      -0.039  -4.089   6.104  0.00  0.00    -0.152 NA
ATOM     11  C   UNL     1       0.447  -3.945   4.896  0.00  0.00    +0.181 C 
ATOM     12  S   UNL     1       0.818  -2.475   3.977  0.00  0.00    -0.033 S 
ATOM     13  H   UNL     1       1.948  -7.090   3.136  0.00  0.00    +0.157 HD
ATOM     14  H   UNL     1       1.408  -8.129   4.341  0.00  0.00    +0.157 HD
ENDROOT
BRANCH   1  20
ATOM     15  C   UNL     1       2.233   0.814  -0.267  0.00  0.00    +0.044 C 
ATOM     16  C   UNL     1       2.172  -0.686  -0.137  0.00  0.00    -0.050 A 
ATOM     17  C   UNL     1       2.510  -1.487  -1.214  0.00  0.00    +0.003 A 
ATOM     18  C   UNL     1       2.455  -2.865  -1.103  0.00  0.00    +0.001 A 
ATOM     19  C   UNL     1       2.064  -3.449   0.084  0.00  0.00    +0.010 A 
ATOM     20  C   UNL     1       1.722  -2.648   1.174  0.00  0.00    +0.009 A 
ATOM     21  C   UNL     1       1.784  -1.259   1.057  0.00  0.00    +0.014 A 
ENDBRANCH   1  20
BRANCH   7  22
ATOM     22  C   UNL     1      -0.909  -8.622   4.772  0.00  0.00    -0.003 A 
ATOM     23  C   UNL     1      -0.818  -8.405   3.321  0.00  0.00    +0.031 A 
ATOM     24  C   UNL     1      -0.847  -9.622   2.753  0.00  0.00    +0.022 A 
ATOM     25  N   UNL     1      -0.948 -10.573   3.731  0.00  0.00    -0.317 N 
ATOM     26  C   UNL     1      -0.980  -9.994   4.947  0.00  0.00    +0.028 A 
ATOM     27  C   UNL     1      -1.081 -10.714   6.268  0.00  0.00    +0.064 C 
ATOM     28  C   UNL     1      -0.779  -9.896   1.273  0.00  0.00    +0.064 C 
BRANCH  25  29
ATOM     29  C   UNL     1      -1.004 -11.955   3.500  0.00  0.00    +0.048 A 
ATOM     30  C   UNL     1      -2.153 -12.667   3.821  0.00  0.00    +0.029 A 
ATOM     31  C   UNL     1      -2.207 -14.028   3.593  0.00  0.00    +0.042 A 
ATOM     32  C   UNL     1      -1.118 -14.683   3.045  0.00  0.00    +0.142 A 
ATOM     33  C   UNL     1       0.030 -13.975   2.724  0.00  0.00    +0.078 A 
ATOM     34  C   UNL     1       0.086 -12.612   2.946  0.00  0.00    +0.049 A 
ATOM     35 CL   UNL     1       1.395 -14.800   2.038  0.00  0.00    -0.081 Cl
ATOM     36  F   UNL     1      -1.173 -16.015   2.823  0.00  0.00    -0.204 F 
ENDBRANCH  25  29
ENDBRANCH   7  22
TORSDOF 3
