REMARK  Name = ZINC63694683
REMARK  8 active torsions:
REMARK  status: ('A' for Active; 'I' for Inactive)
REMARK    1  A    between atoms: C_1  and  C_2
REMARK    2  A    between atoms: C_2  and  O_3
REMARK    3  A    between atoms: O_3  and  C_4
REMARK    4  A    between atoms: C_9  and  C_10
REMARK    5  A    between atoms: C_10  and  N_11
REMARK    6  A    between atoms: C_12  and  C_14
REMARK    7  A    between atoms: N_17  and  C_20
REMARK    8  A    between atoms: C_26  and  C_30
REMARK                            x       y       z     vdW  Elec       q    Type
REMARK                         _______ _______ _______ _____ _____    ______ ____
ROOT
ATOM      1  C   UNL     1       0.215   0.353   6.284  0.00  0.00    +0.077 C 
ATOM      2  C   UNL     1      -0.842   1.116   5.482  0.00  0.00    +0.028 C 
ATOM      3  C   UNL     1      -1.910   1.654   6.437  0.00  0.00    +0.089 C 
ATOM      4  N   UNL     1      -1.282   2.542   7.425  0.00  0.00    -0.266 NA
ATOM      5  C   UNL     1      -0.297   1.819   8.238  0.00  0.00    +0.089 C 
ATOM      6  C   UNL     1       0.819   1.286   7.337  0.00  0.00    +0.028 C 
ENDROOT
BRANCH   4   7
ATOM      7  C   UNL     1      -2.295   3.186   8.272  0.00  0.00    +0.252 C 
ATOM      8  N   UNL     1      -1.651   4.119   9.206  0.00  0.00    -0.351 N 
ATOM      9  C   UNL     1      -1.921   3.711  10.413  0.00  0.00    +0.061 A 
ATOM     10  C   UNL     1      -1.562   4.222  11.743  0.00  0.00    +0.028 A 
ATOM     11  C   UNL     1      -1.996   3.574  12.843  0.00  0.00    +0.005 A 
ATOM     12  C   UNL     1      -2.788   2.415  12.777  0.00  0.00    -0.048 A 
ATOM     13  C   UNL     1      -3.174   1.863  11.609  0.00  0.00    +0.030 A 
ATOM     14  C   UNL     1      -2.760   2.483  10.343  0.00  0.00    +0.061 A 
ATOM     15  N   UNL     1      -2.977   2.179   9.095  0.00  0.00    -0.351 N 
ATOM     16  C   UNL     1      -3.225   1.762  14.064  0.00  0.00    +0.044 C 
ATOM     17  H   UNL     1      -1.122   4.896   8.968  0.00  0.00    +0.163 HD
ATOM     18  H   UNL     1      -3.495   1.427   8.769  0.00  0.00    +0.163 HD
ENDBRANCH   4   7
BRANCH   1  20
ATOM     19  N   UNL     1       1.000  -0.967   4.344  0.00  0.00    -0.311 N 
ATOM     20  C   UNL     1       1.301  -0.128   5.356  0.00  0.00    +0.216 C 
ATOM     21  O   UNL     1       2.445   0.239   5.519  0.00  0.00    -0.276 OA
ATOM     22  H   UNL     1       0.085  -1.260   4.213  0.00  0.00    +0.149 HD
BRANCH  19  23
ATOM     23  C   UNL     1       2.055  -1.434   3.442  0.00  0.00    +0.143 C 
BRANCH  23  29
ATOM     24  C   UNL     1       0.802  -1.824   1.306  0.00  0.00    +0.125 A 
ATOM     25  C   UNL     1       0.260  -2.673   0.351  0.00  0.00    +0.046 A 
ATOM     26  C   UNL     1       0.372  -4.041   0.501  0.00  0.00    +0.004 A 
ATOM     27  C   UNL     1       1.024  -4.566   1.602  0.00  0.00    +0.001 A 
ATOM     28  C   UNL     1       1.565  -3.723   2.555  0.00  0.00    +0.009 A 
ATOM     29  C   UNL     1       1.460  -2.353   2.406  0.00  0.00    +0.011 A 
BRANCH  24  30
ATOM     30  O   UNL     1       0.693  -0.477   1.160  0.00  0.00    -0.492 OA
BRANCH  30  32
ATOM     31  C   UNL     1      -0.019   1.526   0.010  0.00  0.00    +0.048 C 
ATOM     32  C   UNL     1       0.002  -0.004   0.002  0.00  0.00    +0.225 C 
ENDBRANCH  30  32
ENDBRANCH  24  30
ENDBRANCH  23  29
ENDBRANCH  19  23
ENDBRANCH   1  20
TORSDOF 6
