REMARK  Name = ZINC09196593
REMARK  10 active torsions:
REMARK  status: ('A' for Active; 'I' for Inactive)
REMARK    1  A    between atoms: C_1  and  C_2
REMARK    2  A    between atoms: C_4  and  C_19
REMARK    3  A    between atoms: C_5  and  C_18
REMARK    4  A    between atoms: N_6  and  C_7
REMARK    5  A    between atoms: C_10  and  N_15
REMARK    6  A    between atoms: C_12  and  O_13
REMARK    7  A    between atoms: O_13  and  C_14
REMARK    8  A    between atoms: N_20  and  N_21
REMARK    9  A    between atoms: N_21  and  C_22
REMARK   10  A    between atoms: C_22  and  C_23
REMARK                            x       y       z     vdW  Elec       q    Type
REMARK                         _______ _______ _______ _____ _____    ______ ____
ROOT
ATOM      1  C   UNL     1       0.143   2.386   4.871  0.00  0.00    +0.064 C 
ATOM      2  C   UNL     1      -1.288   2.071   4.521  0.00  0.00    +0.022 A 
ATOM      3  C   UNL     1      -2.111   1.276   5.231  0.00  0.00    +0.032 A 
ATOM      4  C   UNL     1      -3.391   1.255   4.519  0.00  0.00    +0.016 A 
ATOM      5  C   UNL     1      -3.234   2.056   3.425  0.00  0.00    +0.030 A 
ATOM      6  N   UNL     1      -1.964   2.548   3.435  0.00  0.00    -0.314 N 
ATOM      7  C   UNL     1      -4.285   2.347   2.385  0.00  0.00    +0.064 C 
ENDROOT
BRANCH   6   8
ATOM      8  C   UNL     1      -1.427   3.412   2.469  0.00  0.00    +0.089 A 
ATOM      9  C   UNL     1      -1.532   4.785   2.630  0.00  0.00    +0.032 A 
ATOM     10  C   UNL     1      -1.002   5.635   1.677  0.00  0.00    +0.035 A 
ATOM     11  C   UNL     1      -0.367   5.118   0.562  0.00  0.00    +0.130 A 
ATOM     12  C   UNL     1      -0.254   3.751   0.398  0.00  0.00    +0.080 A 
ATOM     13  C   UNL     1      -0.787   2.892   1.346  0.00  0.00    +0.146 A 
BRANCH  11  14
ATOM     14  N   UNL     1       0.198   6.033  -0.455  0.00  0.00    +0.057 N 
ATOM     15  O   UNL     1       0.104   7.239  -0.309  0.00  0.00    -0.126 OA
ATOM     16  O   UNL     1       0.758   5.580  -1.438  0.00  0.00    -0.126 OA
ENDBRANCH  11  14
BRANCH  13  17
ATOM     17  O   UNL     1      -0.682   1.547   1.184  0.00  0.00    -0.493 OA
ATOM     18  C   UNL     1      -0.013   1.086   0.008  0.00  0.00    +0.277 C 
ENDBRANCH  13  17
ENDBRANCH   6   8
BRANCH   4  19
ATOM     19  C   UNL     1      -4.608   0.516   4.907  0.00  0.00    +0.139 C 
ATOM     20  N   UNL     1      -5.675   0.594   4.174  0.00  0.00    -0.194 NA
BRANCH  20  21
ATOM     21  N   UNL     1      -6.831  -0.108   4.543  0.00  0.00    -0.265 N 
ATOM     22  H   UNL     1      -6.832  -0.652   5.346  0.00  0.00    +0.168 HD
BRANCH  21  23
ATOM     23  C   UNL     1      -8.036  -0.020   3.715  0.00  0.00    +0.160 C 
BRANCH  23  24
ATOM     24  C   UNL     1      -9.128  -0.861   4.326  0.00  0.00    +0.008 A 
ATOM     25  C   UNL     1      -9.263  -2.189   3.964  0.00  0.00    +0.047 A 
ATOM     26  C   UNL     1     -10.262  -2.961   4.529  0.00  0.00    +0.020 A 
ATOM     27  C   UNL     1     -11.131  -2.404   5.447  0.00  0.00    +0.003 A 
ATOM     28  C   UNL     1     -11.000  -1.075   5.805  0.00  0.00    +0.020 A 
ATOM     29  C   UNL     1      -9.998  -0.303   5.245  0.00  0.00    +0.047 A 
ATOM     30 CL   UNL     1      -9.834   1.366   5.694  0.00  0.00    -0.083 Cl
ATOM     31 CL   UNL     1      -8.175  -2.888   2.805  0.00  0.00    -0.083 Cl
ENDBRANCH  23  24
ENDBRANCH  21  23
ENDBRANCH  20  21
ENDBRANCH   4  19
TORSDOF 7
