REMARK  Name = ZINC65920994
REMARK  5 active torsions:
REMARK  status: ('A' for Active; 'I' for Inactive)
REMARK    1  A    between atoms: C_1  and  C_2
REMARK    2  A    between atoms: C_3  and  C_11
REMARK    3  A    between atoms: C_7  and  N_8
REMARK    4  A    between atoms: N_13  and  N_14
REMARK    5  A    between atoms: N_17  and  C_18
REMARK                            x       y       z     vdW  Elec       q    Type
REMARK                         _______ _______ _______ _____ _____    ______ ____
ROOT
ATOM      1  C   UNL     1      -0.767  -0.163  -2.475  0.00  0.00    +0.260 C 
ATOM      2  O   UNL     1      -0.931   1.040  -2.530  0.00  0.00    -0.269 OA
ATOM      3  N   UNL     1      -0.958  -0.920  -3.575  0.00  0.00    -0.229 N 
ATOM      4  H   UNL     1      -0.828  -1.880  -3.531  0.00  0.00    +0.173 HD
ENDROOT
BRANCH   1   7
ATOM      5  C   UNL     1      -0.618   1.431  -0.066  0.00  0.00    +0.047 C 
ATOM      6  C   UNL     1      -0.285  -0.038  -0.034  0.00  0.00    -0.008 A 
ATOM      7  C   UNL     1      -0.360  -0.797  -1.203  0.00  0.00    +0.043 A 
ATOM      8  C   UNL     1      -0.049  -2.157  -1.166  0.00  0.00    +0.013 A 
ATOM      9  C   UNL     1       0.330  -2.743   0.025  0.00  0.00    +0.003 A 
ATOM     10  C   UNL     1       0.403  -1.984   1.179  0.00  0.00    +0.033 A 
ATOM     11  C   UNL     1       0.101  -0.634   1.148  0.00  0.00    +0.130 A 
BRANCH  11  12
ATOM     12  N   UNL     1       0.187   0.170   2.387  0.00  0.00    +0.057 N 
ATOM     13  O   UNL     1       0.393  -0.372   3.448  0.00  0.00    -0.126 OA
ATOM     14  O   UNL     1       0.050   1.371   2.339  0.00  0.00    -0.126 OA
ENDBRANCH  11  12
ENDBRANCH   1   7
BRANCH   3  15
ATOM     15  N   UNL     1      -1.344  -0.319  -4.780  0.00  0.00    -0.218 N 
ATOM     16  C   UNL     1      -1.535  -1.076  -5.879  0.00  0.00    +0.316 C 
ATOM     17  O   UNL     1      -1.870  -0.554  -6.925  0.00  0.00    -0.251 OA
ATOM     18  N   UNL     1      -1.354  -2.410  -5.818  0.00  0.00    -0.295 N 
ATOM     19  H   UNL     1      -1.474   0.641  -4.824  0.00  0.00    +0.174 HD
ATOM     20  H   UNL     1      -1.086  -2.826  -4.984  0.00  0.00    +0.151 HD
BRANCH  18  21
ATOM     21  C   UNL     1      -1.561  -3.232  -7.013  0.00  0.00    +0.074 C 
ATOM     22  C   UNL     1      -3.041  -3.656  -7.113  0.00  0.00    +0.022 C 
ATOM     23  C   UNL     1      -2.985  -5.102  -7.667  0.00  0.00    +0.002 C 
ATOM     24  C   UNL     1      -1.747  -5.695  -6.950  0.00  0.00    +0.002 C 
ATOM     25  C   UNL     1      -0.738  -4.528  -6.910  0.00  0.00    +0.022 C 
ENDBRANCH  18  21
ENDBRANCH   3  15
TORSDOF 4
