REMARK  Name = ZINC67082078
REMARK  7 active torsions:
REMARK  status: ('A' for Active; 'I' for Inactive)
REMARK    1  A    between atoms: C_1  and  C_2
REMARK    2  A    between atoms: C_9  and  C_11
REMARK    3  A    between atoms: C_11  and  C_13
REMARK    4  A    between atoms: C_11  and  N_14
REMARK    5  A    between atoms: N_17  and  N_18
REMARK    6  A    between atoms: C_19  and  C_21
REMARK    7  A    between atoms: C_21  and  C_22
REMARK                            x       y       z     vdW  Elec       q    Type
REMARK                         _______ _______ _______ _____ _____    ______ ____
ROOT
ATOM      1  N   UNL     1       2.521   0.957   4.055  0.00  0.00    -0.287 N 
ATOM      2  C   UNL     1       2.883   0.679   5.323  0.00  0.00    +0.317 C 
ATOM      3  O   UNL     1       2.971  -0.476   5.691  0.00  0.00    -0.251 OA
ATOM      4  N   UNL     1       3.149   1.682   6.183  0.00  0.00    -0.218 N 
ATOM      5  H   UNL     1       2.451   1.879   3.761  0.00  0.00    +0.151 HD
ATOM      6  H   UNL     1       3.410   1.482   7.096  0.00  0.00    +0.174 HD
ENDROOT
BRANCH   4   7
ATOM      7  N   UNL     1       3.047   3.014   5.759  0.00  0.00    -0.233 N 
ATOM      8  C   UNL     1       3.313   4.017   6.620  0.00  0.00    +0.229 C 
ATOM      9  O   UNL     1       3.639   3.767   7.761  0.00  0.00    -0.274 OA
ATOM     10  H   UNL     1       2.787   3.214   4.847  0.00  0.00    +0.173 HD
BRANCH   8  11
ATOM     11  C   UNL     1       3.204   5.449   6.164  0.00  0.00    +0.101 C 
BRANCH  11  12
ATOM     12  C   UNL     1       3.555   6.382   7.324  0.00  0.00    -0.002 C 
ATOM     13  C   UNL     1       2.513   6.230   8.434  0.00  0.00    +0.004 C 
ATOM     14  C   UNL     1       2.864   7.163   9.595  0.00  0.00    +0.000 C 
ATOM     15  C   UNL     1       2.875   8.611   9.100  0.00  0.00    +0.000 C 
ATOM     16  C   UNL     1       3.917   8.763   7.991  0.00  0.00    +0.000 C 
ATOM     17  C   UNL     1       3.566   7.830   6.830  0.00  0.00    +0.004 C 
ENDBRANCH  11  12
ENDBRANCH   8  11
ENDBRANCH   4   7
BRANCH   1  18
ATOM     18  C   UNL     1       2.232  -0.133   3.120  0.00  0.00    +0.157 C 
ATOM     19  C   UNL     1       3.537  -0.619   2.485  0.00  0.00    +0.038 C 
BRANCH  18  27
ATOM     20  C   UNL     1      -0.014   1.458  -0.029  0.00  0.00    +0.028 C 
ATOM     21  C   UNL     1      -0.184  -0.052   0.142  0.00  0.00    +0.073 C 
ATOM     22  C   UNL     1       0.260  -0.767  -1.138  0.00  0.00    +0.022 C 
ATOM     23  C   UNL     1       0.220  -2.280  -0.913  0.00  0.00    +0.003 C 
ATOM     24  C   UNL     1       1.188  -2.656   0.211  0.00  0.00    +0.019 C 
ATOM     25  C   UNL     1       0.755  -1.963   1.506  0.00  0.00    +0.108 C 
ATOM     26  N   UNL     1       0.648  -0.518   1.260  0.00  0.00    -0.297 N 
ATOM     27  C   UNL     1       1.303   0.362   2.042  0.00  0.00    +0.236 C 
ATOM     28  O   UNL     1       1.145   1.554   1.878  0.00  0.00    -0.274 OA
ENDBRANCH  18  27
ENDBRANCH   1  18
TORSDOF 5
