REMARK  Name = ZINC59148089
REMARK  6 active torsions:
REMARK  status: ('A' for Active; 'I' for Inactive)
REMARK    1  A    between atoms: C_4  and  C_7
REMARK    2  A    between atoms: C_7  and  C_8
REMARK    3  A    between atoms: C_8  and  N_9
REMARK    4  A    between atoms: N_17  and  N_18
REMARK    5  A    between atoms: C_19  and  C_21
REMARK    6  A    between atoms: C_24  and  N_27
REMARK                            x       y       z     vdW  Elec       q    Type
REMARK                         _______ _______ _______ _____ _____    ______ ____
ROOT
ATOM      1  N   UNL     1       5.450  -1.678   1.382  0.00  0.00    -0.265 N 
ATOM      2  C   UNL     1       5.572  -3.064   1.368  0.00  0.00    +0.046 A 
ATOM      3  C   UNL     1       4.618  -4.076   1.367  0.00  0.00    +0.025 A 
ATOM      4  C   UNL     1       5.011  -5.399   1.353  0.00  0.00    +0.017 A 
ATOM      5  C   UNL     1       6.355  -5.736   1.339  0.00  0.00    +0.019 A 
ATOM      6  C   UNL     1       7.316  -4.744   1.340  0.00  0.00    +0.027 A 
ATOM      7  C   UNL     1       6.930  -3.409   1.354  0.00  0.00    +0.029 A 
ATOM      8  C   UNL     1       7.685  -2.134   1.360  0.00  0.00    +0.153 C 
ATOM      9  N   UNL     1       8.987  -1.977   1.351  0.00  0.00    -0.174 NA
ATOM     10  C   UNL     1       6.652  -1.079   1.372  0.00  0.00    +0.271 C 
ATOM     11  O   UNL     1       6.855   0.121   1.375  0.00  0.00    -0.268 OA
ATOM     12 BR   UNL     1       6.873  -7.554   1.320  0.00  0.00    -0.050 Br
ENDROOT
BRANCH   9  13
ATOM     13  N   UNL     1       9.537  -0.689   1.358  0.00  0.00    -0.202 N 
ATOM     14  C   UNL     1      10.876  -0.528   1.348  0.00  0.00    +0.263 C 
ATOM     15  O   UNL     1      11.605  -1.500   1.334  0.00  0.00    -0.268 OA
ATOM     16  H   UNL     1       8.956   0.087   1.370  0.00  0.00    +0.178 HD
BRANCH  14  17
ATOM     17  C   UNL     1      11.456   0.831   1.356  0.00  0.00    +0.038 A 
ATOM     18  C   UNL     1      10.621   1.950   1.379  0.00  0.00    +0.015 A 
ATOM     19  C   UNL     1      11.170   3.215   1.386  0.00  0.00    +0.033 A 
ATOM     20  C   UNL     1      12.544   3.377   1.370  0.00  0.00    +0.126 A 
ATOM     21  C   UNL     1      13.377   2.272   1.347  0.00  0.00    +0.033 A 
ATOM     22  C   UNL     1      12.842   1.001   1.347  0.00  0.00    +0.015 A 
BRANCH  20  23
ATOM     23  N   UNL     1      13.126   4.738   1.377  0.00  0.00    +0.056 N 
ATOM     24  O   UNL     1      12.401   5.705   1.397  0.00  0.00    -0.126 OA
ATOM     25  O   UNL     1      14.326   4.883   1.363  0.00  0.00    -0.126 OA
ENDBRANCH  20  23
ENDBRANCH  14  17
ENDBRANCH   9  13
BRANCH   1  26
ATOM     26  C   UNL     1       4.171  -0.963   1.399  0.00  0.00    +0.118 C 
BRANCH  26  27
ATOM     27  C   UNL     1       3.711  -0.707  -0.038  0.00  0.00    +0.054 C 
BRANCH  27  31
ATOM     28  C   UNL     1      -0.017   1.378   0.010  0.00  0.00    +0.000 A 
ATOM     29  C   UNL     1       1.171   2.086   0.002  0.00  0.00    +0.000 A 
ATOM     30  C   UNL     1       2.377   1.411  -0.013  0.00  0.00    +0.004 A 
ATOM     31  C   UNL     1       2.396   0.029  -0.020  0.00  0.00    -0.046 A 
ATOM     32  C   UNL     1       1.208  -0.679  -0.012  0.00  0.00    +0.004 A 
ATOM     33  C   UNL     1       0.002  -0.004   0.002  0.00  0.00    +0.000 A 
ENDBRANCH  27  31
ENDBRANCH  26  27
ENDBRANCH   1  26
TORSDOF 6
