REMARK  Name = ZINC37351138
REMARK  6 active torsions:
REMARK  status: ('A' for Active; 'I' for Inactive)
REMARK    1  A    between atoms: C_1  and  C_2
REMARK    2  A    between atoms: C_2  and  C_3
REMARK    3  A    between atoms: C_2  and  C_4
REMARK    4  A    between atoms: C_4  and  C_5
REMARK    5  A    between atoms: C_6  and  C_11
REMARK    6  A    between atoms: C_7  and  N_10
REMARK                            x       y       z     vdW  Elec       q    Type
REMARK                         _______ _______ _______ _____ _____    ______ ____
ROOT
ATOM      1  C   UNL     1      -1.416  -2.035  -0.119  0.00  0.00    +0.093 A 
ATOM      2  C   UNL     1      -1.446  -2.759  -1.330  0.00  0.00    +0.066 A 
ATOM      3  C   UNL     1      -1.416  -4.103  -1.010  0.00  0.00    +0.223 A 
ATOM      4  O   UNL     1      -1.369  -4.197   0.329  0.00  0.00    -0.339 OA
ATOM      5  N   UNL     1      -1.365  -2.888   0.864  0.00  0.00    -0.080 NA
ENDROOT
BRANCH   2   6
ATOM      6  C   UNL     1      -1.501  -2.183  -2.696  0.00  0.00    -0.007 A 
ATOM      7  C   UNL     1      -2.617  -1.454  -3.102  0.00  0.00    +0.012 A 
ATOM      8  C   UNL     1      -2.666  -0.920  -4.374  0.00  0.00    +0.050 A 
ATOM      9  C   UNL     1      -1.607  -1.107  -5.251  0.00  0.00    +0.162 A 
ATOM     10  C   UNL     1      -0.490  -1.831  -4.851  0.00  0.00    +0.163 A 
ATOM     11  C   UNL     1      -0.434  -2.366  -3.574  0.00  0.00    +0.058 A 
ATOM     12  O   UNL     1       0.560  -2.017  -5.696  0.00  0.00    -0.485 OA
ATOM     13  C   UNL     1       0.316  -1.782  -7.087  0.00  0.00    +0.270 C 
ATOM     14  C   UNL     1      -0.448  -0.458  -7.224  0.00  0.00    +0.270 C 
ATOM     15  O   UNL     1      -1.679  -0.574  -6.503  0.00  0.00    -0.485 OA
ENDBRANCH   2   6
BRANCH   3  16
ATOM     16  N   UNL     1      -1.431  -5.155  -1.903  0.00  0.00    -0.327 N 
ATOM     17  H   UNL     1      -1.466  -4.981  -2.857  0.00  0.00    +0.145 HD
ATOM     18  H   UNL     1      -1.407  -6.068  -1.577  0.00  0.00    +0.145 HD
ENDBRANCH   3  16
BRANCH   1  19
ATOM     19  C   UNL     1      -1.433  -0.534   0.013  0.00  0.00    +0.062 C 
BRANCH  19  21
ATOM     20  C   UNL     1      -0.019   1.526   0.010  0.00  0.00    +0.007 C 
ATOM     21  C   UNL     1       0.002  -0.004   0.002  0.00  0.00    -0.011 C 
ATOM     22  C   UNL     1       0.742  -0.511   1.242  0.00  0.00    +0.007 C 
ENDBRANCH  19  21
ENDBRANCH   1  19
TORSDOF 4
