REMARK  Name = ZINC16460557
REMARK  7 active torsions:
REMARK  status: ('A' for Active; 'I' for Inactive)
REMARK    1  A    between atoms: C_1  and  C_2
REMARK    2  A    between atoms: C_5  and  N_8
REMARK    3  A    between atoms: C_9  and  C_32
REMARK    4  A    between atoms: C_12  and  S_13
REMARK    5  A    between atoms: S_13  and  C_14
REMARK    6  A    between atoms: C_14  and  C_15
REMARK    7  A    between atoms: C_17  and  C_20
REMARK                            x       y       z     vdW  Elec       q    Type
REMARK                         _______ _______ _______ _____ _____    ______ ____
ROOT
ATOM      1  S   UNL     1       2.892   6.154   0.894  0.00  0.00    -0.079 S 
ENDROOT
BRANCH   1   6
ATOM      2  N   UNL     1       3.400   8.898   1.123  0.00  0.00    -0.268 N 
ATOM      3  C   UNL     1       3.608   9.945   0.249  0.00  0.00    +0.205 A 
ATOM      4  N   UNL     1       3.525   9.452  -0.968  0.00  0.00    -0.125 NA
ATOM      5  N   UNL     1       3.288   8.190  -0.915  0.00  0.00    -0.122 NA
ATOM      6  C   UNL     1       3.205   7.795   0.335  0.00  0.00    +0.197 A 
BRANCH   2  11
ATOM      7  C   UNL     1       3.370   9.115   6.794  0.00  0.00    +0.044 C 
ATOM      8  C   UNL     1       3.378   9.058   5.288  0.00  0.00    -0.050 A 
ATOM      9  C   UNL     1       4.357   8.335   4.630  0.00  0.00    +0.005 A 
ATOM     10  C   UNL     1       4.367   8.280   3.250  0.00  0.00    +0.026 A 
ATOM     11  C   UNL     1       3.393   8.951   2.523  0.00  0.00    +0.051 A 
ATOM     12  C   UNL     1       2.415   9.680   3.186  0.00  0.00    +0.026 A 
ATOM     13  C   UNL     1       2.407   9.727   4.567  0.00  0.00    +0.005 A 
ENDBRANCH   2  11
BRANCH   3  14
ATOM     14  C   UNL     1       3.868  11.347   0.609  0.00  0.00    +0.172 A 
ATOM     15  C   UNL     1       3.789  12.417  -0.232  0.00  0.00    +0.053 A 
ATOM     16  C   UNL     1       4.113  13.556   0.530  0.00  0.00    +0.042 A 
ATOM     17  C   UNL     1       4.379  13.132   1.782  0.00  0.00    +0.196 A 
ATOM     18  O   UNL     1       4.230  11.797   1.826  0.00  0.00    -0.460 OA
ENDBRANCH   3  14
ENDBRANCH   1   6
BRANCH   1  19
ATOM     19  C   UNL     1       2.744   5.303  -0.697  0.00  0.00    +0.140 C 
BRANCH  19  20
ATOM     20  C   UNL     1       2.468   3.840  -0.460  0.00  0.00    +0.089 A 
ATOM     21  N   UNL     1       1.314   3.237  -0.340  0.00  0.00    -0.239 NA
ATOM     22  C   UNL     1       1.269   1.920  -0.131  0.00  0.00    +0.133 A 
ATOM     23  C   UNL     1       2.464   1.250  -0.046  0.00  0.00    +0.080 A 
ATOM     24  S   UNL     1       3.601   2.540  -0.280  0.00  0.00    -0.079 S 
BRANCH  22  25
ATOM     25  C   UNL     1      -0.014   1.212   0.009  0.00  0.00    +0.266 C 
ATOM     26  O   UNL     1      -0.037  -0.003   0.057  0.00  0.00    -0.268 OA
ATOM     27  N   UNL     1      -1.165   1.911   0.078  0.00  0.00    -0.292 N 
ATOM     28  C   UNL     1      -2.465   1.233   0.218  0.00  0.00    +0.113 C 
ATOM     29  C   UNL     1      -3.055   1.637   1.574  0.00  0.00    +0.054 C 
ATOM     30  C   UNL     1      -2.970   3.128   1.771  0.00  0.00    -0.041 A 
ATOM     31  C   UNL     1      -3.811   3.701   2.719  0.00  0.00    +0.004 A 
ATOM     32  C   UNL     1      -3.775   5.059   2.958  0.00  0.00    +0.000 A 
ATOM     33  C   UNL     1      -2.898   5.859   2.251  0.00  0.00    +0.000 A 
ATOM     34  C   UNL     1      -2.066   5.294   1.306  0.00  0.00    +0.005 A 
ATOM     35  C   UNL     1      -2.102   3.928   1.062  0.00  0.00    -0.027 A 
ATOM     36  C   UNL     1      -1.173   3.376   0.010  0.00  0.00    +0.143 C 
ENDBRANCH  22  25
ENDBRANCH  19  20
ENDBRANCH   1  19
TORSDOF 6
