REMARK  Name = ZINC39590238
REMARK  7 active torsions:
REMARK  status: ('A' for Active; 'I' for Inactive)
REMARK    1  A    between atoms: C_1  and  C_2
REMARK    2  A    between atoms: C_2  and  C_3
REMARK    3  A    between atoms: C_2  and  C_4
REMARK    4  A    between atoms: C_7  and  N_10
REMARK    5  A    between atoms: C_11  and  C_13
REMARK    6  A    between atoms: C_16  and  N_20
REMARK    7  A    between atoms: C_21  and  C_23
REMARK                            x       y       z     vdW  Elec       q    Type
REMARK                         _______ _______ _______ _____ _____    ______ ____
ROOT
ATOM      1  C   UNL     1       4.547  -2.886  -5.645  0.00  0.00    +0.087 C 
ATOM      2  C   UNL     1       5.708  -3.567  -5.561  0.00  0.00    +0.021 C 
ATOM      3  N   UNL     1       6.404  -3.917  -6.663  0.00  0.00    -0.320 N 
ATOM      4  C   UNL     1       7.853  -4.158  -6.491  0.00  0.00    +0.219 C 
ATOM      5  S   UNL     1       7.888  -4.745  -4.742  0.00  0.00    -0.114 S 
ATOM      6  C   UNL     1       6.298  -3.972  -4.220  0.00  0.00    +0.123 C 
ATOM      7  H   UNL     1       5.974  -4.006  -7.528  0.00  0.00    +0.148 HD
ENDROOT
BRANCH   1   9
ATOM      8  N   UNL     1       2.688  -1.850  -4.553  0.00  0.00    -0.282 N 
ATOM      9  C   UNL     1       3.848  -2.531  -4.468  0.00  0.00    +0.243 C 
ATOM     10  O   UNL     1       4.295  -2.841  -3.378  0.00  0.00    -0.270 OA
ATOM     11  H   UNL     1       2.294  -1.669  -5.420  0.00  0.00    +0.155 HD
BRANCH   8  15
ATOM     12  C   UNL     1       0.794  -0.527  -1.086  0.00  0.00    -0.045 A 
ATOM     13  C   UNL     1       0.041  -0.910  -2.181  0.00  0.00    +0.006 A 
ATOM     14  C   UNL     1       0.666  -1.349  -3.332  0.00  0.00    +0.023 A 
ATOM     15  C   UNL     1       2.052  -1.406  -3.389  0.00  0.00    +0.034 A 
ATOM     16  C   UNL     1       2.806  -1.020  -2.288  0.00  0.00    +0.023 A 
ATOM     17  C   UNL     1       2.175  -0.577  -1.142  0.00  0.00    +0.006 A 
BRANCH  12  19
ATOM     18  C   UNL     1      -0.740   1.183  -0.153  0.00  0.00    +0.012 C 
ATOM     19  C   UNL     1       0.109  -0.049   0.168  0.00  0.00    +0.013 C 
ATOM     20  C   UNL     1      -0.790  -1.160   0.713  0.00  0.00    +0.012 C 
ENDBRANCH  12  19
ENDBRANCH   8  15
ENDBRANCH   1   9
BRANCH   4  21
ATOM     21  N   UNL     1       8.620  -2.919  -6.650  0.00  0.00    -0.284 N 
ATOM     22  C   UNL     1       9.954  -2.971  -6.831  0.00  0.00    +0.251 C 
ATOM     23  O   UNL     1      10.510  -4.046  -6.952  0.00  0.00    -0.270 OA
ATOM     24  H   UNL     1       8.166  -2.062  -6.626  0.00  0.00    +0.152 HD
BRANCH  22  25
ATOM     25  C   UNL     1      10.738  -1.728  -6.881  0.00  0.00    +0.101 A 
ATOM     26  C   UNL     1      12.130  -1.769  -6.943  0.00  0.00    +0.020 A 
ATOM     27  C   UNL     1      12.839  -0.569  -6.990  0.00  0.00    +0.018 A 
ATOM     28  C   UNL     1      12.177   0.616  -6.974  0.00  0.00    +0.086 A 
ATOM     29  N   UNL     1      10.825   0.663  -6.914  0.00  0.00    -0.328 N 
ATOM     30  C   UNL     1      10.091  -0.465  -6.873  0.00  0.00    +0.261 A 
ATOM     31  O   UNL     1       8.875  -0.402  -6.825  0.00  0.00    -0.267 OA
ATOM     32  H   UNL     1      10.378   1.524  -6.904  0.00  0.00    +0.168 HD
ENDBRANCH  22  25
ENDBRANCH   4  21
TORSDOF 5
