REMARK  Name = ZINC11996146
REMARK  7 active torsions:
REMARK  status: ('A' for Active; 'I' for Inactive)
REMARK    1  A    between atoms: C_10  and  C_11
REMARK    2  A    between atoms: N_13  and  C_14
REMARK    3  A    between atoms: N_13  and  C_32
REMARK    4  A    between atoms: C_14  and  C_15
REMARK    5  A    between atoms: C_23  and  N_24
REMARK    6  A    between atoms: C_27  and  O_30
REMARK    7  A    between atoms: C_32  and  C_33
REMARK                            x       y       z     vdW  Elec       q    Type
REMARK                         _______ _______ _______ _____ _____    ______ ____
ROOT
ATOM      1  C   UNL     1       0.038   2.299  -4.773  0.00  0.00    +0.146 C 
ENDROOT
BRANCH   1   2
ATOM      2  C   UNL     1       1.400   1.757  -5.124  0.00  0.00    +0.008 A 
ATOM      3  C   UNL     1       1.694   1.433  -6.414  0.00  0.00    +0.018 A 
ATOM      4  C   UNL     1       2.977   0.924  -6.700  0.00  0.00    -0.001 A 
ATOM      5  C   UNL     1       3.344   0.567  -8.007  0.00  0.00    +0.013 A 
ATOM      6  C   UNL     1       4.592   0.079  -8.247  0.00  0.00    +0.039 A 
ATOM      7  C   UNL     1       5.514  -0.070  -7.210  0.00  0.00    +0.125 A 
ATOM      8  C   UNL     1       5.189   0.267  -5.929  0.00  0.00    +0.064 A 
ATOM      9  C   UNL     1       3.910   0.774  -5.644  0.00  0.00    +0.050 A 
ATOM     10  C   UNL     1       2.368   1.590  -4.124  0.00  0.00    +0.104 A 
ATOM     11  F   UNL     1       6.745  -0.556  -7.478  0.00  0.00    -0.205 F 
ATOM     12  N   UNL     1       3.617   1.106  -4.340  0.00  0.00    -0.343 N 
ATOM     13  H   UNL     1       4.299   0.994  -3.580  0.00  0.00    +0.167 HD
BRANCH  10  14
ATOM     14  N   UNL     1       2.056   1.929  -2.816  0.00  0.00    -0.316 N 
ATOM     15  C   UNL     1       3.252   2.371  -2.087  0.00  0.00    +0.109 C 
ATOM     16  C   UNL     1       2.849   2.874  -0.699  0.00  0.00    +0.050 C 
ATOM     17  C   UNL     1       2.151   1.744   0.064  0.00  0.00    +0.118 C 
ATOM     18  C   UNL     1       0.937   1.270  -0.739  0.00  0.00    +0.050 C 
ATOM     19  C   UNL     1       1.396   0.814  -2.126  0.00  0.00    +0.109 C 
BRANCH  17  20
ATOM     20  O   UNL     1       1.723   2.224   1.341  0.00  0.00    -0.392 OA
ATOM     21  H   UNL     1       1.270   1.560   1.879  0.00  0.00    +0.210 HD
ENDBRANCH  17  20
ENDBRANCH  10  14
ENDBRANCH   1   2
BRANCH   1  24
ATOM     22  C   UNL     1       0.241   4.409  -3.571  0.00  0.00    +0.248 C 
ATOM     23  O   UNL     1       0.418   3.776  -2.547  0.00  0.00    -0.270 OA
ATOM     24  N   UNL     1       0.088   3.763  -4.744  0.00  0.00    -0.291 N 
BRANCH  22  34
ATOM     25  C   UNL     1      -2.698   7.889  -1.255  0.00  0.00    +0.001 A 
ATOM     26  C   UNL     1      -2.672   6.497  -1.280  0.00  0.00    +0.001 A 
ATOM     27  C   UNL     1      -1.739   5.827  -2.013  0.00  0.00    +0.009 A 
ATOM     28  C   UNL     1      -0.791   6.545  -2.754  0.00  0.00    -0.006 A 
ATOM     29  C   UNL     1      -0.816   7.961  -2.731  0.00  0.00    -0.017 A 
ATOM     30  C   UNL     1      -1.792   8.619  -1.963  0.00  0.00    +0.008 A 
ATOM     31  C   UNL     1       0.135   8.683  -3.473  0.00  0.00    +0.008 A 
ATOM     32  C   UNL     1       1.073   8.022  -4.209  0.00  0.00    +0.001 A 
ATOM     33  C   UNL     1       1.115   6.634  -4.241  0.00  0.00    +0.014 A 
ATOM     34  C   UNL     1       0.193   5.882  -3.529  0.00  0.00    +0.045 A 
ENDBRANCH  22  34
BRANCH  24  35
ATOM     35  C   UNL     1      -0.028   4.525  -5.990  0.00  0.00    +0.140 C 
BRANCH  35  36
ATOM     36  C   UNL     1      -1.505   4.787  -6.291  0.00  0.00    +0.136 C 
ATOM     37  C   UNL     1      -1.638   5.589  -7.601  0.00  0.00    +0.035 C 
ATOM     38  C   UNL     1      -2.509   4.688  -8.510  0.00  0.00    +0.031 C 
ATOM     39  C   UNL     1      -3.212   3.770  -7.479  0.00  0.00    +0.160 C 
ATOM     40  O   UNL     1      -2.194   3.540  -6.482  0.00  0.00    -0.375 OA
ENDBRANCH  35  36
ENDBRANCH  24  35
ENDBRANCH   1  24
TORSDOF 7
