REMARK  Name = ZINC08767599
REMARK  5 active torsions:
REMARK  status: ('A' for Active; 'I' for Inactive)
REMARK    1  A    between atoms: C_1  and  O_2
REMARK    2  A    between atoms: O_2  and  C_3
REMARK    3  A    between atoms: C_6  and  C_9
REMARK    4  A    between atoms: C_9  and  C_11
REMARK    5  A    between atoms: N_29  and  C_32
REMARK                            x       y       z     vdW  Elec       q    Type
REMARK                         _______ _______ _______ _____ _____    ______ ____
ROOT
ATOM      1  C   UNL     1      -0.488  10.391   0.769  0.00  0.00    +0.141 C 
ATOM      2  C   UNL     1       0.290   9.517  -0.224  0.00  0.00    +0.116 C 
ATOM      3  C   UNL     1       1.755   9.540   0.309  0.00  0.00    +0.113 C 
ATOM      4  C   UNL     1       1.588   9.801   1.812  0.00  0.00    +0.100 C 
ATOM      5  C   UNL     1      -0.079  11.052   3.206  0.00  0.00    +0.054 C 
ATOM      6  C   UNL     1       0.912  11.656   3.890  0.00  0.00    +0.022 C 
ATOM      7  C   UNL     1       2.281  11.659   3.334  0.00  0.00    -0.019 A 
ATOM      8  C   UNL     1       2.647  10.742   2.325  0.00  0.00    -0.021 A 
ATOM      9  C   UNL     1       3.910  10.757   1.810  0.00  0.00    +0.006 A 
ATOM     10  C   UNL     1       4.851  11.651   2.295  0.00  0.00    +0.000 A 
ATOM     11  C   UNL     1       4.511  12.547   3.293  0.00  0.00    +0.001 A 
ATOM     12  C   UNL     1       3.234  12.557   3.815  0.00  0.00    +0.008 A 
ATOM     13  C   UNL     1       2.164   8.087   0.125  0.00  0.00    +0.232 C 
ATOM     14  O   UNL     1       3.301   7.672   0.071  0.00  0.00    -0.274 OA
ATOM     15  N   UNL     1       1.050   7.344   0.029  0.00  0.00    -0.210 N 
ATOM     16  C   UNL     1      -0.083   8.060  -0.055  0.00  0.00    +0.232 C 
ATOM     17  O   UNL     1      -1.210   7.616  -0.003  0.00  0.00    -0.274 OA
ATOM     18  N   UNL     1       0.199  10.102   2.056  0.00  0.00    -0.384 NA
ATOM     19  H   UNL     1      -0.205   9.212   2.372  0.00  0.00    +0.127 HD
ENDROOT
BRANCH  15  20
ATOM     20  C   UNL     1       1.068   5.942   0.022  0.00  0.00    +0.044 A 
ATOM     21  C   UNL     1       1.462   5.251   1.174  0.00  0.00    +0.024 A 
ATOM     22  C   UNL     1       1.490   3.892   1.198  0.00  0.00    +0.010 A 
ATOM     23  C   UNL     1       1.119   3.167   0.052  0.00  0.00    -0.018 A 
ATOM     24  C   UNL     1       1.137   1.762   0.042  0.00  0.00    +0.008 A 
ATOM     25  C   UNL     1       0.771   1.091  -1.084  0.00  0.00    +0.001 A 
ATOM     26  C   UNL     1       0.384   1.776  -2.234  0.00  0.00    +0.001 A 
ATOM     27  C   UNL     1       0.348   3.137  -2.260  0.00  0.00    +0.008 A 
ATOM     28  C   UNL     1       0.719   3.864  -1.116  0.00  0.00    -0.016 A 
ATOM     29  C   UNL     1       0.701   5.268  -1.108  0.00  0.00    +0.032 A 
ENDBRANCH  15  20
BRANCH   1  30
ATOM     30  C   UNL     1      -1.842   9.783   1.032  0.00  0.00    +0.183 C 
ATOM     31  O   UNL     1      -2.057   9.211   2.079  0.00  0.00    -0.290 OA
BRANCH  30  35
ATOM     32  C   UNL     1      -4.897  10.072  -1.888  0.00  0.00    +0.120 A 
ATOM     33  C   UNL     1      -5.146   9.416  -0.687  0.00  0.00    +0.046 A 
ATOM     34  C   UNL     1      -4.160   9.319   0.261  0.00  0.00    +0.015 A 
ATOM     35  C   UNL     1      -2.901   9.883   0.019  0.00  0.00    +0.019 A 
ATOM     36  C   UNL     1      -2.658  10.548  -1.189  0.00  0.00    +0.015 A 
ATOM     37  C   UNL     1      -3.648  10.634  -2.133  0.00  0.00    +0.046 A 
BRANCH  32  39
ATOM     38  C   UNL     1      -5.552  10.852  -4.034  0.00  0.00    +0.277 C 
ATOM     39  O   UNL     1      -5.875  10.164  -2.823  0.00  0.00    -0.495 OA
ENDBRANCH  32  39
ENDBRANCH  30  35
ENDBRANCH   1  30
TORSDOF 4
