REMARK  Name = ZINC55027993
REMARK  7 active torsions:
REMARK  status: ('A' for Active; 'I' for Inactive)
REMARK    1  A    between atoms: C_1  and  C_2
REMARK    2  A    between atoms: C_7  and  C_10
REMARK    3  A    between atoms: C_11  and  C_13
REMARK    4  A    between atoms: C_13  and  C_15
REMARK    5  A    between atoms: C_13  and  N_16
REMARK    6  A    between atoms: C_19  and  N_22
REMARK    7  A    between atoms: N_25  and  C_26
REMARK                            x       y       z     vdW  Elec       q    Type
REMARK                         _______ _______ _______ _____ _____    ______ ____
ROOT
ATOM      1  N   UNL     1      -2.612  -4.792  -1.739  0.00  0.00    +0.387 N 
ATOM      2  C   UNL     1      -2.024  -4.127  -2.907  0.00  0.00    -0.076 C 
ATOM      3  C   UNL     1      -2.768  -4.558  -4.173  0.00  0.00    +0.004 C 
ATOM      4  C   UNL     1      -2.650  -6.076  -4.335  0.00  0.00    +0.071 C 
ATOM      5  C   UNL     1      -3.199  -6.758  -3.079  0.00  0.00    +0.004 C 
ATOM      6  C   UNL     1      -2.439  -6.245  -1.853  0.00  0.00    -0.076 C 
ATOM      7  H   UNL     1      -3.597  -4.575  -1.690  0.00  0.00    -0.081 HD
ENDROOT
BRANCH   4   8
ATOM      8  N   UNL     1      -3.423  -6.505  -5.503  0.00  0.00    -0.297 N 
ATOM      9  C   UNL     1      -3.097  -7.644  -6.146  0.00  0.00    +0.300 C 
ATOM     10  O   UNL     1      -2.161  -8.315  -5.757  0.00  0.00    -0.253 OA
ATOM     11  N   UNL     1      -3.809  -8.039  -7.221  0.00  0.00    -0.297 N 
ATOM     12  H   UNL     1      -4.170  -5.970  -5.814  0.00  0.00    +0.151 HD
ATOM     13  H   UNL     1      -4.555  -7.503  -7.531  0.00  0.00    +0.151 HD
BRANCH  11  14
ATOM     14  C   UNL     1      -3.454  -9.277  -7.919  0.00  0.00    +0.074 C 
ATOM     15  C   UNL     1      -2.350  -8.988  -8.939  0.00  0.00    +0.022 C 
ATOM     16  C   UNL     1      -1.980 -10.281  -9.669  0.00  0.00    +0.002 C 
ATOM     17  C   UNL     1      -3.212 -10.829 -10.392  0.00  0.00    +0.000 C 
ATOM     18  C   UNL     1      -4.316 -11.117  -9.372  0.00  0.00    +0.002 C 
ATOM     19  C   UNL     1      -4.686  -9.825  -8.642  0.00  0.00    +0.022 C 
ENDBRANCH  11  14
ENDBRANCH   4   8
BRANCH   1  20
ATOM     20  C   UNL     1      -1.947  -4.316  -0.519  0.00  0.00    +0.016 C 
ATOM     21  C   UNL     1      -2.525  -5.046   0.696  0.00  0.00    -0.004 C 
BRANCH  20  30
ATOM     22  C   UNL     1      -0.143   1.520   0.265  0.00  0.00    +0.039 C 
ATOM     23  C   UNL     1      -0.085   0.011   0.017  0.00  0.00    +0.133 C 
ATOM     24  C   UNL     1      -1.431  -0.621   0.390  0.00  0.00    +0.139 C 
ATOM     25  N   UNL     1      -1.291  -2.084   0.321  0.00  0.00    -0.298 N 
ATOM     26  C   UNL     1      -0.160  -2.704   1.029  0.00  0.00    +0.139 C 
ATOM     27  C   UNL     1       1.124  -1.971   0.625  0.00  0.00    +0.133 C 
ATOM     28  O   UNL     1       0.946  -0.566   0.822  0.00  0.00    -0.371 OA
ATOM     29  C   UNL     1       1.429  -2.247  -0.849  0.00  0.00    +0.039 C 
ATOM     30  C   UNL     1      -2.173  -2.834  -0.369  0.00  0.00    +0.202 C 
ATOM     31  O   UNL     1      -3.149  -2.316  -0.869  0.00  0.00    -0.277 OA
ENDBRANCH  20  30
ENDBRANCH   1  20
TORSDOF 4
