REMARK  Name = ZINC63847721
REMARK  5 active torsions:
REMARK  status: ('A' for Active; 'I' for Inactive)
REMARK    1  A    between atoms: C_1  and  N_2
REMARK    2  A    between atoms: C_11  and  C_14
REMARK    3  A    between atoms: N_16  and  C_17
REMARK    4  A    between atoms: N_16  and  C_18
REMARK    5  A    between atoms: C_18  and  C_19
REMARK                            x       y       z     vdW  Elec       q    Type
REMARK                         _______ _______ _______ _____ _____    ______ ____
ROOT
ATOM      1  C   UNL     1      -0.596  -2.630   2.478  0.00  0.00    +0.238 C 
ATOM      2  O   UNL     1       0.423  -2.453   3.111  0.00  0.00    -0.273 OA
ATOM      3  N   UNL     1      -1.517  -3.511   2.916  0.00  0.00    -0.299 N 
ATOM      4  C   UNL     1      -2.748  -3.725   2.152  0.00  0.00    +0.132 C 
ENDROOT
BRANCH   1  15
ATOM      5  C   UNL     1      -0.018   1.461   0.010  0.00  0.00    +0.153 C 
ATOM      6  N   UNL     1       0.002  -0.004   0.002  0.00  0.00    -0.235 N 
ATOM      7  C   UNL     1       0.005  -0.655  -1.181  0.00  0.00    +0.260 C 
ATOM      8  O   UNL     1       0.078  -0.045  -2.230  0.00  0.00    -0.269 OA
ATOM      9  C   UNL     1      -0.083  -2.132  -1.164  0.00  0.00    +0.043 A 
ATOM     10  C   UNL     1       0.233  -2.904  -2.275  0.00  0.00    +0.013 A 
ATOM     11  C   UNL     1       0.131  -4.280  -2.195  0.00  0.00    +0.001 A 
ATOM     12  C   UNL     1      -0.282  -4.881  -1.019  0.00  0.00    +0.000 A 
ATOM     13  C   UNL     1      -0.597  -4.114   0.091  0.00  0.00    +0.006 A 
ATOM     14  C   UNL     1      -0.500  -2.744   0.023  0.00  0.00    -0.008 A 
ATOM     15  C   UNL     1      -0.832  -1.866   1.201  0.00  0.00    +0.189 C 
ATOM     16  N   UNL     1       0.022  -0.672   1.185  0.00  0.00    -0.222 NA
ATOM     17  H   UNL     1       0.968  -0.896   1.458  0.00  0.00    +0.146 HD
ENDBRANCH   1  15
BRANCH   3  18
ATOM     18  C   UNL     1      -1.288  -4.254   4.158  0.00  0.00    +0.154 C 
BRANCH  18  19
ATOM     19  C   UNL     1      -1.855  -3.463   5.338  0.00  0.00    +0.192 C 
ATOM     20  N   UNL     1      -1.233  -2.134   5.399  0.00  0.00    -0.362 N 
ATOM     21  C   UNL     1      -2.181  -1.252   5.265  0.00  0.00    +0.060 A 
ATOM     22  C   UNL     1      -2.181   0.218   5.244  0.00  0.00    +0.030 A 
ATOM     23  C   UNL     1      -3.344   0.880   5.085  0.00  0.00    +0.040 A 
ATOM     24  C   UNL     1      -4.579   0.219   4.935  0.00  0.00    +0.125 A 
ATOM     25  C   UNL     1      -4.689  -1.127   4.940  0.00  0.00    +0.065 A 
ATOM     26  C   UNL     1      -3.486  -1.951   5.107  0.00  0.00    +0.063 A 
ATOM     27  N   UNL     1      -3.294  -3.240   5.150  0.00  0.00    -0.362 N 
ATOM     28  F   UNL     1      -5.698   0.961   4.781  0.00  0.00    -0.205 F 
ATOM     29  H   UNL     1      -0.289  -1.948   5.519  0.00  0.00    +0.162 HD
ATOM     30  H   UNL     1      -3.976  -3.926   5.073  0.00  0.00    +0.162 HD
ENDBRANCH  18  19
ENDBRANCH   3  18
TORSDOF 3
