REMARK  Name = ZINC65548074
REMARK  6 active torsions:
REMARK  status: ('A' for Active; 'I' for Inactive)
REMARK    1  A    between atoms: C_1  and  C_2
REMARK    2  A    between atoms: C_5  and  N_9
REMARK    3  A    between atoms: C_10  and  C_12
REMARK    4  A    between atoms: C_12  and  S_13
REMARK    5  A    between atoms: S_13  and  C_14
REMARK    6  A    between atoms: C_20  and  N_24
REMARK                            x       y       z     vdW  Elec       q    Type
REMARK                         _______ _______ _______ _____ _____    ______ ____
ROOT
ATOM      1  S   UNL     1       0.447  -6.965   2.820  0.00  0.00    -0.106 S 
ENDROOT
BRANCH   1   2
ATOM      2  C   UNL     1       0.599  -8.763   2.626  0.00  0.00    +0.236 C 
ATOM      3  N   UNL     1       1.761  -9.083   1.787  0.00  0.00    -0.355 N 
ATOM      4  C   UNL     1       1.322  -9.717   0.738  0.00  0.00    +0.061 A 
ATOM      5  C   UNL     1       1.992 -10.285  -0.439  0.00  0.00    +0.029 A 
ATOM      6  C   UNL     1       1.260 -10.901  -1.389  0.00  0.00    +0.035 A 
ATOM      7  C   UNL     1      -0.138 -11.028  -1.305  0.00  0.00    +0.128 A 
ATOM      8  C   UNL     1      -0.851 -10.544  -0.269  0.00  0.00    +0.060 A 
ATOM      9  C   UNL     1      -0.158  -9.852   0.827  0.00  0.00    +0.063 A 
ATOM     10  N   UNL     1      -0.577  -9.296   1.928  0.00  0.00    -0.355 N 
ATOM     11  H   UNL     1      -1.497  -9.244   2.232  0.00  0.00    +0.162 HD
ATOM     12  H   UNL     1       2.686  -8.862   1.978  0.00  0.00    +0.162 HD
BRANCH   7  13
ATOM     13  N   UNL     1      -0.855 -11.722  -2.398  0.00  0.00    +0.056 N 
ATOM     14  O   UNL     1      -0.238 -12.166  -3.339  0.00  0.00    -0.126 OA
ATOM     15  O   UNL     1      -2.056 -11.845  -2.350  0.00  0.00    -0.126 OA
ENDBRANCH   7  13
ENDBRANCH   1   2
BRANCH   1  16
ATOM     16  C   UNL     1       0.310  -6.351   1.119  0.00  0.00    +0.169 C 
BRANCH  16  18
ATOM     17  N   UNL     1       0.059  -4.170  -0.022  0.00  0.00    -0.285 N 
ATOM     18  C   UNL     1       0.176  -4.850   1.136  0.00  0.00    +0.227 C 
ATOM     19  O   UNL     1       0.174  -4.254   2.192  0.00  0.00    -0.275 OA
ATOM     20  H   UNL     1      -0.015  -4.651  -0.861  0.00  0.00    +0.155 HD
BRANCH  17  25
ATOM     21  C   UNL     1       0.008   1.503   0.012  0.00  0.00    +0.045 C 
ATOM     22  C   UNL     1       0.022  -0.004   0.003  0.00  0.00    -0.032 A 
ATOM     23  C   UNL     1       0.777  -0.693   0.934  0.00  0.00    +0.006 A 
ATOM     24  C   UNL     1       0.792  -2.074   0.928  0.00  0.00    +0.023 A 
ATOM     25  C   UNL     1       0.046  -2.771  -0.014  0.00  0.00    +0.035 A 
ATOM     26  C   UNL     1      -0.712  -2.078  -0.948  0.00  0.00    +0.043 A 
ATOM     27  C   UNL     1      -0.726  -0.695  -0.934  0.00  0.00    +0.046 A 
ATOM     28 CL   UNL     1      -1.678   0.174  -2.096  0.00  0.00    -0.083 Cl
ENDBRANCH  17  25
ENDBRANCH  16  18
ENDBRANCH   1  16
TORSDOF 5
