REMARK  Name = ZINC49244503
REMARK  8 active torsions:
REMARK  status: ('A' for Active; 'I' for Inactive)
REMARK    1  A    between atoms: C_1  and  C_2
REMARK    2  A    between atoms: C_5  and  N_9
REMARK    3  A    between atoms: C_10  and  C_12
REMARK    4  A    between atoms: N_14  and  C_15
REMARK    5  A    between atoms: C_15  and  C_16
REMARK    6  A    between atoms: C_16  and  N_17
REMARK    7  A    between atoms: N_17  and  C_18
REMARK    8  A    between atoms: C_23  and  N_24
REMARK                            x       y       z     vdW  Elec       q    Type
REMARK                         _______ _______ _______ _____ _____    ______ ____
ROOT
ATOM      1  C   UNL     1      -0.193  -6.321  -1.192  0.00  0.00    +0.299 C 
ATOM      2  O   UNL     1      -0.180  -6.930  -0.142  0.00  0.00    -0.265 OA
ATOM      3  N   UNL     1      -0.282  -6.990  -2.358  0.00  0.00    -0.306 N 
ATOM      4  H   UNL     1      -0.292  -6.504  -3.197  0.00  0.00    +0.149 HD
ENDROOT
BRANCH   1   6
ATOM      5  N   UNL     1      -0.021  -4.160  -0.025  0.00  0.00    -0.276 N 
ATOM      6  C   UNL     1      -0.110  -4.830  -1.191  0.00  0.00    +0.303 C 
ATOM      7  O   UNL     1      -0.122  -4.221  -2.241  0.00  0.00    -0.265 OA
ATOM      8  H   UNL     1       0.072  -4.648   0.809  0.00  0.00    +0.155 HD
BRANCH   5  13
ATOM      9  C   UNL     1      -0.192   1.509   0.011  0.00  0.00    +0.044 C 
ATOM     10  C   UNL     1      -0.146   0.003   0.002  0.00  0.00    -0.049 A 
ATOM     11  C   UNL     1      -0.727  -0.699  -1.039  0.00  0.00    +0.005 A 
ATOM     12  C   UNL     1      -0.687  -2.079  -1.051  0.00  0.00    +0.025 A 
ATOM     13  C   UNL     1      -0.062  -2.763  -0.016  0.00  0.00    +0.052 A 
ATOM     14  C   UNL     1       0.520  -2.055   1.029  0.00  0.00    +0.062 A 
ATOM     15  C   UNL     1       0.481  -0.674   1.032  0.00  0.00    +0.025 A 
ATOM     16 CL   UNL     1       1.302  -2.905   2.325  0.00  0.00    -0.082 Cl
ENDBRANCH   5  13
ENDBRANCH   1   6
BRANCH   3  17
ATOM     17  C   UNL     1      -0.363  -8.453  -2.358  0.00  0.00    +0.123 C 
BRANCH  17  18
ATOM     18  C   UNL     1      -0.455  -8.958  -3.800  0.00  0.00    +0.120 C 
BRANCH  18  19
ATOM     19  N   UNL     1      -0.537 -10.421  -3.800  0.00  0.00    -0.341 N 
ATOM     20  H   UNL     1      -0.527 -10.908  -2.961  0.00  0.00    +0.146 HD
BRANCH  19  21
ATOM     21  C   UNL     1      -0.629 -11.115  -5.009  0.00  0.00    +0.058 A 
ATOM     22  C   UNL     1      -0.535 -10.430  -6.214  0.00  0.00    +0.025 A 
ATOM     23  C   UNL     1      -0.626 -11.119  -7.407  0.00  0.00    +0.002 A 
ATOM     24  C   UNL     1      -0.811 -12.489  -7.404  0.00  0.00    +0.002 A 
ATOM     25  C   UNL     1      -0.906 -13.174  -6.206  0.00  0.00    +0.034 A 
ATOM     26  C   UNL     1      -0.810 -12.492  -5.009  0.00  0.00    +0.147 A 
BRANCH  26  27
ATOM     27  N   UNL     1      -0.905 -13.227  -3.728  0.00  0.00    +0.058 N 
ATOM     28  O   UNL     1      -0.241 -12.877  -2.780  0.00  0.00    -0.126 OA
ATOM     29  O   UNL     1      -1.647 -14.177  -3.630  0.00  0.00    -0.126 OA
ENDBRANCH  26  27
ENDBRANCH  19  21
ENDBRANCH  18  19
ENDBRANCH  17  18
ENDBRANCH   3  17
TORSDOF 7
