REMARK  Name = ZINC32958571
REMARK  5 active torsions:
REMARK  status: ('A' for Active; 'I' for Inactive)
REMARK    1  A    between atoms: C_1  and  C_2
REMARK    2  A    between atoms: C_7  and  S_8
REMARK    3  A    between atoms: S_8  and  N_11
REMARK    4  A    between atoms: C_14  and  C_17
REMARK    5  A    between atoms: C_24  and  C_26
REMARK                            x       y       z     vdW  Elec       q    Type
REMARK                         _______ _______ _______ _____ _____    ______ ____
ROOT
ATOM      1  S   UNL     1      -0.672   3.131  -7.281  0.00  0.00    +0.061 S 
ATOM      2  O   UNL     1      -1.762   2.471  -7.910  0.00  0.00    -0.153 OA
ATOM      3  O   UNL     1      -0.293   4.460  -7.612  0.00  0.00    -0.153 OA
ENDROOT
BRANCH   1  10
ATOM      4  C   UNL     1       2.104   3.836  -6.325  0.00  0.00    +0.046 C 
ATOM      5  C   UNL     1       1.980   2.529  -7.066  0.00  0.00    -0.022 A 
ATOM      6  C   UNL     1       3.099   1.741  -7.267  0.00  0.00    +0.032 A 
ATOM      7  C   UNL     1       2.983   0.541  -7.948  0.00  0.00    +0.076 A 
ATOM      8  C   UNL     1       1.740   0.131  -8.429  0.00  0.00    +0.144 A 
ATOM      9  C   UNL     1       0.624   0.921  -8.219  0.00  0.00    +0.076 A 
ATOM     10  C   UNL     1       0.748   2.122  -7.543  0.00  0.00    +0.112 A 
ATOM     11  O   UNL     1       1.639  -1.049  -9.098  0.00  0.00    -0.481 OA
ATOM     12  C   UNL     1       2.767  -1.442  -9.884  0.00  0.00    +0.325 C 
ATOM     13  C   UNL     1       4.031  -1.259  -9.082  0.00  0.00    +0.255 C 
ATOM     14  O   UNL     1       4.978  -1.995  -9.263  0.00  0.00    -0.272 OA
ATOM     15  N   UNL     1       4.104  -0.273  -8.162  0.00  0.00    -0.280 N 
ATOM     16  H   UNL     1       5.025  -0.103  -7.585  0.00  0.00    +0.155 HD
ENDBRANCH   1  10
BRANCH   1  17
ATOM     17  N   UNL     1      -0.988   3.120  -5.655  0.00  0.00    -0.177 NA
ATOM     18  C   UNL     1      -0.442   4.166  -4.780  0.00  0.00    +0.110 C 
ATOM     19  C   UNL     1       0.316   3.499  -3.627  0.00  0.00    +0.030 C 
ATOM     20  C   UNL     1      -0.611   2.508  -2.920  0.00  0.00    +0.078 C 
ATOM     21  C   UNL     1      -1.045   1.421  -3.905  0.00  0.00    +0.030 C 
ATOM     22  C   UNL     1      -1.818   2.064  -5.061  0.00  0.00    +0.110 C 
BRANCH  20  23
ATOM     23  C   UNL     1       0.121   1.874  -1.764  0.00  0.00    +0.219 C 
ATOM     24  O   UNL     1       1.311   2.061  -1.624  0.00  0.00    -0.275 OA
ATOM     25  N   UNL     1      -0.548   1.100  -0.886  0.00  0.00    -0.298 N 
ATOM     26  C   UNL     1      -1.962   0.757  -1.108  0.00  0.00    +0.108 C 
ATOM     27  C   UNL     1      -2.765   1.139   0.140  0.00  0.00    +0.019 C 
ATOM     28  C   UNL     1      -2.142   0.470   1.367  0.00  0.00    +0.003 C 
ATOM     29  C   UNL     1      -0.706   0.967   1.547  0.00  0.00    +0.022 C 
ATOM     30  C   UNL     1       0.121   0.583   0.316  0.00  0.00    +0.073 C 
ATOM     31  C   UNL     1       1.520   1.191   0.427  0.00  0.00    +0.028 C 
ENDBRANCH  20  23
ENDBRANCH   1  17
TORSDOF 3
