REMARK  Name = ZINC23402538
REMARK  6 active torsions:
REMARK  status: ('A' for Active; 'I' for Inactive)
REMARK    1  A    between atoms: C_1  and  C_2
REMARK    2  A    between atoms: C_2  and  C_3
REMARK    3  A    between atoms: C_2  and  N_4
REMARK    4  A    between atoms: C_12  and  O_26
REMARK    5  A    between atoms: C_14  and  C_17
REMARK    6  A    between atoms: C_22  and  N_23
REMARK                            x       y       z     vdW  Elec       q    Type
REMARK                         _______ _______ _______ _____ _____    ______ ____
ROOT
ATOM      1  N   UNL     1       0.512   6.690  -6.271  0.00  0.00    +0.384 N 
ATOM      2  C   UNL     1       0.538   5.221  -6.230  0.00  0.00    -0.073 C 
ATOM      3  C   UNL     1       1.163   4.741  -4.918  0.00  0.00    +0.018 C 
ATOM      4  C   UNL     1       0.450   5.441  -3.766  0.00  0.00    -0.027 A 
ATOM      5  C   UNL     1      -0.284   6.555  -4.003  0.00  0.00    -0.021 A 
ATOM      6  S   UNL     1      -0.921   7.024  -2.418  0.00  0.00    -0.080 S 
ATOM      7  C   UNL     1      -0.228   5.778  -1.472  0.00  0.00    +0.080 A 
ATOM      8  C   UNL     1       0.491   4.997  -2.386  0.00  0.00    +0.067 A 
ATOM      9  C   UNL     1       1.208   3.810  -1.851  0.00  0.00    +0.220 C 
ATOM     10  N   UNL     1       0.964   3.458  -0.619  0.00  0.00    -0.223 NA
ATOM     11  C   UNL     1      -0.034   4.080   0.242  0.00  0.00    +0.226 C 
ATOM     12  N   UNL     1      -0.274   5.486  -0.130  0.00  0.00    -0.313 N 
ATOM     13  C   UNL     1      -0.490   7.220  -5.327  0.00  0.00    -0.035 C 
ATOM     14  H   UNL     1      -0.477   6.235   0.650  0.00  0.00    +0.149 HD
ATOM     15  H   UNL     1       1.504   7.056  -5.965  0.00  0.00    -0.081 HD
ENDROOT
BRANCH  11  16
ATOM     16  C   UNL     1      -1.327   3.314   0.131  0.00  0.00    +0.025 A 
ATOM     17  C   UNL     1      -2.534   3.988   0.145  0.00  0.00    +0.009 A 
ATOM     18  C   UNL     1      -3.719   3.286   0.043  0.00  0.00    +0.001 A 
ATOM     19  C   UNL     1      -3.699   1.908  -0.075  0.00  0.00    +0.002 A 
ATOM     20  C   UNL     1      -2.492   1.234  -0.095  0.00  0.00    +0.033 A 
ATOM     21  C   UNL     1      -1.306   1.937   0.013  0.00  0.00    +0.133 A 
BRANCH  21  22
ATOM     22  N   UNL     1      -0.014   1.215  -0.003  0.00  0.00    +0.057 N 
ATOM     23  O   UNL     1       0.152   0.281  -0.768  0.00  0.00    -0.126 OA
ATOM     24  O   UNL     1       0.885   1.557   0.744  0.00  0.00    -0.126 OA
ENDBRANCH  21  22
ENDBRANCH  11  16
BRANCH   1  26
ATOM     25  C   UNL     1      -1.118   6.699  -8.098  0.00  0.00    -0.014 C 
ATOM     26  C   UNL     1       0.260   7.176  -7.634  0.00  0.00    -0.074 C 
ATOM     27  C   UNL     1       0.302   8.705  -7.647  0.00  0.00    -0.014 C 
ENDBRANCH   1  26
BRANCH   9  28
ATOM     28  O   UNL     1       2.083   3.119  -2.615  0.00  0.00    -0.492 OA
ATOM     29  H   UNL     1       2.604   2.243  -2.200  0.00  0.00    +0.294 HD
ENDBRANCH   9  28
TORSDOF 4
