REMARK  Name = ZINC37488637
REMARK  4 active torsions:
REMARK  status: ('A' for Active; 'I' for Inactive)
REMARK    1  A    between atoms: C_4  and  N_6
REMARK    2  A    between atoms: C_7  and  S_11
REMARK    3  A    between atoms: S_11  and  C_12
REMARK    4  A    between atoms: C_19  and  O_21
REMARK                            x       y       z     vdW  Elec       q    Type
REMARK                         _______ _______ _______ _____ _____    ______ ____
ROOT
ATOM      1  N   UNL     1       1.136  -1.207  -1.821  0.00  0.00    -0.217 N 
ATOM      2  C   UNL     1       1.572  -2.463  -2.079  0.00  0.00    +0.210 A 
ATOM      3  N   UNL     1       1.153  -2.778  -3.285  0.00  0.00    -0.101 NA
ATOM      4  N   UNL     1       0.486  -1.807  -3.797  0.00  0.00    -0.022 NA
ATOM      5  N   UNL     1       0.425  -0.820  -2.971  0.00  0.00    -0.043 NA
ENDROOT
BRANCH   1   9
ATOM      6  C   UNL     1      -0.019   1.538   0.011  0.00  0.00    +0.002 C 
ATOM      7  C   UNL     1       1.477   1.939  -0.002  0.00  0.00    +0.002 C 
ATOM      8  C   UNL     1       2.107   0.881  -0.942  0.00  0.00    +0.027 C 
ATOM      9  C   UNL     1       1.353  -0.422  -0.604  0.00  0.00    +0.112 C 
ATOM     10  C   UNL     1       0.002  -0.004   0.002  0.00  0.00    +0.027 C 
ENDBRANCH   1   9
BRANCH   2  11
ATOM     11  S   UNL     1       2.523  -3.482  -1.001  0.00  0.00    -0.077 S 
BRANCH  11  12
ATOM     12  C   UNL     1       2.763  -5.013  -1.944  0.00  0.00    +0.105 C 
ATOM     13  C   UNL     1       3.633  -4.715  -3.197  0.00  0.00    +0.183 C 
ATOM     14  S   UNL     1       4.230  -6.422  -3.570  0.00  0.00    -0.027 S 
ATOM     15  O   UNL     1       5.544  -6.350  -4.107  0.00  0.00    -0.174 OA
ATOM     16  O   UNL     1       3.220  -7.127  -4.278  0.00  0.00    -0.174 OA
ATOM     17  C   UNL     1       4.316  -7.054  -1.843  0.00  0.00    +0.198 C 
ATOM     18  C   UNL     1       3.451  -6.050  -1.058  0.00  0.00    +0.150 C 
BRANCH  18  19
ATOM     19  O   UNL     1       2.451  -6.774  -0.338  0.00  0.00    -0.389 OA
ATOM     20  H   UNL     1       2.805  -7.455   0.250  0.00  0.00    +0.210 HD
ENDBRANCH  18  19
ENDBRANCH  11  12
ENDBRANCH   2  11
TORSDOF 4
