REMARK  Name = ZINC00904971
REMARK  10 active torsions:
REMARK  status: ('A' for Active; 'I' for Inactive)
REMARK    1  A    between atoms: C_1  and  C_2
REMARK    2  A    between atoms: C_7  and  C_37
REMARK    3  A    between atoms: C_10  and  C_12
REMARK    4  A    between atoms: C_12  and  S_13
REMARK    5  A    between atoms: S_13  and  C_14
REMARK    6  A    between atoms: C_17  and  C_25
REMARK    7  A    between atoms: N_18  and  C_19
REMARK    8  A    between atoms: C_19  and  C_20
REMARK    9  A    between atoms: C_25  and  O_26
REMARK   10  A    between atoms: O_26  and  C_27
REMARK                            x       y       z     vdW  Elec       q    Type
REMARK                         _______ _______ _______ _____ _____    ______ ____
ROOT
ATOM      1  C   UNL     1       2.579   4.520   0.127  0.00  0.00    +0.193 A 
ATOM      2  N   UNL     1       3.688   3.818   0.130  0.00  0.00    -0.122 NA
ATOM      3  N   UNL     1       4.704   4.605   0.156  0.00  0.00    -0.130 NA
ATOM      4  C   UNL     1       4.307   5.846   0.171  0.00  0.00    +0.172 A 
ATOM      5  N   UNL     1       2.940   5.837   0.147  0.00  0.00    -0.296 N 
ENDROOT
BRANCH   1   6
ATOM      6  S   UNL     1       0.936   3.885   0.096  0.00  0.00    -0.077 S 
BRANCH   6   7
ATOM      7  C   UNL     1       1.286   2.109   0.072  0.00  0.00    +0.173 C 
BRANCH   7  15
ATOM      8  C   UNL     1       1.309  -1.479  -1.441  0.00  0.00    +0.028 C 
ATOM      9  C   UNL     1       1.272  -0.739  -0.102  0.00  0.00    +0.073 C 
ATOM     10  C   UNL     1       1.367  -1.748   1.052  0.00  0.00    +0.022 C 
ATOM     11  C   UNL     1       0.123  -2.640   1.046  0.00  0.00    +0.004 C 
ATOM     12  C   UNL     1      -1.124  -1.780   1.260  0.00  0.00    +0.022 C 
ATOM     13  C   UNL     1      -1.247  -0.770   0.114  0.00  0.00    +0.073 C 
ATOM     14  N   UNL     1       0.005  -0.006   0.021  0.00  0.00    -0.295 N 
ATOM     15  C   UNL     1      -0.010   1.341   0.042  0.00  0.00    +0.226 C 
ATOM     16  O   UNL     1      -1.067   1.936   0.033  0.00  0.00    -0.275 OA
ATOM     17  C   UNL     1      -2.410   0.183   0.392  0.00  0.00    +0.028 C 
ENDBRANCH   7  15
ENDBRANCH   6   7
ENDBRANCH   1   6
BRANCH   5  18
ATOM     18  C   UNL     1       2.047   6.999   0.148  0.00  0.00    +0.199 C 
BRANCH  18  19
ATOM     19  C   UNL     1       1.721   7.381   1.568  0.00  0.00    +0.125 A 
ATOM     20  C   UNL     1       2.419   8.242   2.332  0.00  0.00    +0.046 A 
ATOM     21  C   UNL     1       1.762   8.305   3.582  0.00  0.00    +0.041 A 
ATOM     22  C   UNL     1       0.707   7.473   3.511  0.00  0.00    +0.195 A 
ATOM     23  O   UNL     1       0.687   6.917   2.289  0.00  0.00    -0.466 OA
ENDBRANCH  18  19
ENDBRANCH   5  18
BRANCH   4  24
ATOM     24  C   UNL     1       5.192   7.066   0.203  0.00  0.00    +0.305 C 
BRANCH  24  25
ATOM     25  O   UNL     1       5.489   7.473  -1.135  0.00  0.00    -0.482 OA
BRANCH  25  26
ATOM     26  C   UNL     1       6.282   8.566  -1.284  0.00  0.00    +0.147 A 
ATOM     27  C   UNL     1       6.758   9.225  -0.186  0.00  0.00    +0.048 A 
ATOM     28  C   UNL     1       7.572  10.346  -0.320  0.00  0.00    +0.004 A 
ATOM     29  C   UNL     1       7.917  10.818  -1.550  0.00  0.00    +0.010 A 
ATOM     30  C   UNL     1       7.447  10.168  -2.703  0.00  0.00    +0.004 A 
ATOM     31  C   UNL     1       6.622   9.024  -2.574  0.00  0.00    +0.112 A 
ATOM     32  N   UNL     1       6.177   8.398  -3.668  0.00  0.00    -0.251 NA
ATOM     33  C   UNL     1       6.491   8.819  -4.869  0.00  0.00    +0.111 A 
ATOM     34  C   UNL     1       7.301   9.935  -5.066  0.00  0.00    +0.020 A 
ATOM     35  C   UNL     1       7.783  10.626  -3.991  0.00  0.00    +0.011 A 
ENDBRANCH  25  26
ENDBRANCH  24  25
ENDBRANCH   4  24
TORSDOF 8
