REMARK  Name = ZINC36813344
REMARK  4 active torsions:
REMARK  status: ('A' for Active; 'I' for Inactive)
REMARK    1  A    between atoms: C_1  and  C_2
REMARK    2  A    between atoms: C_7  and  S_10
REMARK    3  A    between atoms: S_10  and  C_11
REMARK    4  A    between atoms: C_20  and  N_21
REMARK                            x       y       z     vdW  Elec       q    Type
REMARK                         _______ _______ _______ _____ _____    ______ ____
ROOT
ATOM      1  C   UNL     1       1.909   2.140  -4.421  0.00  0.00    +0.047 A 
ATOM      2  C   UNL     1       2.779   3.108  -3.870  0.00  0.00    +0.017 A 
ATOM      3  C   UNL     1       2.362   4.433  -3.671  0.00  0.00    +0.026 A 
ATOM      4  C   UNL     1       3.229   5.339  -3.138  0.00  0.00    +0.019 A 
ATOM      5  C   UNL     1       4.526   4.965  -2.787  0.00  0.00    +0.017 A 
ATOM      6  C   UNL     1       4.961   3.688  -2.967  0.00  0.00    +0.029 A 
ATOM      7  C   UNL     1       4.095   2.726  -3.515  0.00  0.00    +0.072 A 
ATOM      8  N   UNL     1       4.500   1.465  -3.701  0.00  0.00    -0.253 NA
ATOM      9  C   UNL     1       3.705   0.553  -4.211  0.00  0.00    +0.135 A 
ATOM     10  C   UNL     1       2.393   0.847  -4.582  0.00  0.00    +0.058 A 
ATOM     11 BR   UNL     1       2.667   7.124  -2.870  0.00  0.00    -0.050 Br
ENDROOT
BRANCH  10  12
ATOM     12  N   UNL     1       1.571  -0.153  -5.118  0.00  0.00    -0.356 N 
ATOM     13  H   UNL     1       0.660   0.056  -5.378  0.00  0.00    +0.142 HD
ATOM     14  H   UNL     1       1.913  -1.054  -5.229  0.00  0.00    +0.142 HD
ENDBRANCH  10  12
BRANCH   1  15
ATOM     15  S   UNL     1       0.260   2.557  -4.882  0.00  0.00    -0.049 S 
BRANCH  15  22
ATOM     16  C   UNL     1      -0.013   1.086   0.008  0.00  0.00    +0.066 C 
ATOM     17  C   UNL     1      -0.742   1.585  -1.213  0.00  0.00    +0.046 A 
ATOM     18  C   UNL     1      -2.090   1.794  -1.164  0.00  0.00    +0.093 A 
ATOM     19  C   UNL     1      -2.748   2.260  -2.315  0.00  0.00    +0.252 A 
ATOM     20  O   UNL     1      -3.952   2.458  -2.306  0.00  0.00    -0.268 OA
ATOM     21  N   UNL     1      -2.022   2.486  -3.431  0.00  0.00    -0.302 N 
ATOM     22  C   UNL     1      -0.679   2.260  -3.421  0.00  0.00    +0.174 A 
ATOM     23  N   UNL     1      -0.069   1.827  -2.335  0.00  0.00    -0.228 NA
ATOM     24  H   UNL     1      -2.456   2.807  -4.237  0.00  0.00    +0.171 HD
ENDBRANCH  15  22
ENDBRANCH   1  15
TORSDOF 3
