REMARK  Name = ZINC40445646
REMARK  6 active torsions:
REMARK  status: ('A' for Active; 'I' for Inactive)
REMARK    1  A    between atoms: C_1  and  C_2
REMARK    2  A    between atoms: C_2  and  C_3
REMARK    3  A    between atoms: C_3  and  C_5
REMARK    4  A    between atoms: C_3  and  N_6
REMARK    5  A    between atoms: C_7  and  C_9
REMARK    6  A    between atoms: C_9  and  N_10
REMARK                            x       y       z     vdW  Elec       q    Type
REMARK                         _______ _______ _______ _____ _____    ______ ____
ROOT
ATOM      1  C   UNL     1      -4.090   0.329   2.630  0.00  0.00    +0.239 C 
ENDROOT
BRANCH   1   2
ATOM      2  N   UNL     1      -5.542   0.379   2.437  0.00  0.00    -0.259 N 
ATOM      3  C   UNL     1      -6.463  -0.293   3.160  0.00  0.00    +0.126 A 
ATOM      4  C   UNL     1      -7.684   0.023   2.668  0.00  0.00    +0.086 A 
ATOM      5  C   UNL     1      -7.502   0.919   1.609  0.00  0.00    +0.249 A 
ATOM      6  N   UNL     1      -6.219   1.136   1.472  0.00  0.00    -0.145 NA
ATOM      7  N   UNL     1      -8.576   1.520   0.787  0.00  0.00    +0.078 N 
ATOM      8  O   UNL     1      -9.733   1.246   1.009  0.00  0.00    -0.125 OA
ATOM      9  O   UNL     1      -8.297   2.284  -0.107  0.00  0.00    -0.125 OA
ATOM     10 BR   UNL     1      -9.341  -0.630   3.301  0.00  0.00    -0.045 Br
ENDBRANCH   1   2
BRANCH   1  12
ATOM     11  N   UNL     1      -2.082  -0.162   1.273  0.00  0.00    -0.311 N 
ATOM     12  C   UNL     1      -3.424  -0.053   1.334  0.00  0.00    +0.235 C 
ATOM     13  O   UNL     1      -4.095  -0.264   0.346  0.00  0.00    -0.274 OA
ATOM     14  H   UNL     1      -1.545   0.006   2.063  0.00  0.00    +0.149 HD
BRANCH  11  15
ATOM     15  C   UNL     1      -1.433  -0.534   0.013  0.00  0.00    +0.070 C 
ATOM     16  C   UNL     1      -1.416  -2.058  -0.121  0.00  0.00    +0.028 C 
BRANCH  15  18
ATOM     17  C   UNL     1      -0.019   1.526   0.010  0.00  0.00    +0.005 C 
ATOM     18  C   UNL     1       0.002  -0.004   0.002  0.00  0.00    +0.018 C 
ENDBRANCH  15  18
ENDBRANCH  11  15
ENDBRANCH   1  12
TORSDOF 4
