REMARK  Name = ZINC39351924
REMARK  8 active torsions:
REMARK  status: ('A' for Active; 'I' for Inactive)
REMARK    1  A    between atoms: C_1  and  O_2
REMARK    2  A    between atoms: O_2  and  C_3
REMARK    3  A    between atoms: C_5  and  C_13
REMARK    4  A    between atoms: C_8  and  O_9
REMARK    5  A    between atoms: O_9  and  C_10
REMARK    6  A    between atoms: C_10  and  C_11
REMARK    7  A    between atoms: C_14  and  C_15
REMARK    8  A    between atoms: C_14  and  C_17
REMARK                            x       y       z     vdW  Elec       q    Type
REMARK                         _______ _______ _______ _____ _____    ______ ____
ROOT
ATOM      1  C   UNL     1       2.394   0.343  -4.215  0.00  0.00    +0.026 C 
ATOM      2  C   UNL     1       3.517  -0.081  -4.831  0.00  0.00    +0.072 C 
ENDROOT
BRANCH   2   3
ATOM      3  C   UNL     1       4.197   0.800  -5.848  0.00  0.00    +0.217 C 
ATOM      4  N   UNL     1       4.265   0.114  -7.144  0.00  0.00    -0.358 N 
ATOM      5  C   UNL     1       5.521  -0.012  -7.453  0.00  0.00    +0.081 A 
ATOM      6  C   UNL     1       6.213  -0.605  -8.611  0.00  0.00    +0.045 A 
ATOM      7  C   UNL     1       7.568  -0.569  -8.620  0.00  0.00    +0.038 A 
ATOM      8  C   UNL     1       8.282   0.018  -7.557  0.00  0.00    +0.128 A 
ATOM      9  N   UNL     1       7.711   0.552  -6.518  0.00  0.00    -0.235 NA
ATOM     10  C   UNL     1       6.361   0.584  -6.380  0.00  0.00    +0.152 A 
ATOM     11  N   UNL     1       5.585   1.058  -5.442  0.00  0.00    -0.344 N 
ATOM     12 BR   UNL     1       8.511  -1.315 -10.079  0.00  0.00    -0.049 Br
ATOM     13  H   UNL     1       5.871   1.500  -4.628  0.00  0.00    +0.163 HD
ATOM     14  H   UNL     1       3.510  -0.190  -7.673  0.00  0.00    +0.162 HD
ENDBRANCH   2   3
BRANCH   1  17
ATOM     15  C   UNL     1       0.335  -0.961  -1.363  0.00  0.00    +0.162 A 
ATOM     16  C   UNL     1       1.040  -0.096  -2.175  0.00  0.00    +0.057 A 
ATOM     17  C   UNL     1       1.641  -0.573  -3.345  0.00  0.00    -0.020 A 
ATOM     18  C   UNL     1       1.524  -1.925  -3.686  0.00  0.00    +0.012 A 
ATOM     19  C   UNL     1       0.818  -2.782  -2.869  0.00  0.00    +0.050 A 
ATOM     20  C   UNL     1       0.227  -2.308  -1.706  0.00  0.00    +0.162 A 
BRANCH  15  22
ATOM     21  C   UNL     1      -0.099   0.890   0.065  0.00  0.00    +0.277 C 
ATOM     22  O   UNL     1      -0.250  -0.501  -0.225  0.00  0.00    -0.491 OA
ENDBRANCH  15  22
BRANCH  20  23
ATOM     23  O   UNL     1      -0.464  -3.159  -0.902  0.00  0.00    -0.484 OA
BRANCH  23  24
ATOM     24  C   UNL     1      -0.535  -4.525  -1.313  0.00  0.00    +0.256 C 
BRANCH  24  25
ATOM     25  C   UNL     1      -1.335  -5.311  -0.306  0.00  0.00    +0.006 C 
ATOM     26  C   UNL     1      -2.246  -6.161  -0.712  0.00  0.00    +0.007 C 
ENDBRANCH  24  25
ENDBRANCH  23  24
ENDBRANCH  20  23
ENDBRANCH   1  17
BRANCH   2  27
ATOM     27  C   UNL     1       4.063  -1.368  -4.519  0.00  0.00    +0.099 C 
ATOM     28  N   UNL     1       4.495  -2.388  -4.272  0.00  0.00    -0.191 NA
ENDBRANCH   2  27
TORSDOF 7
