REMARK  Name = ZINC62949203
REMARK  7 active torsions:
REMARK  status: ('A' for Active; 'I' for Inactive)
REMARK    1  A    between atoms: C_1  and  C_2
REMARK    2  A    between atoms: C_5  and  C_8
REMARK    3  A    between atoms: C_8  and  O_19
REMARK    4  A    between atoms: C_13  and  C_15
REMARK    5  A    between atoms: C_15  and  C_16
REMARK    6  A    between atoms: C_15  and  C_17
REMARK    7  A    between atoms: C_15  and  C_18
REMARK                            x       y       z     vdW  Elec       q    Type
REMARK                         _______ _______ _______ _____ _____    ______ ____
ROOT
ATOM      1  C   UNL     1      -0.033  -4.961   1.274  0.00  0.00    +0.096 C 
ATOM      2  C   UNL     1      -0.989  -5.898   2.015  0.00  0.00    +0.040 C 
ATOM      3  C   UNL     1      -0.509  -7.343   1.863  0.00  0.00    +0.003 C 
ATOM      4  C   UNL     1       0.897  -7.478   2.452  0.00  0.00    +0.000 C 
ATOM      5  C   UNL     1       1.853  -6.541   1.710  0.00  0.00    +0.007 C 
ATOM      6  C   UNL     1       1.372  -5.096   1.863  0.00  0.00    +0.031 C 
ENDROOT
BRANCH   1  11
ATOM      7  C   UNL     1      -1.816   0.440   1.992  0.00  0.00    +0.065 C 
ATOM      8  C   UNL     1      -1.351  -0.977   1.778  0.00  0.00    +0.038 A 
ATOM      9  C   UNL     1      -1.303  -1.494   0.496  0.00  0.00    +0.023 A 
ATOM     10  C   UNL     1      -0.873  -2.799   0.310  0.00  0.00    +0.010 A 
ATOM     11  C   UNL     1      -0.506  -3.538   1.425  0.00  0.00    +0.002 A 
ATOM     12  C   UNL     1      -0.581  -2.954   2.675  0.00  0.00    +0.117 A 
ATOM     13  N   UNL     1      -0.989  -1.708   2.814  0.00  0.00    -0.260 NA
ENDBRANCH   1  11
BRANCH   6  14
ATOM     14  C   UNL     1       2.328  -4.160   1.121  0.00  0.00    -0.032 C 
ATOM     15  C   UNL     1       1.963  -2.707   1.433  0.00  0.00    +0.011 C 
ATOM     16  C   UNL     1       3.764  -4.433   1.575  0.00  0.00    +0.011 C 
ATOM     17  C   UNL     1       2.214  -4.403  -0.385  0.00  0.00    +0.011 C 
ENDBRANCH   6  14
BRANCH   1  18
ATOM     18  O   UNL     1      -0.004  -5.310  -0.112  0.00  0.00    -0.384 OA
ATOM     19  H   UNL     1      -0.864  -5.247  -0.551  0.00  0.00    +0.211 HD
ENDBRANCH   1  18
TORSDOF 3
