REMARK  Name = ZINC35229752
REMARK  6 active torsions:
REMARK  status: ('A' for Active; 'I' for Inactive)
REMARK    1  A    between atoms: C_4  and  C_7
REMARK    2  A    between atoms: C_21  and  C_23
REMARK    3  A    between atoms: C_23  and  N_24
REMARK    4  A    between atoms: N_24  and  C_25
REMARK    5  A    between atoms: C_28  and  C_30
REMARK    6  A    between atoms: C_33  and  N_36
REMARK                            x       y       z     vdW  Elec       q    Type
REMARK                         _______ _______ _______ _____ _____    ______ ____
ROOT
ATOM      1  C   UNL     1       4.319   0.369   0.207  0.00  0.00    +0.159 C 
ATOM      2  C   UNL     1       4.468  -0.251   1.575  0.00  0.00    +0.049 A 
ATOM      3  C   UNL     1       5.397  -0.034   2.513  0.00  0.00    +0.025 A 
ATOM      4  C   UNL     1       5.085  -0.860   3.615  0.00  0.00    +0.020 A 
ATOM      5  C   UNL     1       3.969  -1.556   3.301  0.00  0.00    +0.092 A 
ATOM      6  N   UNL     1       3.584  -1.194   2.053  0.00  0.00    -0.316 N 
ATOM      7  C   UNL     1       2.501  -1.634   1.278  0.00  0.00    +0.068 A 
ATOM      8  C   UNL     1       1.468  -2.373   1.821  0.00  0.00    +0.028 A 
ATOM      9  C   UNL     1       0.416  -2.777   1.018  0.00  0.00    +0.002 A 
ATOM     10  C   UNL     1       0.398  -2.440  -0.323  0.00  0.00    +0.002 A 
ATOM     11  C   UNL     1       1.430  -1.704  -0.874  0.00  0.00    +0.025 A 
ATOM     12  C   UNL     1       2.491  -1.298  -0.080  0.00  0.00    +0.061 A 
ATOM     13  N   UNL     1       3.556  -0.571  -0.631  0.00  0.00    -0.255 N 
ATOM     14  C   UNL     1       3.882  -0.732  -1.929  0.00  0.00    +0.238 C 
ATOM     15  O   UNL     1       3.310  -1.565  -2.599  0.00  0.00    -0.273 OA
ENDROOT
BRANCH   1  19
ATOM     16  C   UNL     1       2.212   4.072   0.515  0.00  0.00    +0.000 A 
ATOM     17  C   UNL     1       3.589   4.068   0.390  0.00  0.00    +0.000 A 
ATOM     18  C   UNL     1       4.271   2.870   0.291  0.00  0.00    +0.006 A 
ATOM     19  C   UNL     1       3.576   1.675   0.317  0.00  0.00    -0.021 A 
ATOM     20  C   UNL     1       2.199   1.679   0.443  0.00  0.00    +0.006 A 
ATOM     21  C   UNL     1       1.518   2.877   0.541  0.00  0.00    +0.000 A 
ENDBRANCH   1  19
BRANCH  14  22
ATOM     22  C   UNL     1       4.957   0.124  -2.547  0.00  0.00    +0.204 C 
BRANCH  22  23
ATOM     23  N   UNL     1       5.040  -0.157  -3.983  0.00  0.00    -0.286 N 
ATOM     24  C   UNL     1       6.106  -0.816  -4.480  0.00  0.00    +0.247 C 
ATOM     25  O   UNL     1       6.214  -0.981  -5.679  0.00  0.00    -0.270 OA
BRANCH  24  26
ATOM     26  C   UNL     1       7.145  -1.338  -3.566  0.00  0.00    +0.037 A 
ATOM     27  C   UNL     1       6.811  -1.699  -2.260  0.00  0.00    +0.015 A 
ATOM     28  C   UNL     1       7.785  -2.186  -1.412  0.00  0.00    +0.033 A 
ATOM     29  C   UNL     1       9.089  -2.317  -1.855  0.00  0.00    +0.126 A 
ATOM     30  C   UNL     1       9.427  -1.960  -3.149  0.00  0.00    +0.033 A 
ATOM     31  C   UNL     1       8.461  -1.478  -4.008  0.00  0.00    +0.015 A 
BRANCH  29  32
ATOM     32  N   UNL     1      10.129  -2.839  -0.940  0.00  0.00    +0.056 N 
ATOM     33  O   UNL     1       9.838  -3.151   0.191  0.00  0.00    -0.126 OA
ATOM     34  O   UNL     1      11.270  -2.954  -1.324  0.00  0.00    -0.126 OA
ENDBRANCH  29  32
ENDBRANCH  24  26
BRANCH  23  35
ATOM     35  C   UNL     1       3.965   0.277  -4.878  0.00  0.00    +0.077 C 
ATOM     36  C   UNL     1       3.896  -0.367  -6.264  0.00  0.00    +0.024 C 
ATOM     37  C   UNL     1       4.359   1.083  -6.117  0.00  0.00    +0.024 C 
ENDBRANCH  23  35
ENDBRANCH  22  23
ENDBRANCH  14  22
TORSDOF 6
