REMARK  Name = ZINC01463222
REMARK  5 active torsions:
REMARK  status: ('A' for Active; 'I' for Inactive)
REMARK    1  A    between atoms: C_3  and  C_10
REMARK    2  A    between atoms: C_5  and  N_7
REMARK    3  A    between atoms: C_10  and  C_12
REMARK    4  A    between atoms: C_10  and  N_23
REMARK    5  A    between atoms: C_21  and  O_22
REMARK                            x       y       z     vdW  Elec       q    Type
REMARK                         _______ _______ _______ _____ _____    ______ ____
ROOT
ATOM      1  C   UNL     1      -0.069   5.346   0.027  0.00  0.00    +0.136 C 
ENDROOT
BRANCH   1   2
ATOM      2  C   UNL     1      -0.415   5.903   1.384  0.00  0.00    +0.021 A 
ATOM      3  C   UNL     1      -1.746   6.163   1.699  0.00  0.00    +0.010 A 
ATOM      4  C   UNL     1      -2.091   6.667   2.916  0.00  0.00    +0.010 A 
ATOM      5  C   UNL     1      -1.095   6.928   3.870  0.00  0.00    +0.004 A 
ATOM      6  C   UNL     1      -1.413   7.449   5.139  0.00  0.00    +0.011 A 
ATOM      7  C   UNL     1      -0.392   7.678   6.016  0.00  0.00    +0.020 A 
ATOM      8  C   UNL     1       0.921   7.398   5.643  0.00  0.00    +0.111 A 
ATOM      9  N   UNL     1       1.213   6.913   4.461  0.00  0.00    -0.251 NA
ATOM     10  C   UNL     1       0.261   6.666   3.557  0.00  0.00    +0.113 A 
ATOM     11  C   UNL     1       0.582   6.140   2.288  0.00  0.00    +0.148 A 
BRANCH  11  12
ATOM     12  O   UNL     1       1.874   5.875   1.964  0.00  0.00    -0.504 OA
ATOM     13  H   UNL     1       2.338   6.619   1.556  0.00  0.00    +0.292 HD
ENDBRANCH  11  12
ENDBRANCH   1   2
BRANCH   1  14
ATOM     14  N   UNL     1      -1.101   5.734  -0.938  0.00  0.00    -0.313 N 
ATOM     15  C   UNL     1      -1.006   6.945  -1.605  0.00  0.00    +0.159 A 
ATOM     16  N   UNL     1      -1.773   7.426  -2.564  0.00  0.00    -0.233 NA
ATOM     17  C   UNL     1      -1.540   8.611  -3.096  0.00  0.00    +0.120 A 
ATOM     18  C   UNL     1      -0.490   9.331  -2.635  0.00  0.00    +0.068 A 
ATOM     19  S   UNL     1       0.149   8.223  -1.387  0.00  0.00    -0.061 S 
ATOM     20  H   UNL     1      -1.851   5.143  -1.110  0.00  0.00    +0.149 HD
ENDBRANCH   1  14
BRANCH   1  23
ATOM     21  C   UNL     1      -1.085   1.719   0.285  0.00  0.00    +0.003 A 
ATOM     22  C   UNL     1      -1.153   3.098   0.219  0.00  0.00    +0.006 A 
ATOM     23  C   UNL     1       0.006   3.843   0.105  0.00  0.00    -0.021 A 
ATOM     24  C   UNL     1       1.234   3.209   0.063  0.00  0.00    +0.038 A 
ATOM     25  C   UNL     1       1.302   1.830   0.135  0.00  0.00    +0.127 A 
ATOM     26  C   UNL     1       0.143   1.085   0.248  0.00  0.00    +0.033 A 
BRANCH  25  27
ATOM     27  N   UNL     1       2.617   1.151   0.089  0.00  0.00    +0.056 N 
ATOM     28  O   UNL     1       2.677  -0.064   0.152  0.00  0.00    -0.126 OA
ATOM     29  O   UNL     1       3.638   1.807  -0.011  0.00  0.00    -0.126 OA
ENDBRANCH  25  27
ENDBRANCH   1  23
TORSDOF 5
