REMARK  Name = ZINC09334762
REMARK  10 active torsions:
REMARK  status: ('A' for Active; 'I' for Inactive)
REMARK    1  A    between atoms: C_1  and  C_2
REMARK    2  A    between atoms: C_5  and  N_9
REMARK    3  A    between atoms: C_7  and  C_8
REMARK    4  A    between atoms: C_12  and  C_13
REMARK    5  A    between atoms: N_14  and  C_15
REMARK    6  A    between atoms: C_15  and  C_16
REMARK    7  A    between atoms: C_23  and  O_24
REMARK    8  A    between atoms: O_24  and  C_25
REMARK    9  A    between atoms: C_31  and  N_64
REMARK   10  A    between atoms: C_32  and  O_36
REMARK                            x       y       z     vdW  Elec       q    Type
REMARK                         _______ _______ _______ _____ _____    ______ ____
ROOT
ATOM      1  C   UNL     1       0.588  -7.156   2.213  0.00  0.00    +0.099 C 
ATOM      2  N   UNL     1       0.662  -8.493   2.082  0.00  0.00    -0.296 NA
ENDROOT
BRANCH   1   6
ATOM      3  N   UNL     1       0.323  -4.182   0.037  0.00  0.00    -0.192 N 
ATOM      4  C   UNL     1       0.497  -4.887   1.175  0.00  0.00    +0.245 C 
ATOM      5  O   UNL     1       0.708  -4.328   2.235  0.00  0.00    -0.274 OA
ATOM      6  C   UNL     1       0.421  -6.357   1.092  0.00  0.00    +0.199 C 
ATOM      7  C   UNL     1       0.161  -6.938  -0.232  0.00  0.00    +0.198 C 
ATOM      8  N   UNL     1       0.011  -6.120  -1.262  0.00  0.00    -0.131 NA
ATOM      9  C   UNL     1       0.084  -4.799  -1.130  0.00  0.00    +0.339 C 
ATOM     10  O   UNL     1      -0.069  -4.111  -2.124  0.00  0.00    -0.250 OA
BRANCH   3  15
ATOM     11  C   UNL     1       0.588   1.484   0.197  0.00  0.00    +0.044 C 
ATOM     12  C   UNL     1       0.517  -0.020   0.154  0.00  0.00    -0.047 A 
ATOM     13  C   UNL     1       1.478  -0.737  -0.536  0.00  0.00    +0.005 A 
ATOM     14  C   UNL     1       1.417  -2.116  -0.576  0.00  0.00    +0.024 A 
ATOM     15  C   UNL     1       0.389  -2.783   0.076  0.00  0.00    +0.046 A 
ATOM     16  C   UNL     1      -0.575  -2.061   0.768  0.00  0.00    +0.027 A 
ATOM     17  C   UNL     1      -0.505  -0.682   0.809  0.00  0.00    -0.046 A 
ATOM     18  C   UNL     1      -1.547   0.102   1.565  0.00  0.00    +0.044 C 
ENDBRANCH   3  15
BRANCH   7  19
ATOM     19  O   UNL     1       0.077  -8.275  -0.395  0.00  0.00    -0.496 OA
ATOM     20  H   UNL     1      -0.097  -8.550  -1.306  0.00  0.00    +0.293 HD
ENDBRANCH   7  19
ENDBRANCH   1   6
BRANCH   2  21
ATOM     21  C   UNL     1       0.838  -9.337   3.266  0.00  0.00    +0.130 C 
BRANCH  21  22
ATOM     22  C   UNL     1       0.766 -10.810   2.858  0.00  0.00    -0.012 C 
ATOM     23  C   UNL     1      -0.589 -11.096   2.266  0.00  0.00    -0.011 A 
ATOM     24  C   UNL     1      -0.741 -11.876   1.139  0.00  0.00    -0.040 A 
ATOM     25  C   UNL     1      -2.007 -12.120   0.630  0.00  0.00    +0.053 A 
ATOM     26  C   UNL     1      -3.127 -11.581   1.241  0.00  0.00    +0.170 A 
ATOM     27  C   UNL     1      -2.978 -10.791   2.376  0.00  0.00    +0.208 A 
ATOM     28  C   UNL     1      -1.710 -10.551   2.885  0.00  0.00    +0.167 A 
ATOM     29  O   UNL     1      -4.215 -10.381   2.788  0.00  0.00    -0.449 OA
ATOM     30  C   UNL     1      -5.148 -11.262   2.136  0.00  0.00    +0.467 C 
ATOM     31  O   UNL     1      -4.455 -11.668   0.940  0.00  0.00    -0.452 OA
ATOM     32  C   UNL     1       0.445 -12.480   0.430  0.00  0.00    +0.017 C 
ATOM     33  C   UNL     1       1.669 -12.456   1.347  0.00  0.00    -0.074 C 
ATOM     34  C   UNL     1       3.153 -10.912   2.481  0.00  0.00    -0.095 C 
ATOM     35  N   UNL     1       1.819 -11.080   1.865  0.00  0.00    +0.384 N 
ATOM     36  H   UNL     1       1.724 -10.417   1.087  0.00  0.00    -0.081 HD
BRANCH  28  37
ATOM     37  O   UNL     1      -1.561  -9.779   3.995  0.00  0.00    -0.491 OA
ATOM     38  C   UNL     1      -1.504 -10.455   5.252  0.00  0.00    +0.277 C 
ENDBRANCH  28  37
ENDBRANCH  21  22
ENDBRANCH   2  21
TORSDOF 6
