REMARK  Name = ZINC59723582
REMARK  9 active torsions:
REMARK  status: ('A' for Active; 'I' for Inactive)
REMARK    1  A    between atoms: C_1  and  C_2
REMARK    2  A    between atoms: C_2  and  N_3
REMARK    3  A    between atoms: N_6  and  C_9
REMARK    4  A    between atoms: C_10  and  N_16
REMARK    5  A    between atoms: N_16  and  C_17
REMARK    6  A    between atoms: C_17  and  N_19
REMARK    7  A    between atoms: C_20  and  C_22
REMARK    8  A    between atoms: C_25  and  N_31
REMARK    9  A    between atoms: C_26  and  N_28
REMARK                            x       y       z     vdW  Elec       q    Type
REMARK                         _______ _______ _______ _____ _____    ______ ____
ROOT
ATOM      1  C   UNL     1       3.893  -2.522   6.529  0.00  0.00    +0.141 C 
ATOM      2  S   UNL     1       3.561  -3.580   7.834  0.00  0.00    -0.018 S 
ENDROOT
BRANCH   1   3
ATOM      3  N   UNL     1       5.045  -1.823   6.506  0.00  0.00    -0.264 N 
ATOM      4  C   UNL     1       5.935  -1.956   7.509  0.00  0.00    +0.250 C 
ATOM      5  O   UNL     1       5.699  -2.707   8.436  0.00  0.00    -0.270 OA
ATOM      6  H   UNL     1       5.234  -1.223   5.767  0.00  0.00    +0.157 HD
BRANCH   4   7
ATOM      7  C   UNL     1       7.195  -1.190   7.484  0.00  0.00    +0.039 A 
ATOM      8  C   UNL     1       7.465  -0.322   6.422  0.00  0.00    +0.015 A 
ATOM      9  C   UNL     1       8.633   0.387   6.399  0.00  0.00    +0.026 A 
ATOM     10  C   UNL     1       9.557   0.248   7.430  0.00  0.00    +0.060 A 
ATOM     11  C   UNL     1       9.296  -0.614   8.492  0.00  0.00    +0.148 A 
ATOM     12  C   UNL     1       8.119  -1.327   8.524  0.00  0.00    +0.047 A 
BRANCH  10  13
ATOM     13  N   UNL     1      10.744   0.972   7.400  0.00  0.00    -0.328 N 
ATOM     14  C   UNL     1      12.002   0.529   6.782  0.00  0.00    +0.105 C 
ATOM     15  C   UNL     1      13.045   1.642   7.018  0.00  0.00    +0.020 C 
ATOM     16  C   UNL     1      12.473   2.401   8.244  0.00  0.00    +0.020 C 
ATOM     17  C   UNL     1      10.947   2.313   7.977  0.00  0.00    +0.105 C 
ENDBRANCH  10  13
BRANCH  11  18
ATOM     18  N   UNL     1      10.281  -0.760   9.587  0.00  0.00    +0.058 N 
ATOM     19  O   UNL     1      10.054  -1.509  10.509  0.00  0.00    -0.126 OA
ATOM     20  O   UNL     1      11.312  -0.130   9.561  0.00  0.00    -0.126 OA
ENDBRANCH  11  18
ENDBRANCH   4   7
ENDBRANCH   1   3
BRANCH   1  21
ATOM     21  N   UNL     1       3.003  -2.389   5.526  0.00  0.00    -0.295 N 
ATOM     22  H   UNL     1       3.219  -1.839   4.757  0.00  0.00    +0.154 HD
BRANCH  21  24
ATOM     23  C   UNL     1       0.591  -2.354   5.307  0.00  0.00    +0.070 A 
ATOM     24  C   UNL     1       1.768  -3.046   5.594  0.00  0.00    +0.055 A 
ATOM     25  C   UNL     1       1.711  -4.386   5.946  0.00  0.00    +0.025 A 
ATOM     26  C   UNL     1       0.491  -5.033   6.012  0.00  0.00    +0.003 A 
ATOM     27  C   UNL     1      -0.676  -4.348   5.727  0.00  0.00    +0.022 A 
ATOM     28  C   UNL     1      -0.630  -3.009   5.381  0.00  0.00    +0.064 A 
ATOM     29 CL   UNL     1      -2.098  -2.151   5.032  0.00  0.00    -0.082 Cl
BRANCH  23  33
ATOM     30  N   UNL     1      -0.213   1.552   4.200  0.00  0.00    +0.382 N 
ATOM     31  C   UNL     1      -0.504   1.064   5.554  0.00  0.00    -0.060 C 
ATOM     32  C   UNL     1       0.569   0.054   5.973  0.00  0.00    +0.086 C 
ATOM     33  N   UNL     1       0.642  -1.001   4.950  0.00  0.00    -0.331 N 
ATOM     34  C   UNL     1       0.769  -0.594   3.543  0.00  0.00    +0.086 C 
ATOM     35  C   UNL     1      -0.313   0.447   3.238  0.00  0.00    -0.060 C 
ATOM     36  H   UNL     1       0.721   1.933   4.176  0.00  0.00    -0.082 HD
BRANCH  30  38
ATOM     37  C   UNL     1      -0.990   3.804   4.766  0.00  0.00    -0.017 C 
ATOM     38  C   UNL     1      -1.178   2.600   3.841  0.00  0.00    -0.082 C 
ENDBRANCH  30  38
ENDBRANCH  23  33
ENDBRANCH  21  24
ENDBRANCH   1  21
TORSDOF 8
