REMARK  Name = ZINC20310462
REMARK  13 active torsions:
REMARK  status: ('A' for Active; 'I' for Inactive)
REMARK    1  A    between atoms: C_1  and  C_2
REMARK    2  A    between atoms: C_2  and  O_4
REMARK    3  A    between atoms: O_4  and  C_5
REMARK    4  A    between atoms: C_5  and  C_6
REMARK    5  A    between atoms: C_6  and  C_8
REMARK    6  A    between atoms: C_8  and  O_36
REMARK    7  A    between atoms: C_13  and  C_35
REMARK    8  A    between atoms: C_15  and  C_31
REMARK    9  A    between atoms: C_29  and  C_30
REMARK   10  A    between atoms: C_31  and  O_33
REMARK   11  A    between atoms: O_33  and  C_34
REMARK   12  A    between atoms: O_36  and  C_37
REMARK   13  A    between atoms: C_37  and  C_39
REMARK                            x       y       z     vdW  Elec       q    Type
REMARK                         _______ _______ _______ _____ _____    ______ ____
ROOT
ATOM      1  C   UNL     1      -5.757   1.446   0.819  0.00  0.00    +0.180 C 
ATOM      2  C   UNL     1      -6.861   1.566   1.887  0.00  0.00    +0.057 C 
ATOM      3  C   UNL     1      -8.066   2.251   1.206  0.00  0.00    +0.009 C 
ATOM      4  C   UNL     1      -7.732   2.229  -0.299  0.00  0.00    +0.003 C 
ATOM      5  C   UNL     1      -6.200   2.387  -0.333  0.00  0.00    +0.019 C 
ATOM      6  C   UNL     1      -5.841   3.817   0.041  0.00  0.00    +0.026 C 
ATOM      7  C   UNL     1      -6.481   4.832  -0.924  0.00  0.00    +0.103 C 
ATOM      8  C   UNL     1      -7.990   4.710  -0.895  0.00  0.00    +0.020 C 
ATOM      9  C   UNL     1      -8.476   3.283  -1.066  0.00  0.00    -0.002 C 
ATOM     10  C   UNL     1      -8.565   2.938  -2.557  0.00  0.00    +0.008 C 
ATOM     11  C   UNL     1      -9.830   3.625  -3.079  0.00  0.00    +0.032 C 
ATOM     12  C   UNL     1      -9.856   5.057  -2.595  0.00  0.00    -0.056 C 
ATOM     13  C   UNL     1     -10.919   5.780  -2.979  0.00  0.00    +0.051 C 
ATOM     14  C   UNL     1     -11.080   7.170  -2.509  0.00  0.00    +0.179 C 
ATOM     15  O   UNL     1     -11.921   7.917  -3.003  0.00  0.00    -0.288 OA
ATOM     16  C   UNL     1     -10.210   7.630  -1.405  0.00  0.00    +0.047 C 
ATOM     17  C   UNL     1      -9.141   6.907  -1.063  0.00  0.00    -0.012 C 
ATOM     18  C   UNL     1      -8.751   5.659  -1.793  0.00  0.00    +0.012 C 
ATOM     19  C   UNL     1      -7.797   6.144  -2.888  0.00  0.00    +0.020 C 
ATOM     20  C   UNL     1      -5.595   1.953  -1.669  0.00  0.00    +0.016 C 
ENDROOT
BRANCH   1  21
ATOM     21  C   UNL     1      -4.425   1.843   1.388  0.00  0.00    +0.214 C 
ATOM     22  O   UNL     1      -4.370   2.614   2.316  0.00  0.00    -0.289 OA
BRANCH  21  23
ATOM     23  C   UNL     1      -3.156   1.279   0.802  0.00  0.00    +0.310 C 
BRANCH  23  24
ATOM     24  O   UNL     1      -2.010   1.903   1.438  0.00  0.00    -0.457 OA
BRANCH  24  26
ATOM     25  C   UNL     1       0.442   2.116   1.637  0.00  0.00    +0.136 C 
ATOM     26  C   UNL     1      -0.795   1.508   1.027  0.00  0.00    +0.304 C 
ATOM     27  O   UNL     1      -0.692   0.669   0.163  0.00  0.00    -0.251 OA
ENDBRANCH  24  26
ENDBRANCH  23  24
ENDBRANCH  21  23
ENDBRANCH   1  21
BRANCH   7  28
ATOM     28  C   UNL     1      -6.031   6.188  -0.406  0.00  0.00    +0.310 C 
ATOM     29  O   UNL     1      -6.561   6.669   0.568  0.00  0.00    -0.251 OA
BRANCH  28  30
ATOM     30  O   UNL     1      -5.046   6.852  -1.030  0.00  0.00    -0.468 OA
ATOM     31  C   UNL     1      -4.669   8.142  -0.480  0.00  0.00    +0.280 C 
ENDBRANCH  28  30
ENDBRANCH   7  28
BRANCH   1  32
ATOM     32  O   UNL     1      -5.696   0.075   0.333  0.00  0.00    -0.450 OA
BRANCH  32  33
ATOM     33  C   UNL     1      -5.384  -0.876   1.228  0.00  0.00    +0.305 C 
ATOM     34  O   UNL     1      -5.206  -0.580   2.385  0.00  0.00    -0.251 OA
ATOM     35  C   UNL     1      -5.256  -2.312   0.788  0.00  0.00    +0.136 C 
ENDBRANCH  32  33
ENDBRANCH   1  32
TORSDOF 8
