REMARK  Name = ZINC07289772
REMARK  9 active torsions:
REMARK  status: ('A' for Active; 'I' for Inactive)
REMARK    1  A    between atoms: C_1  and  C_2
REMARK    2  A    between atoms: C_2  and  C_3
REMARK    3  A    between atoms: C_3  and  C_4
REMARK    4  A    between atoms: C_3  and  C_5
REMARK    5  A    between atoms: C_3  and  N_6
REMARK    6  A    between atoms: C_7  and  C_9
REMARK    7  A    between atoms: C_9  and  N_10
REMARK    8  A    between atoms: C_13  and  C_17
REMARK    9  A    between atoms: C_13  and  C_18
REMARK                            x       y       z     vdW  Elec       q    Type
REMARK                         _______ _______ _______ _____ _____    ______ ____
ROOT
ATOM      1  N   UNL     1      -0.698   1.558   1.213  0.00  0.00    -0.215 N 
ATOM      2  C   UNL     1      -0.418   2.719   1.838  0.00  0.00    +0.251 C 
ATOM      3  O   UNL     1       0.418   3.538   1.521  0.00  0.00    -0.272 OA
ATOM      4  C   UNL     1      -1.366   2.788   3.019  0.00  0.00    +0.135 C 
ATOM      5  N   UNL     1      -2.138   1.538   2.917  0.00  0.00    -0.281 N 
ATOM      6  C   UNL     1      -1.677   0.888   1.833  0.00  0.00    +0.310 C 
ATOM      7  O   UNL     1      -2.101  -0.188   1.459  0.00  0.00    -0.252 OA
ATOM      8  C   UNL     1      -2.290   4.002   2.906  0.00  0.00    +0.047 C 
ATOM      9  H   UNL     1      -2.842   1.241   3.514  0.00  0.00    +0.152 HD
ENDROOT
BRANCH   4  10
ATOM     10  C   UNL     1      -0.593   2.830   4.312  0.00  0.00    -0.012 A 
ATOM     11  C   UNL     1       0.624   3.484   4.368  0.00  0.00    +0.010 A 
ATOM     12  C   UNL     1       1.334   3.529   5.553  0.00  0.00    +0.050 A 
ATOM     13  C   UNL     1       0.832   2.910   6.686  0.00  0.00    +0.166 A 
ATOM     14  C   UNL     1      -0.391   2.247   6.629  0.00  0.00    +0.167 A 
ATOM     15  C   UNL     1      -1.100   2.210   5.439  0.00  0.00    +0.055 A 
ATOM     16  O   UNL     1      -0.663   1.725   7.861  0.00  0.00    -0.453 OA
ATOM     17  C   UNL     1       0.206   2.422   8.773  0.00  0.00    +0.466 C 
ATOM     18  O   UNL     1       1.327   2.804   7.954  0.00  0.00    -0.453 OA
ENDBRANCH   4  10
BRANCH   1  19
ATOM     19  C   UNL     1      -0.013   1.086   0.008  0.00  0.00    +0.213 C 
BRANCH  19  21
ATOM     20  N   UNL     1      -0.288   1.272  -2.443  0.00  0.00    -0.309 N 
ATOM     21  C   UNL     1      -0.742   1.585  -1.213  0.00  0.00    +0.231 C 
ATOM     22  O   UNL     1      -1.736   2.268  -1.088  0.00  0.00    -0.274 OA
ATOM     23  H   UNL     1       0.507   0.726  -2.543  0.00  0.00    +0.149 HD
BRANCH  20  24
ATOM     24  C   UNL     1      -0.997   1.758  -3.630  0.00  0.00    +0.029 C 
ATOM     25  C   UNL     1      -2.432   1.228  -3.619  0.00  0.00    +0.031 C 
ATOM     26  C   UNL     1      -1.018   3.288  -3.622  0.00  0.00    +0.031 C 
BRANCH  24  28
ATOM     27  C   UNL     1      -1.021   1.771  -6.128  0.00  0.00    +0.006 C 
ATOM     28  C   UNL     1      -0.281   1.264  -4.889  0.00  0.00    +0.022 C 
ENDBRANCH  24  28
ENDBRANCH  20  24
ENDBRANCH  19  21
ENDBRANCH   1  19
TORSDOF 5
