REMARK  Name = ZINC21997699
REMARK  5 active torsions:
REMARK  status: ('A' for Active; 'I' for Inactive)
REMARK    1  A    between atoms: C_1  and  N_2
REMARK    2  A    between atoms: C_15  and  C_16
REMARK    3  A    between atoms: C_16  and  S_17
REMARK    4  A    between atoms: S_17  and  C_18
REMARK    5  A    between atoms: C_21  and  C_24
REMARK                            x       y       z     vdW  Elec       q    Type
REMARK                         _______ _______ _______ _____ _____    ______ ____
ROOT
ATOM      1  C   UNL     1      -8.123  -2.567  -0.853  0.00  0.00    +0.155 C 
ATOM      2  N   UNL     1      -6.950  -1.891  -1.414  0.00  0.00    -0.280 N 
ATOM      3  C   UNL     1      -6.875  -1.686  -2.746  0.00  0.00    +0.263 A 
ATOM      4  O   UNL     1      -7.765  -2.067  -3.482  0.00  0.00    -0.267 OA
ATOM      5  C   UNL     1      -5.690  -1.002  -3.295  0.00  0.00    +0.063 A 
ATOM      6  C   UNL     1      -5.554  -0.773  -4.662  0.00  0.00    +0.015 A 
ATOM      7  C   UNL     1      -4.430  -0.129  -5.137  0.00  0.00    +0.001 A 
ATOM      8  C   UNL     1      -3.440   0.289  -4.261  0.00  0.00    +0.002 A 
ATOM      9  C   UNL     1      -3.563   0.066  -2.904  0.00  0.00    +0.027 A 
ATOM     10  C   UNL     1      -4.686  -0.579  -2.409  0.00  0.00    +0.063 A 
ATOM     11  N   UNL     1      -4.840  -0.818  -1.049  0.00  0.00    -0.264 N 
ATOM     12  C   UNL     1      -5.946  -1.456  -0.570  0.00  0.00    +0.239 A 
ATOM     13  N   UNL     1      -5.808  -1.526   0.736  0.00  0.00    -0.110 NA
ATOM     14  N   UNL     1      -4.697  -0.983   1.088  0.00  0.00    -0.131 NA
ATOM     15  C   UNL     1      -4.064  -0.537   0.039  0.00  0.00    +0.150 A 
ENDROOT
BRANCH  15  16
ATOM     16  C   UNL     1      -2.729   0.163   0.030  0.00  0.00    +0.154 C 
BRANCH  16  17
ATOM     17  S   UNL     1      -2.987   1.954  -0.016  0.00  0.00    -0.079 S 
BRANCH  17  18
ATOM     18  C   UNL     1      -1.314   2.504  -0.019  0.00  0.00    +0.185 A 
ATOM     19  N   UNL     1      -0.887   3.803  -0.049  0.00  0.00    -0.200 NA
ATOM     20  H   UNL     1      -0.159   0.647   0.034  0.00  0.00    +0.191 HD
ATOM     21  C   UNL     1       0.488   3.742  -0.039  0.00  0.00    +0.189 A 
ATOM     22  N   UNL     1       0.817   2.470  -0.005  0.00  0.00    -0.151 NA
ATOM     23  N   UNL     1      -0.243   1.743   0.006  0.00  0.00    -0.253 N 
BRANCH  21  24
ATOM     24  C   UNL     1       1.416   4.885  -0.062  0.00  0.00    +0.058 A 
ATOM     25  C   UNL     1       2.788   4.886  -0.047  0.00  0.00    +0.019 A 
ATOM     26  C   UNL     1       3.448   6.094  -0.079  0.00  0.00    +0.008 A 
ATOM     27  C   UNL     1       2.725   7.243  -0.112  0.00  0.00    +0.046 A 
ATOM     28  S   UNL     1       1.048   6.632  -0.107  0.00  0.00    -0.093 S 
ENDBRANCH  21  24
ENDBRANCH  17  18
ENDBRANCH  16  17
ENDBRANCH  15  16
TORSDOF 4
