REMARK  Name = ZINC09142632
REMARK  9 active torsions:
REMARK  status: ('A' for Active; 'I' for Inactive)
REMARK    1  A    between atoms: C_1  and  C_2
REMARK    2  A    between atoms: C_5  and  S_8
REMARK    3  A    between atoms: S_8  and  N_11
REMARK    4  A    between atoms: N_11  and  C_12
REMARK    5  A    between atoms: C_12  and  C_13
REMARK    6  A    between atoms: C_13  and  C_14
REMARK    7  A    between atoms: C_20  and  C_22
REMARK    8  A    between atoms: N_27  and  C_29
REMARK    9  A    between atoms: C_33  and  C_35
REMARK                            x       y       z     vdW  Elec       q    Type
REMARK                         _______ _______ _______ _____ _____    ______ ____
ROOT
ATOM      1  C   UNL     1       4.814   0.254   0.002  0.00  0.00    +0.105 A 
ATOM      2  N   UNL     1       3.772  -0.554   0.013  0.00  0.00    -0.145 NA
ATOM      3  N   UNL     1       2.598  -0.091   0.018  0.00  0.00    -0.126 NA
ATOM      4  C   UNL     1       2.360   1.209   0.011  0.00  0.00    +0.188 A 
ATOM      5  S   UNL     1       3.982   1.838  -0.011  0.00  0.00    -0.035 S 
ATOM      6  N   UNL     1       1.146   1.888   0.013  0.00  0.00    -0.263 N 
ATOM      7  C   UNL     1      -0.011   1.198   0.025  0.00  0.00    +0.224 C 
ATOM      8  O   UNL     1       0.005  -0.014   0.033  0.00  0.00    -0.275 OA
ATOM      9  H   UNL     1       1.133   2.858   0.007  0.00  0.00    +0.157 HD
ENDROOT
BRANCH   7  10
ATOM     10  C   UNL     1      -1.327   1.934   0.022  0.00  0.00    +0.102 C 
ATOM     11  C   UNL     1      -1.540   2.693   1.352  0.00  0.00    +0.110 C 
ATOM     12  C   UNL     1      -3.021   2.555   1.625  0.00  0.00    +0.221 C 
ATOM     13  O   UNL     1      -3.648   3.232   2.412  0.00  0.00    -0.275 OA
ATOM     14  N   UNL     1      -3.541   1.574   0.868  0.00  0.00    -0.271 N 
ATOM     15  C   UNL     1      -2.513   0.945   0.030  0.00  0.00    +0.127 C 
BRANCH  14  16
ATOM     16  C   UNL     1      -4.890   1.200   0.877  0.00  0.00    +0.037 A 
ATOM     17  C   UNL     1      -5.356   0.254  -0.027  0.00  0.00    +0.023 A 
ATOM     18  C   UNL     1      -6.687  -0.113  -0.015  0.00  0.00    +0.002 A 
ATOM     19  C   UNL     1      -7.556   0.460   0.896  0.00  0.00    +0.003 A 
ATOM     20  C   UNL     1      -7.095   1.402   1.797  0.00  0.00    -0.049 A 
ATOM     21  C   UNL     1      -5.763   1.769   1.794  0.00  0.00    +0.027 A 
ATOM     22  C   UNL     1      -8.045   2.024   2.788  0.00  0.00    +0.044 C 
ENDBRANCH  14  16
ENDBRANCH   7  10
BRANCH   1  23
ATOM     23  C   UNL     1       6.286  -0.065  -0.005  0.00  0.00    +0.081 C 
BRANCH  23  24
ATOM     24  C   UNL     1       6.776  -0.183  -1.449  0.00  0.00    +0.112 C 
BRANCH  24  25
ATOM     25  N   UNL     1       8.208  -0.494  -1.456  0.00  0.00    -0.190 NA
ATOM     26  H   UNL     1       8.733  -0.379  -0.648  0.00  0.00    +0.148 HD
BRANCH  25  27
ATOM     27  S   UNL     1       8.930  -1.042  -2.842  0.00  0.00    +0.058 S 
ATOM     28  O   UNL     1      10.306  -1.224  -2.538  0.00  0.00    -0.153 OA
ATOM     29  O   UNL     1       8.113  -2.094  -3.337  0.00  0.00    -0.153 OA
BRANCH  27  34
ATOM     30  C   UNL     1       8.634   3.421  -6.892  0.00  0.00    +0.044 C 
ATOM     31  C   UNL     1       8.708   2.306  -5.881  0.00  0.00    -0.050 A 
ATOM     32  C   UNL     1       9.795   2.214  -5.032  0.00  0.00    +0.005 A 
ATOM     33  C   UNL     1       9.863   1.191  -4.104  0.00  0.00    +0.029 A 
ATOM     34  C   UNL     1       8.843   0.262  -4.024  0.00  0.00    +0.105 A 
ATOM     35  C   UNL     1       7.758   0.351  -4.876  0.00  0.00    +0.029 A 
ATOM     36  C   UNL     1       7.688   1.376  -5.801  0.00  0.00    +0.005 A 
ENDBRANCH  27  34
ENDBRANCH  25  27
ENDBRANCH  24  25
ENDBRANCH  23  24
ENDBRANCH   1  23
TORSDOF 7
