REMARK  Name = ZINC00988957
REMARK  7 active torsions:
REMARK  status: ('A' for Active; 'I' for Inactive)
REMARK    1  A    between atoms: C_1  and  O_2
REMARK    2  A    between atoms: O_2  and  C_3
REMARK    3  A    between atoms: C_3  and  C_5
REMARK    4  A    between atoms: C_11  and  C_12
REMARK    5  A    between atoms: C_20  and  N_33
REMARK    6  A    between atoms: C_21  and  C_31
REMARK    7  A    between atoms: C_22  and  C_24
REMARK                            x       y       z     vdW  Elec       q    Type
REMARK                         _______ _______ _______ _____ _____    ______ ____
ROOT
ATOM      1  C   UNL     1       0.502   2.337  -0.893  0.00  0.00    +0.080 C 
ATOM      2  C   UNL     1       1.265   3.012   0.022  0.00  0.00    +0.100 A 
ATOM      3  N   UNL     1       0.774   3.554   1.192  0.00  0.00    -0.257 N 
ATOM      4  C   UNL     1       1.645   4.192   2.000  0.00  0.00    +0.271 A 
ATOM      5  O   UNL     1       1.273   4.690   3.046  0.00  0.00    -0.266 OA
ATOM      6  C   UNL     1       3.051   4.271   1.588  0.00  0.00    +0.080 A 
ATOM      7  C   UNL     1       4.103   4.850   2.220  0.00  0.00    +0.031 C 
ATOM      8  S   UNL     1       3.004   3.397   0.032  0.00  0.00    -0.065 S 
ATOM      9  C   UNL     1      -0.588   3.419   1.486  0.00  0.00    +0.118 C 
ATOM     10  C   UNL     1      -1.471   2.782   0.687  0.00  0.00    +0.079 C 
ATOM     11  C   UNL     1      -0.978   2.171  -0.609  0.00  0.00    +0.105 C 
ENDROOT
BRANCH   7  12
ATOM     12  C   UNL     1       5.403   4.948   1.544  0.00  0.00    +0.011 A 
ATOM     13  C   UNL     1       5.485   4.809   0.153  0.00  0.00    +0.011 A 
ATOM     14  C   UNL     1       6.709   4.903  -0.474  0.00  0.00    +0.001 A 
ATOM     15  C   UNL     1       7.856   5.134   0.266  0.00  0.00    +0.003 A 
ATOM     16  C   UNL     1       7.787   5.273   1.640  0.00  0.00    +0.039 A 
ATOM     17  C   UNL     1       6.568   5.187   2.286  0.00  0.00    +0.131 A 
ATOM     18  F   UNL     1       6.500   5.328   3.628  0.00  0.00    -0.205 F 
ENDBRANCH   7  12
BRANCH  11  19
ATOM     19  C   UNL     1      -1.749   2.795  -1.743  0.00  0.00    +0.001 A 
ATOM     20  C   UNL     1      -1.641   4.151  -1.990  0.00  0.00    +0.007 A 
ATOM     21  C   UNL     1      -2.348   4.723  -3.030  0.00  0.00    +0.000 A 
ATOM     22  C   UNL     1      -3.163   3.941  -3.827  0.00  0.00    +0.003 A 
ATOM     23  C   UNL     1      -3.274   2.585  -3.582  0.00  0.00    +0.038 A 
ATOM     24  C   UNL     1      -2.562   2.010  -2.543  0.00  0.00    +0.127 A 
ATOM     25  F   UNL     1      -2.664   0.683  -2.307  0.00  0.00    -0.205 F 
ENDBRANCH  11  19
BRANCH   9  26
ATOM     26  N   UNL     1      -1.054   3.966   2.657  0.00  0.00    -0.343 N 
ATOM     27  H   UNL     1      -2.119   3.879   2.919  0.00  0.00    +0.144 HD
ATOM     28  H   UNL     1      -0.362   4.492   3.332  0.00  0.00    +0.144 HD
ENDBRANCH   9  26
BRANCH   1  29
ATOM     29  C   UNL     1       1.073   1.814  -2.061  0.00  0.00    +0.338 C 
ATOM     30  O   UNL     1       2.265   1.957  -2.273  0.00  0.00    -0.245 OA
BRANCH  29  32
ATOM     31  C   UNL     1       0.953   0.644  -4.119  0.00  0.00    +0.280 C 
ATOM     32  O   UNL     1       0.304   1.151  -2.951  0.00  0.00    -0.465 OA
ENDBRANCH  29  32
ENDBRANCH   1  29
BRANCH  10  33
ATOM     33  C   UNL     1      -2.850   2.686   1.058  0.00  0.00    +0.099 C 
ATOM     34  N   UNL     1      -3.945   2.610   1.353  0.00  0.00    -0.191 NA
ENDBRANCH  10  33
TORSDOF 6
