REMARK  Name = ZINC20634334
REMARK  6 active torsions:
REMARK  status: ('A' for Active; 'I' for Inactive)
REMARK    1  A    between atoms: C_1  and  C_2
REMARK    2  A    between atoms: C_11  and  C_12
REMARK    3  A    between atoms: N_17  and  C_20
REMARK    4  A    between atoms: C_20  and  C_21
REMARK    5  A    between atoms: C_21  and  O_22
REMARK    6  A    between atoms: O_22  and  C_23
REMARK                            x       y       z     vdW  Elec       q    Type
REMARK                         _______ _______ _______ _____ _____    ______ ____
ROOT
ATOM      1  C   UNL     1      -0.018   1.503   0.010  0.00  0.00    +0.046 C 
ATOM      2  C   UNL     1       0.002  -0.004   0.002  0.00  0.00    -0.024 A 
ATOM      3  C   UNL     1       0.006  -0.683  -1.179  0.00  0.00    +0.005 A 
ATOM      4  C   UNL     1       0.025  -2.075  -1.208  0.00  0.00    +0.001 A 
ATOM      5  C   UNL     1       0.040  -2.800  -0.054  0.00  0.00    +0.012 A 
ATOM      6  C   UNL     1       0.037  -2.134   1.179  0.00  0.00    +0.022 A 
ATOM      7  C   UNL     1       0.023  -0.716   1.210  0.00  0.00    +0.079 A 
ATOM      8  N   UNL     1       0.026  -0.097   2.397  0.00  0.00    -0.214 NA
ATOM      9  C   UNL     1       0.046  -0.801   3.512  0.00  0.00    +0.222 A 
ATOM     10  N   UNL     1       0.064  -2.132   3.520  0.00  0.00    -0.219 NA
ATOM     11  C   UNL     1       0.053  -2.829   2.404  0.00  0.00    +0.051 A 
ATOM     12  C   UNL     1       0.073  -4.336   2.434  0.00  0.00    +0.066 C 
ATOM     13  N   UNL     1       0.048  -0.128   4.724  0.00  0.00    -0.256 N 
ATOM     14  C   UNL     1       0.069  -0.836   5.906  0.00  0.00    +0.184 C 
ATOM     15  N   UNL     1       0.092  -2.131   5.872  0.00  0.00    -0.240 NA
ATOM     16  C   UNL     1       0.098  -2.957   7.075  0.00  0.00    +0.232 C 
ATOM     17  N   UNL     1       0.560  -2.185   8.235  0.00  0.00    -0.266 NA
ATOM     18  C   UNL     1      -0.189  -0.919   8.336  0.00  0.00    +0.193 C 
ATOM     19  N   UNL     1       0.071  -0.156   7.104  0.00  0.00    -0.304 N 
ATOM     20  H   UNL     1       0.035   0.842   4.740  0.00  0.00    +0.158 HD
ATOM     21  H   UNL     1       0.236   0.799   7.133  0.00  0.00    +0.150 HD
ENDROOT
BRANCH  17  22
ATOM     22  C   UNL     1       0.439  -2.969   9.471  0.00  0.00    +0.115 C 
BRANCH  22  23
ATOM     23  C   UNL     1       1.401  -4.157   9.418  0.00  0.00    +0.175 C 
BRANCH  23  24
ATOM     24  O   UNL     1       2.748  -3.679   9.404  0.00  0.00    -0.382 OA
ATOM     25  C   UNL     1       3.731  -4.715   9.355  0.00  0.00    +0.194 C 
ENDBRANCH  23  24
ENDBRANCH  22  23
ENDBRANCH  17  22
TORSDOF 3
