REMARK  Name = ZINC34779440
REMARK  7 active torsions:
REMARK  status: ('A' for Active; 'I' for Inactive)
REMARK    1  A    between atoms: C_1  and  C_2
REMARK    2  A    between atoms: N_6  and  C_24
REMARK    3  A    between atoms: N_9  and  C_16
REMARK    4  A    between atoms: C_12  and  C_13
REMARK    5  A    between atoms: C_16  and  C_17
REMARK    6  A    between atoms: C_24  and  C_25
REMARK    7  A    between atoms: N_27  and  C_28
REMARK                            x       y       z     vdW  Elec       q    Type
REMARK                         _______ _______ _______ _____ _____    ______ ____
ROOT
ATOM      1  C   UNL     1      -0.119   1.466   0.111  0.00  0.00    +0.046 C 
ATOM      2  C   UNL     1      -0.093  -0.041   0.076  0.00  0.00    -0.015 A 
ATOM      3  C   UNL     1      -0.038  -0.745  -1.131  0.00  0.00    +0.074 A 
ATOM      4  C   UNL     1       0.002  -0.206  -2.514  0.00  0.00    +0.266 A 
ATOM      5  O   UNL     1      -0.010   0.995  -2.708  0.00  0.00    -0.267 OA
ATOM      6  N   UNL     1       0.053  -1.063  -3.549  0.00  0.00    -0.251 N 
ATOM      7  C   UNL     1       0.069  -2.393  -3.366  0.00  0.00    +0.334 A 
ATOM      8  O   UNL     1       0.116  -3.125  -4.336  0.00  0.00    -0.246 OA
ATOM      9  N   UNL     1       0.034  -2.935  -2.135  0.00  0.00    -0.283 N 
ATOM     10  C   UNL     1      -0.019  -2.144  -1.023  0.00  0.00    +0.098 A 
ATOM     11  S   UNL     1      -0.072  -2.460   0.617  0.00  0.00    -0.063 S 
ATOM     12  C   UNL     1      -0.117  -0.789   1.233  0.00  0.00    +0.106 A 
ENDROOT
BRANCH  12  13
ATOM     13  C   UNL     1      -0.166  -0.342   2.576  0.00  0.00    +0.393 C 
ATOM     14  O   UNL     1      -0.193   0.858   2.821  0.00  0.00    -0.240 OA
ATOM     15  O   UNL     1      -0.181  -1.155   3.492  0.00  0.00    -0.240 OA
ENDBRANCH  12  13
BRANCH   9  16
ATOM     16  C   UNL     1       0.053  -4.393  -1.985  0.00  0.00    +0.164 C 
BRANCH  16  17
ATOM     17  C   UNL     1      -1.355  -4.896  -1.794  0.00  0.00    -0.009 A 
ATOM     18  C   UNL     1      -1.858  -5.076  -0.519  0.00  0.00    +0.007 A 
ATOM     19  C   UNL     1      -3.149  -5.537  -0.344  0.00  0.00    +0.000 A 
ATOM     20  C   UNL     1      -3.938  -5.820  -1.444  0.00  0.00    +0.001 A 
ATOM     21  C   UNL     1      -3.436  -5.641  -2.719  0.00  0.00    +0.020 A 
ATOM     22  C   UNL     1      -2.146  -5.173  -2.895  0.00  0.00    +0.046 A 
ATOM     23 CL   UNL     1      -1.517  -4.942  -4.496  0.00  0.00    -0.083 Cl
ENDBRANCH  16  17
ENDBRANCH   9  16
BRANCH   6  24
ATOM     24  C   UNL     1       0.092  -0.531  -4.913  0.00  0.00    +0.225 C 
BRANCH  24  25
ATOM     25  C   UNL     1       1.526  -0.324  -5.330  0.00  0.00    +0.233 C 
ATOM     26  O   UNL     1       2.426  -0.595  -4.564  0.00  0.00    -0.274 OA
ATOM     27  N   UNL     1       1.807   0.162  -6.556  0.00  0.00    -0.311 N 
ATOM     28  H   UNL     1       1.087   0.378  -7.169  0.00  0.00    +0.149 HD
BRANCH  27  29
ATOM     29  C   UNL     1       3.200   0.362  -6.962  0.00  0.00    +0.073 C 
ATOM     30  C   UNL     1       3.683   1.728  -6.470  0.00  0.00    +0.022 C 
ATOM     31  C   UNL     1       5.138   1.938  -6.894  0.00  0.00    +0.002 C 
ATOM     32  C   UNL     1       5.238   1.881  -8.420  0.00  0.00    +0.000 C 
ATOM     33  C   UNL     1       4.755   0.515  -8.911  0.00  0.00    +0.002 C 
ATOM     34  C   UNL     1       3.300   0.305  -8.487  0.00  0.00    +0.022 C 
ENDBRANCH  27  29
ENDBRANCH  24  25
ENDBRANCH   6  24
TORSDOF 6
