REMARK  Name = ZINC50441398
REMARK  4 active torsions:
REMARK  status: ('A' for Active; 'I' for Inactive)
REMARK    1  A    between atoms: C_4  and  O_10
REMARK    2  A    between atoms: C_5  and  C_7
REMARK    3  A    between atoms: O_10  and  C_11
REMARK    4  A    between atoms: C_14  and  N_18
REMARK                            x       y       z     vdW  Elec       q    Type
REMARK                         _______ _______ _______ _____ _____    ______ ____
ROOT
ATOM      1  C   UNL     1      -0.463   1.170  -0.296  0.00  0.00    +0.001 A 
ATOM      2  C   UNL     1       0.621   2.031  -0.342  0.00  0.00    +0.004 A 
ATOM      3  C   UNL     1       1.908   1.537  -0.285  0.00  0.00    +0.047 A 
ATOM      4  C   UNL     1       2.124   0.170  -0.180  0.00  0.00    +0.139 A 
ATOM      5  C   UNL     1       1.031  -0.704  -0.133  0.00  0.00    +0.054 A 
ATOM      6  C   UNL     1      -0.267  -0.191  -0.192  0.00  0.00    +0.015 A 
ENDROOT
BRANCH   5   7
ATOM      7  C   UNL     1       1.248  -2.160  -0.023  0.00  0.00    +0.098 C 
ATOM      8  N   UNL     1       0.693  -2.843   0.978  0.00  0.00    -0.387 N 
ATOM      9  N   UNL     1       2.000  -2.792  -0.924  0.00  0.00    -0.344 N 
ATOM     10  H   UNL     1       0.209  -2.374   1.675  0.00  0.00    +0.157 HD
ATOM     11  H   UNL     1       2.404  -2.295  -1.653  0.00  0.00    +0.144 HD
ATOM     12  H   UNL     1       2.143  -3.749  -0.852  0.00  0.00    +0.144 HD
ATOM     13  H   UNL     1       0.774  -3.809   1.009  0.00  0.00    +0.157 HD
ENDBRANCH   5   7
BRANCH   4  14
ATOM     14  O   UNL     1       3.389  -0.317  -0.125  0.00  0.00    -0.453 OA
BRANCH  14  15
ATOM     15  C   UNL     1       4.418   0.570  -0.174  0.00  0.00    +0.156 A 
ATOM     16  C   UNL     1       4.959   0.940  -1.398  0.00  0.00    +0.063 A 
ATOM     17  C   UNL     1       6.004   1.843  -1.445  0.00  0.00    +0.051 A 
ATOM     18  C   UNL     1       6.512   2.377  -0.275  0.00  0.00    +0.129 A 
ATOM     19  C   UNL     1       5.975   2.010   0.945  0.00  0.00    +0.051 A 
ATOM     20  C   UNL     1       4.925   1.112   0.998  0.00  0.00    +0.063 A 
ATOM     21 BR   UNL     1       4.187   0.617   2.667  0.00  0.00    -0.046 Br
ATOM     22 BR   UNL     1       4.266   0.209  -2.999  0.00  0.00    -0.046 Br
BRANCH  18  23
ATOM     23  N   UNL     1       7.632   3.343  -0.329  0.00  0.00    +0.056 N 
ATOM     24  O   UNL     1       8.102   3.664  -1.396  0.00  0.00    -0.126 OA
ATOM     25  O   UNL     1       8.076   3.811   0.693  0.00  0.00    -0.126 OA
ENDBRANCH  18  23
ENDBRANCH  14  15
ENDBRANCH   4  14
TORSDOF 4
