REMARK  Name = ZINC62820862
REMARK  6 active torsions:
REMARK  status: ('A' for Active; 'I' for Inactive)
REMARK    1  A    between atoms: C_1  and  C_2
REMARK    2  A    between atoms: C_4  and  C_17
REMARK    3  A    between atoms: C_6  and  C_8
REMARK    4  A    between atoms: C_8  and  C_9
REMARK    5  A    between atoms: C_13  and  C_15
REMARK    6  A    between atoms: C_15  and  N_16
REMARK                            x       y       z     vdW  Elec       q    Type
REMARK                         _______ _______ _______ _____ _____    ______ ____
ROOT
ATOM      1  C   UNL     1       1.480  -3.080   2.915  0.00  0.00    +0.112 A 
ATOM      2  N   UNL     1       2.012  -2.733   4.107  0.00  0.00    -0.348 N 
ATOM      3  H   UNL     1       1.551  -2.293   4.837  0.00  0.00    +0.167 HD
ATOM      4  C   UNL     1       3.325  -3.121   4.092  0.00  0.00    +0.105 A 
ATOM      5  C   UNL     1       3.549  -3.691   2.892  0.00  0.00    +0.042 A 
ATOM      6  N   UNL     1       2.403  -3.656   2.196  0.00  0.00    -0.239 NA
ENDROOT
BRANCH   1   7
ATOM      7  C   UNL     1       0.054  -2.844   2.489  0.00  0.00    +0.109 C 
BRANCH   7  13
ATOM      8  C   UNL     1      -0.018   1.503   0.010  0.00  0.00    +0.044 C 
ATOM      9  C   UNL     1       0.002  -0.004   0.002  0.00  0.00    -0.050 A 
ATOM     10  C   UNL     1       0.006  -0.689  -1.199  0.00  0.00    +0.006 A 
ATOM     11  C   UNL     1       0.025  -2.071  -1.206  0.00  0.00    -0.050 A 
ATOM     12  C   UNL     1       0.040  -2.768  -0.013  0.00  0.00    +0.007 A 
ATOM     13  C   UNL     1       0.037  -2.084   1.188  0.00  0.00    -0.040 A 
ATOM     14  C   UNL     1       0.023  -0.702   1.195  0.00  0.00    +0.007 A 
ATOM     15  C   UNL     1       0.027  -2.817  -2.516  0.00  0.00    +0.044 C 
ENDBRANCH   7  13
ENDBRANCH   1   7
BRANCH   5  16
ATOM     16  C   UNL     1       4.857  -4.269   2.417  0.00  0.00    -0.028 C 
BRANCH  16  17
ATOM     17  N   UNL     1       4.875  -5.715   2.674  0.00  0.00    +0.382 N 
ATOM     18  H   UNL     1       4.773  -5.882   3.664  0.00  0.00    -0.090 HD
ATOM     19  H   UNL     1       4.113  -6.154   2.179  0.00  0.00    -0.090 HD
ATOM     20  H   UNL     1       5.751  -6.103   2.357  0.00  0.00    -0.090 HD
ENDBRANCH  16  17
ENDBRANCH   5  16
TORSDOF 4
