REMARK  Name = ZINC35543921
REMARK  4 active torsions:
REMARK  status: ('A' for Active; 'I' for Inactive)
REMARK    1  A    between atoms: C_6  and  N_7
REMARK    2  A    between atoms: C_11  and  C_25
REMARK    3  A    between atoms: N_18  and  C_20
REMARK    4  A    between atoms: N_27  and  C_28
REMARK                            x       y       z     vdW  Elec       q    Type
REMARK                         _______ _______ _______ _____ _____    ______ ____
ROOT
ATOM      1  C   UNL     1      -0.017   1.378   0.010  0.00  0.00    +0.034 A 
ATOM      2  C   UNL     1       1.169   2.085   0.002  0.00  0.00    +0.025 A 
ATOM      3  C   UNL     1       2.383   1.406  -0.012  0.00  0.00    +0.033 A 
ATOM      4  C   UNL     1       2.399   0.022  -0.018  0.00  0.00    -0.023 A 
ATOM      5  C   UNL     1       1.207  -0.681  -0.012  0.00  0.00    +0.038 A 
ATOM      6  C   UNL     1       0.002  -0.004   0.002  0.00  0.00    +0.127 A 
ATOM      7  C   UNL     1       3.701  -0.737  -0.025  0.00  0.00    +0.051 C 
ATOM      8  C   UNL     1       4.797   0.128   0.596  0.00  0.00    +0.098 C 
ATOM      9  C   UNL     1       4.857   1.478  -0.127  0.00  0.00    +0.069 C 
ATOM     10  N   UNL     1       3.572   2.152  -0.024  0.00  0.00    -0.329 N 
ATOM     11  C   UNL     1       3.453   3.611   0.039  0.00  0.00    +0.087 C 
ATOM     12  C   UNL     1       4.649   4.216   0.771  0.00  0.00    -0.059 C 
ATOM     13  N   UNL     1       5.880   3.713   0.143  0.00  0.00    +0.384 N 
ATOM     14  C   UNL     1       6.013   2.287   0.438  0.00  0.00    -0.055 C 
ATOM     15  H   UNL     1       5.829   3.848  -0.855  0.00  0.00    -0.081 HD
ENDROOT
BRANCH  13  16
ATOM     16  C   UNL     1       7.038   4.437   0.682  0.00  0.00    -0.068 C 
ATOM     17  C   UNL     1       6.936   5.935   0.329  0.00  0.00    -0.015 C 
ATOM     18  C   UNL     1       8.398   6.358   0.040  0.00  0.00    -0.002 C 
ATOM     19  C   UNL     1       8.973   5.120  -0.694  0.00  0.00    -0.002 C 
ATOM     20  C   UNL     1       8.333   3.919   0.032  0.00  0.00    -0.015 C 
ENDBRANCH  13  16
BRANCH   8  21
ATOM     21  C   UNL     1       4.493   0.353   2.055  0.00  0.00    +0.218 C 
ATOM     22  O   UNL     1       4.338   1.480   2.475  0.00  0.00    -0.275 OA
ATOM     23  N   UNL     1       4.392  -0.698   2.892  0.00  0.00    -0.312 N 
ATOM     24  H   UNL     1       4.516  -1.600   2.556  0.00  0.00    +0.149 HD
BRANCH  23  25
ATOM     25  C   UNL     1       4.096  -0.479   4.310  0.00  0.00    +0.073 C 
ATOM     26  C   UNL     1       4.901  -1.285   5.333  0.00  0.00    +0.024 C 
ATOM     27  C   UNL     1       3.430  -1.623   5.078  0.00  0.00    +0.024 C 
ENDBRANCH  23  25
ENDBRANCH   8  21
BRANCH   6  28
ATOM     28  N   UNL     1      -1.270  -0.760   0.009  0.00  0.00    +0.056 N 
ATOM     29  O   UNL     1      -2.325  -0.169   0.021  0.00  0.00    -0.126 OA
ATOM     30  O   UNL     1      -1.255  -1.969   0.002  0.00  0.00    -0.126 OA
ENDBRANCH   6  28
TORSDOF 4
