REMARK  Name = ZINC00822115
REMARK  10 active torsions:
REMARK  status: ('A' for Active; 'I' for Inactive)
REMARK    1  A    between atoms: C_1  and  C_2
REMARK    2  A    between atoms: C_5  and  S_8
REMARK    3  A    between atoms: S_8  and  N_11
REMARK    4  A    between atoms: N_11  and  C_12
REMARK    5  A    between atoms: C_15  and  N_18
REMARK    6  A    between atoms: N_18  and  S_22
REMARK    7  A    between atoms: C_19  and  C_21
REMARK    8  A    between atoms: S_22  and  C_25
REMARK    9  A    between atoms: C_28  and  C_31
REMARK   10  A    between atoms: C_32  and  C_34
REMARK                            x       y       z     vdW  Elec       q    Type
REMARK                         _______ _______ _______ _____ _____    ______ ____
ROOT
ATOM      1  C   UNL     1      -0.708  -0.423   2.868  0.00  0.00    +0.060 A 
ATOM      2  C   UNL     1       0.264   0.004   3.762  0.00  0.00    +0.027 A 
ATOM      3  C   UNL     1       1.185  -0.894   4.263  0.00  0.00    +0.027 A 
ATOM      4  C   UNL     1       1.144  -2.224   3.865  0.00  0.00    +0.060 A 
ATOM      5  C   UNL     1       0.174  -2.651   2.967  0.00  0.00    +0.027 A 
ATOM      6  C   UNL     1      -0.749  -1.753   2.470  0.00  0.00    +0.027 A 
ENDROOT
BRANCH   1   7
ATOM      7  N   UNL     1      -1.645   0.488   2.363  0.00  0.00    -0.140 N 
ATOM      8  C   UNL     1      -2.428   1.188   3.209  0.00  0.00    +0.236 C 
ATOM      9  O   UNL     1      -2.406   0.944   4.397  0.00  0.00    -0.274 OA
ATOM     10  C   UNL     1      -3.329   2.272   2.678  0.00  0.00    +0.111 C 
BRANCH   7  11
ATOM     11  S   UNL     1      -1.791   0.706   0.728  0.00  0.00    +0.081 S 
ATOM     12  O   UNL     1      -1.080  -0.359   0.112  0.00  0.00    -0.149 OA
ATOM     13  O   UNL     1      -3.167   0.952   0.472  0.00  0.00    -0.149 OA
BRANCH  11  18
ATOM     14  C   UNL     1       1.157   5.782  -0.667  0.00  0.00    +0.044 C 
ATOM     15  C   UNL     1       0.421   4.514  -0.318  0.00  0.00    -0.050 A 
ATOM     16  C   UNL     1       1.109   3.319  -0.225  0.00  0.00    +0.005 A 
ATOM     17  C   UNL     1       0.433   2.156   0.094  0.00  0.00    +0.029 A 
ATOM     18  C   UNL     1      -0.930   2.188   0.321  0.00  0.00    +0.109 A 
ATOM     19  C   UNL     1      -1.619   3.382   0.223  0.00  0.00    +0.029 A 
ATOM     20  C   UNL     1      -0.943   4.546  -0.092  0.00  0.00    +0.005 A 
ENDBRANCH  11  18
ENDBRANCH   7  11
ENDBRANCH   1   7
BRANCH   4  21
ATOM     21  N   UNL     1       2.080  -3.135   4.370  0.00  0.00    -0.140 N 
ATOM     22  C   UNL     1       3.398  -2.905   4.210  0.00  0.00    +0.236 C 
ATOM     23  O   UNL     1       3.776  -1.869   3.706  0.00  0.00    -0.274 OA
ATOM     24  C   UNL     1       4.403  -3.936   4.658  0.00  0.00    +0.111 C 
BRANCH  21  25
ATOM     25  S   UNL     1       1.567  -4.495   5.164  0.00  0.00    +0.081 S 
ATOM     26  O   UNL     1       0.147  -4.481   5.119  0.00  0.00    -0.149 OA
ATOM     27  O   UNL     1       2.334  -5.577   4.653  0.00  0.00    -0.149 OA
BRANCH  25  28
ATOM     28  C   UNL     1       2.020  -4.313   6.857  0.00  0.00    +0.109 A 
ATOM     29  C   UNL     1       3.200  -4.862   7.320  0.00  0.00    +0.029 A 
ATOM     30  C   UNL     1       3.557  -4.715   8.647  0.00  0.00    +0.005 A 
ATOM     31  C   UNL     1       2.729  -4.026   9.514  0.00  0.00    -0.050 A 
ATOM     32  C   UNL     1       1.546  -3.481   9.051  0.00  0.00    +0.005 A 
ATOM     33  C   UNL     1       1.191  -3.624   7.723  0.00  0.00    +0.029 A 
ATOM     34  C   UNL     1       3.116  -3.870  10.961  0.00  0.00    +0.044 C 
ENDBRANCH  25  28
ENDBRANCH  21  25
ENDBRANCH   4  21
TORSDOF 6
