REMARK  Name = ZINC63167650
REMARK  5 active torsions:
REMARK  status: ('A' for Active; 'I' for Inactive)
REMARK    1  A    between atoms: C_1  and  N_2
REMARK    2  A    between atoms: N_2  and  C_3
REMARK    3  A    between atoms: C_3  and  C_4
REMARK    4  A    between atoms: C_11  and  C_13
REMARK    5  A    between atoms: C_18  and  N_19
REMARK                            x       y       z     vdW  Elec       q    Type
REMARK                         _______ _______ _______ _____ _____    ______ ____
ROOT
ATOM      1  C   UNL     1      -1.217  -2.015   0.082  0.00  0.00    +0.059 C 
ATOM      2  C   UNL     1      -2.588  -2.678  -0.082  0.00  0.00    +0.021 C 
ATOM      3  C   UNL     1      -2.411  -4.197  -0.146  0.00  0.00    +0.003 C 
ATOM      4  C   UNL     1      -1.550  -4.561  -1.358  0.00  0.00    +0.019 C 
ATOM      5  C   UNL     1      -0.167  -3.920  -1.208  0.00  0.00    +0.108 C 
ATOM      6  N   UNL     1      -0.334  -2.474  -0.999  0.00  0.00    -0.296 N 
ATOM      7  C   UNL     1       0.308  -1.588  -1.785  0.00  0.00    +0.249 C 
ATOM      8  O   UNL     1       0.235  -0.398  -1.545  0.00  0.00    -0.270 OA
ENDROOT
BRANCH   7   9
ATOM      9  C   UNL     1       1.102  -2.062  -2.939  0.00  0.00    +0.068 A 
ATOM     10  C   UNL     1       2.229  -2.860  -2.734  0.00  0.00    +0.035 A 
ATOM     11  C   UNL     1       2.965  -3.299  -3.816  0.00  0.00    +0.042 A 
ATOM     12  C   UNL     1       2.587  -2.949  -5.102  0.00  0.00    +0.022 A 
ATOM     13  C   UNL     1       1.472  -2.159  -5.310  0.00  0.00    +0.035 A 
ATOM     14  C   UNL     1       0.724  -1.718  -4.237  0.00  0.00    +0.138 A 
ATOM     15 CL   UNL     1       4.367  -4.291  -3.564  0.00  0.00    -0.084 Cl
BRANCH  14  16
ATOM     16  N   UNL     1      -0.473  -0.877  -4.463  0.00  0.00    +0.057 N 
ATOM     17  O   UNL     1      -0.848  -0.649  -5.590  0.00  0.00    -0.126 OA
ATOM     18  O   UNL     1      -1.076  -0.418  -3.521  0.00  0.00    -0.126 OA
ENDBRANCH  14  16
ENDBRANCH   7   9
BRANCH   1  19
ATOM     19  C   UNL     1      -1.370  -0.494   0.007  0.00  0.00    -0.060 C 
BRANCH  19  21
ATOM     20  C   UNL     1      -2.340   1.426   1.069  0.00  0.00    -0.100 C 
ATOM     21  N   UNL     1      -2.287  -0.042   1.062  0.00  0.00    +0.378 N 
ATOM     22  H   UNL     1      -1.958  -0.371   1.958  0.00  0.00    -0.086 HD
ATOM     23  H   UNL     1      -3.209  -0.411   0.887  0.00  0.00    -0.086 HD
ENDBRANCH  19  21
ENDBRANCH   1  19
TORSDOF 4
