REMARK  Name = ZINC28677779
REMARK  9 active torsions:
REMARK  status: ('A' for Active; 'I' for Inactive)
REMARK    1  A    between atoms: C_1  and  C_2
REMARK    2  A    between atoms: C_2  and  C_4
REMARK    3  A    between atoms: C_2  and  S_17
REMARK    4  A    between atoms: N_6  and  C_7
REMARK    5  A    between atoms: C_9  and  N_14
REMARK    6  A    between atoms: S_17  and  C_18
REMARK    7  A    between atoms: C_21  and  C_30
REMARK    8  A    between atoms: N_22  and  C_23
REMARK    9  A    between atoms: C_23  and  C_24
REMARK                            x       y       z     vdW  Elec       q    Type
REMARK                         _______ _______ _______ _____ _____    ______ ____
ROOT
ATOM      1  S   UNL     1       3.227  -0.581  -0.472  0.00  0.00    -0.074 S 
ENDROOT
BRANCH   1   2
ATOM      2  C   UNL     1       1.859  -0.773  -1.565  0.00  0.00    +0.193 A 
ATOM      3  N   UNL     1       1.911  -1.180  -2.813  0.00  0.00    -0.122 NA
ATOM      4  N   UNL     1       0.730  -1.204  -3.320  0.00  0.00    -0.128 NA
ATOM      5  C   UNL     1      -0.151  -0.819  -2.424  0.00  0.00    +0.172 A 
ATOM      6  N   UNL     1       0.547  -0.525  -1.273  0.00  0.00    -0.299 N 
BRANCH   5   7
ATOM      7  C   UNL     1      -1.607  -0.719  -2.614  0.00  0.00    +0.056 A 
ATOM      8  C   UNL     1      -2.328  -0.719  -3.781  0.00  0.00    +0.019 A 
ATOM      9  C   UNL     1      -3.699  -0.617  -3.711  0.00  0.00    +0.008 A 
ATOM     10  C   UNL     1      -4.294  -0.508  -2.494  0.00  0.00    +0.046 A 
ATOM     11  S   UNL     1      -2.894  -0.557  -1.387  0.00  0.00    -0.094 S 
ENDBRANCH   5   7
BRANCH   6  12
ATOM     12  C   UNL     1      -0.003  -0.051  -0.001  0.00  0.00    +0.157 C 
BRANCH  12  13
ATOM     13  C   UNL     1      -0.035   1.478   0.004  0.00  0.00    +0.138 C 
ATOM     14  C   UNL     1      -0.664   2.000   1.320  0.00  0.00    +0.035 C 
ATOM     15  C   UNL     1      -0.031   3.415   1.409  0.00  0.00    +0.031 C 
ATOM     16  C   UNL     1       1.368   3.187   0.798  0.00  0.00    +0.160 C 
ATOM     17  O   UNL     1       1.301   2.005  -0.008  0.00  0.00    -0.375 OA
ENDBRANCH  12  13
ENDBRANCH   6  12
ENDBRANCH   1   2
BRANCH   1  19
ATOM     18  C   UNL     1       4.412  -2.569  -1.923  0.00  0.00    +0.029 C 
ATOM     19  C   UNL     1       4.577  -1.091  -1.564  0.00  0.00    +0.137 C 
BRANCH  19  20
ATOM     20  C   UNL     1       5.895  -0.888  -0.862  0.00  0.00    +0.230 C 
ATOM     21  O   UNL     1       5.944  -0.889   0.350  0.00  0.00    -0.274 OA
ATOM     22  N   UNL     1       7.021  -0.706  -1.581  0.00  0.00    -0.283 N 
ATOM     23  H   UNL     1       6.990  -0.778  -2.679  0.00  0.00    +0.155 HD
BRANCH  22  24
ATOM     24  C   UNL     1       8.228  -0.425  -0.932  0.00  0.00    +0.054 A 
ATOM     25  C   UNL     1       8.502  -0.994   0.305  0.00  0.00    +0.057 A 
ATOM     26  C   UNL     1       9.695  -0.715   0.943  0.00  0.00    +0.128 A 
ATOM     27  C   UNL     1      10.617   0.130   0.352  0.00  0.00    +0.034 A 
ATOM     28  C   UNL     1      10.348   0.699  -0.879  0.00  0.00    +0.024 A 
ATOM     29  C   UNL     1       9.158   0.420  -1.526  0.00  0.00    +0.062 A 
ATOM     30 CL   UNL     1       8.823   1.129  -3.075  0.00  0.00    -0.082 Cl
BRANCH  26  31
ATOM     31  N   UNL     1       9.987  -1.321   2.261  0.00  0.00    +0.056 N 
ATOM     32  O   UNL     1       9.177  -2.066   2.782  0.00  0.00    -0.126 OA
ATOM     33  O   UNL     1      11.039  -1.076   2.825  0.00  0.00    -0.126 OA
ENDBRANCH  26  31
ENDBRANCH  22  24
ENDBRANCH  19  20
ENDBRANCH   1  19
TORSDOF 8
