REMARK  Name = ZINC12568399
REMARK  11 active torsions:
REMARK  status: ('A' for Active; 'I' for Inactive)
REMARK    1  A    between atoms: C_1  and  C_2
REMARK    2  A    between atoms: C_2  and  O_3
REMARK    3  A    between atoms: O_3  and  C_4
REMARK    4  A    between atoms: C_4  and  C_6
REMARK    5  A    between atoms: C_7  and  C_30
REMARK    6  A    between atoms: C_10  and  N_11
REMARK    7  A    between atoms: C_12  and  C_14
REMARK    8  A    between atoms: C_14  and  N_15
REMARK    9  A    between atoms: N_18  and  S_21
REMARK   10  A    between atoms: S_21  and  C_24
REMARK   11  A    between atoms: C_33  and  C_35
REMARK                            x       y       z     vdW  Elec       q    Type
REMARK                         _______ _______ _______ _____ _____    ______ ____
ROOT
ATOM      1  N   UNL     1       3.743  -2.429   1.399  0.00  0.00    -0.278 N 
ATOM      2  C   UNL     1       5.046  -2.740   1.551  0.00  0.00    +0.232 C 
ATOM      3  O   UNL     1       5.442  -3.197   2.602  0.00  0.00    -0.274 OA
ATOM      4  H   UNL     1       3.427  -2.063   0.558  0.00  0.00    +0.155 HD
ENDROOT
BRANCH   1   9
ATOM      5  C   UNL     1       1.496  -2.370   2.465  0.00  0.00    +0.098 A 
ATOM      6  C   UNL     1       0.793  -2.684   3.698  0.00  0.00    +0.040 A 
ATOM      7  C   UNL     1       1.565  -3.195   4.695  0.00  0.00    +0.059 A 
ATOM      8  S   UNL     1       3.189  -3.244   3.970  0.00  0.00    -0.080 S 
ATOM      9  C   UNL     1       2.857  -2.631   2.445  0.00  0.00    +0.087 A 
BRANCH   6  10
ATOM     10  C   UNL     1      -0.658  -2.463   3.858  0.00  0.00    +0.137 A 
ATOM     11  C   UNL     1      -1.557  -3.369   4.328  0.00  0.00    +0.050 A 
ATOM     12  C   UNL     1      -2.818  -2.737   4.312  0.00  0.00    +0.045 A 
ATOM     13  C   UNL     1      -2.628  -1.491   3.839  0.00  0.00    +0.103 A 
ATOM     14  O   UNL     1      -1.321  -1.326   3.570  0.00  0.00    -0.460 OA
ATOM     15  C   UNL     1      -3.702  -0.451   3.647  0.00  0.00    +0.086 C 
ENDBRANCH   6  10
BRANCH   5  16
ATOM     16  C   UNL     1       0.801  -1.814   1.305  0.00  0.00    +0.342 C 
ATOM     17  O   UNL     1       0.321  -2.558   0.470  0.00  0.00    -0.245 OA
BRANCH  16  18
ATOM     18  O   UNL     1       0.693  -0.477   1.160  0.00  0.00    -0.461 OA
BRANCH  18  20
ATOM     19  C   UNL     1      -0.019   1.526   0.010  0.00  0.00    +0.048 C 
ATOM     20  C   UNL     1       0.002  -0.004   0.002  0.00  0.00    +0.229 C 
ENDBRANCH  18  20
ENDBRANCH  16  18
ENDBRANCH   5  16
ENDBRANCH   1   9
BRANCH   2  21
ATOM     21  C   UNL     1       6.011  -2.520   0.414  0.00  0.00    +0.180 C 
BRANCH  21  22
ATOM     22  N   UNL     1       7.358  -2.934   0.828  0.00  0.00    -0.291 NA
ATOM     23  C   UNL     1       7.868  -2.070   1.901  0.00  0.00    +0.102 C 
ATOM     24  C   UNL     1       9.189  -2.641   2.426  0.00  0.00    +0.125 C 
ATOM     25  N   UNL     1      10.104  -2.826   1.290  0.00  0.00    -0.174 NA
ATOM     26  C   UNL     1       9.614  -3.566   0.117  0.00  0.00    +0.125 C 
ATOM     27  C   UNL     1       8.276  -2.959  -0.319  0.00  0.00    +0.102 C 
BRANCH  25  28
ATOM     28  S   UNL     1      11.644  -2.218   1.329  0.00  0.00    +0.061 S 
ATOM     29  O   UNL     1      12.050  -2.055  -0.023  0.00  0.00    -0.153 OA
ATOM     30  O   UNL     1      11.632  -1.142   2.257  0.00  0.00    -0.153 OA
BRANCH  28  31
ATOM     31  C   UNL     1      12.679  -3.466   2.019  0.00  0.00    +0.105 A 
ATOM     32  C   UNL     1      12.879  -3.520   3.386  0.00  0.00    +0.028 A 
ATOM     33  C   UNL     1      13.691  -4.499   3.927  0.00  0.00    +0.002 A 
ATOM     34  C   UNL     1      14.303  -5.424   3.102  0.00  0.00    +0.000 A 
ATOM     35  C   UNL     1      14.102  -5.371   1.735  0.00  0.00    +0.002 A 
ATOM     36  C   UNL     1      13.286  -4.394   1.194  0.00  0.00    +0.028 A 
ENDBRANCH  28  31
ENDBRANCH  25  28
ENDBRANCH  21  22
ENDBRANCH   2  21
TORSDOF 9
