REMARK  Name = ZINC40180399
REMARK  4 active torsions:
REMARK  status: ('A' for Active; 'I' for Inactive)
REMARK    1  A    between atoms: C_3  and  N_18
REMARK    2  A    between atoms: C_6  and  C_7
REMARK    3  A    between atoms: C_8  and  C_9
REMARK    4  A    between atoms: N_11  and  C_12
REMARK                            x       y       z     vdW  Elec       q    Type
REMARK                         _______ _______ _______ _____ _____    ______ ____
ROOT
ATOM      1  C   UNL     1      -1.260  -0.759   0.010  0.00  0.00    +0.013 C 
ATOM      2  C   UNL     1      -1.239  -2.108   0.003  0.00  0.00    +0.068 C 
ENDROOT
BRANCH   1   8
ATOM      3  C   UNL     1      -0.017   1.395   0.010  0.00  0.00    +0.010 A 
ATOM      4  C   UNL     1       1.167   2.098   0.002  0.00  0.00    +0.028 A 
ATOM      5  C   UNL     1       2.381   1.419  -0.013  0.00  0.00    +0.069 A 
ATOM      6  C   UNL     1       2.405   0.028  -0.021  0.00  0.00    +0.028 A 
ATOM      7  C   UNL     1       1.226  -0.683  -0.013  0.00  0.00    +0.010 A 
ATOM      8  C   UNL     1       0.002  -0.004   0.002  0.00  0.00    -0.025 A 
BRANCH   5   9
ATOM      9  N   UNL     1       3.582   2.137  -0.021  0.00  0.00    -0.200 N 
ATOM     10  C   UNL     1       4.837   1.637  -0.041  0.00  0.00    +0.250 A 
ATOM     11  N   UNL     1       5.660   2.653  -0.042  0.00  0.00    -0.116 NA
ATOM     12  N   UNL     1       5.011   3.761  -0.024  0.00  0.00    -0.023 NA
ATOM     13  N   UNL     1       3.742   3.534  -0.016  0.00  0.00    -0.039 NA
ENDBRANCH   5   9
ENDBRANCH   1   8
BRANCH   2  14
ATOM     14  C   UNL     1      -2.495  -2.859   0.011  0.00  0.00    +0.237 C 
ATOM     15  O   UNL     1      -3.558  -2.267   0.024  0.00  0.00    -0.271 OA
ATOM     16  N   UNL     1      -2.474  -4.207   0.003  0.00  0.00    -0.309 N 
ATOM     17  H   UNL     1      -1.627  -4.679  -0.007  0.00  0.00    +0.149 HD
BRANCH  16  18
ATOM     18  C   UNL     1      -3.732  -4.959   0.011  0.00  0.00    +0.073 C 
ATOM     19  C   UNL     1      -4.220  -5.120   1.452  0.00  0.00    +0.022 C 
ATOM     20  C   UNL     1      -5.533  -5.906   1.460  0.00  0.00    +0.002 C 
ATOM     21  C   UNL     1      -5.306  -7.286   0.841  0.00  0.00    +0.000 C 
ATOM     22  C   UNL     1      -4.817  -7.125  -0.600  0.00  0.00    +0.002 C 
ATOM     23  C   UNL     1      -3.504  -6.339  -0.608  0.00  0.00    +0.022 C 
ENDBRANCH  16  18
ENDBRANCH   2  14
TORSDOF 4
