REMARK  Name = ZINC39699211
REMARK  10 active torsions:
REMARK  status: ('A' for Active; 'I' for Inactive)
REMARK    1  A    between atoms: C_1  and  C_2
REMARK    2  A    between atoms: C_2  and  C_3
REMARK    3  A    between atoms: C_10  and  C_15
REMARK    4  A    between atoms: C_15  and  C_17
REMARK    5  A    between atoms: C_15  and  N_27
REMARK    6  A    between atoms: N_22  and  C_23
REMARK    7  A    between atoms: C_23  and  C_24
REMARK    8  A    between atoms: C_23  and  C_25
REMARK    9  A    between atoms: C_23  and  C_26
REMARK   10  A    between atoms: N_30  and  C_33
REMARK                            x       y       z     vdW  Elec       q    Type
REMARK                         _______ _______ _______ _____ _____    ______ ____
ROOT
ATOM      1  C   UNL     1       5.416  -0.317  -4.471  0.00  0.00    +0.115 C 
ENDROOT
BRANCH   1   9
ATOM      2  C   UNL     1       3.079  -4.754  -7.455  0.00  0.00    -0.047 A 
ATOM      3  C   UNL     1       4.181  -5.570  -7.199  0.00  0.00    +0.005 A 
ATOM      4  C   UNL     1       5.133  -5.251  -6.283  0.00  0.00    +0.024 A 
ATOM      5  C   UNL     1       5.039  -4.058  -5.542  0.00  0.00    +0.040 A 
ATOM      6  N   UNL     1       5.979  -3.755  -4.647  0.00  0.00    -0.284 N 
ATOM      7  C   UNL     1       5.952  -2.652  -3.917  0.00  0.00    +0.226 C 
ATOM      8  O   UNL     1       6.839  -2.429  -3.115  0.00  0.00    -0.275 OA
ATOM      9  C   UNL     1       4.815  -1.670  -4.084  0.00  0.00    +0.119 C 
ATOM     10  C   UNL     1       3.744  -2.010  -5.102  0.00  0.00    -0.003 C 
ATOM     11  C   UNL     1       3.885  -3.177  -5.792  0.00  0.00    -0.007 A 
ATOM     12  C   UNL     1       2.900  -3.580  -6.796  0.00  0.00    +0.013 A 
ATOM     13  H   UNL     1       6.717  -4.372  -4.524  0.00  0.00    +0.155 HD
BRANCH   2  15
ATOM     14  C   UNL     1       2.480  -4.639  -9.858  0.00  0.00    +0.009 C 
ATOM     15  C   UNL     1       2.069  -5.182  -8.488  0.00  0.00    +0.032 C 
ENDBRANCH   2  15
ENDBRANCH   1   9
BRANCH   1  16
ATOM     16  N   UNL     1       6.067  -0.428  -5.783  0.00  0.00    -0.299 NA
ATOM     17  C   UNL     1       6.861   0.773  -6.080  0.00  0.00    +0.066 C 
ATOM     18  C   UNL     1       7.568   0.593  -7.426  0.00  0.00    -0.063 C 
ATOM     19  N   UNL     1       6.568   0.373  -8.479  0.00  0.00    +0.383 N 
ATOM     20  C   UNL     1       5.800  -0.843  -8.181  0.00  0.00    -0.063 C 
ATOM     21  C   UNL     1       5.078  -0.675  -6.842  0.00  0.00    +0.066 C 
ATOM     22  H   UNL     1       5.943   1.164  -8.520  0.00  0.00    -0.081 HD
BRANCH  19  23
ATOM     23  C   UNL     1       7.246   0.218  -9.773  0.00  0.00    -0.068 C 
ATOM     24  C   UNL     1       8.046   1.485 -10.084  0.00  0.00    -0.015 C 
ATOM     25  C   UNL     1       8.752   1.324 -11.432  0.00  0.00    -0.002 C 
ATOM     26  C   UNL     1       7.711   1.095 -12.530  0.00  0.00    -0.000 C 
ATOM     27  C   UNL     1       6.911  -0.171 -12.218  0.00  0.00    -0.002 C 
ATOM     28  C   UNL     1       6.205  -0.010 -10.870  0.00  0.00    -0.015 C 
ENDBRANCH  19  23
ENDBRANCH   1  16
BRANCH   1  29
ATOM     29  C   UNL     1       6.450   0.100  -3.423  0.00  0.00    +0.236 C 
ATOM     30  N   UNL     1       7.454  -0.958  -3.244  0.00  0.00    -0.148 NA
ATOM     31  N   UNL     1       7.414  -1.352  -2.076  0.00  0.00    -0.069 NA
ATOM     32  N   UNL     1       6.454  -0.689  -1.312  0.00  0.00    -0.179 N 
ATOM     33  N   UNL     1       5.813   0.238  -2.096  0.00  0.00    -0.179 NA
ATOM     34  H   UNL     1       6.269  -0.855  -0.375  0.00  0.00    +0.191 HD
BRANCH  33  35
ATOM     35  C   UNL     1       4.373  -0.042  -2.172  0.00  0.00    +0.035 C 
ATOM     36  C   UNL     1       4.125  -1.524  -1.887  0.00  0.00    +0.029 C 
ATOM     37  C   UNL     1       3.633   0.807  -1.137  0.00  0.00    +0.029 C 
ATOM     38  C   UNL     1       3.860   0.301  -3.573  0.00  0.00    +0.029 C 
ENDBRANCH  33  35
ENDBRANCH   1  29
TORSDOF 6
