REMARK  Name = ZINC16889152
REMARK  11 active torsions:
REMARK  status: ('A' for Active; 'I' for Inactive)
REMARK    1  A    between atoms: C_1  and  C_2
REMARK    2  A    between atoms: C_2  and  C_3
REMARK    3  A    between atoms: C_3  and  C_4
REMARK    4  A    between atoms: C_8  and  C_25
REMARK    5  A    between atoms: C_14  and  C_16
REMARK    6  A    between atoms: C_21  and  C_23
REMARK    7  A    between atoms: C_21  and  C_24
REMARK    8  A    between atoms: C_25  and  C_26
REMARK    9  A    between atoms: C_27  and  C_29
REMARK   10  A    between atoms: C_34  and  C_36
REMARK   11  A    between atoms: C_34  and  C_37
REMARK                            x       y       z     vdW  Elec       q    Type
REMARK                         _______ _______ _______ _____ _____    ______ ____
ROOT
ATOM      1  C   UNL     1      -6.921   3.023   0.014  0.00  0.00    +0.061 C 
ATOM      2  C   UNL     1      -7.672   1.687   0.122  0.00  0.00    +0.123 C 
ATOM      3  N   UNL     1      -6.734   0.596  -0.168  0.00  0.00    -0.299 N 
ATOM      4  C   UNL     1      -5.496   0.467   0.638  0.00  0.00    +0.123 C 
ATOM      5  C   UNL     1      -4.716   1.786   0.518  0.00  0.00    +0.061 C 
ATOM      6  C   UNL     1      -5.672   2.914   0.874  0.00  0.00    +0.152 C 
ATOM      7  O   UNL     1      -5.452   3.676   1.784  0.00  0.00    -0.296 OA
ATOM      8  C   UNL     1      -4.292   1.986  -0.945  0.00  0.00    +0.123 C 
ATOM      9  N   UNL     1      -5.499   2.147  -1.767  0.00  0.00    -0.299 N 
ATOM     10  C   UNL     1      -6.463   3.206  -1.442  0.00  0.00    +0.123 C 
ATOM     11  C   UNL     1      -5.720   1.327  -2.813  0.00  0.00    +0.219 C 
ATOM     12  O   UNL     1      -6.856   1.086  -3.165  0.00  0.00    -0.275 OA
ATOM     13  C   UNL     1      -7.003  -0.286  -1.152  0.00  0.00    +0.219 C 
ATOM     14  O   UNL     1      -7.900  -0.062  -1.938  0.00  0.00    -0.275 OA
ENDROOT
BRANCH  11  15
ATOM     15  C   UNL     1      -4.558   0.708  -3.545  0.00  0.00    +0.080 C 
ATOM     16  C   UNL     1      -3.983   1.720  -4.541  0.00  0.00    +0.041 C 
ATOM     17  C   UNL     1      -2.854   1.058  -5.335  0.00  0.00    +0.161 C 
ATOM     18  O   UNL     1      -3.357  -0.104  -5.997  0.00  0.00    -0.374 OA
ATOM     19  C   UNL     1      -3.864  -1.105  -5.113  0.00  0.00    +0.065 C 
ATOM     20  C   UNL     1      -5.034  -0.530  -4.310  0.00  0.00    +0.047 C 
ATOM     21  C   UNL     1      -4.346  -2.308  -5.927  0.00  0.00    +0.041 C 
ATOM     22  C   UNL     1      -2.757  -1.549  -4.155  0.00  0.00    +0.041 C 
ENDBRANCH  11  15
BRANCH  13  23
ATOM     23  C   UNL     1      -6.191  -1.549  -1.276  0.00  0.00    +0.080 C 
ATOM     24  C   UNL     1      -6.023  -2.187   0.106  0.00  0.00    +0.041 C 
ATOM     25  C   UNL     1      -5.264  -3.509  -0.040  0.00  0.00    +0.161 C 
ATOM     26  O   UNL     1      -5.974  -4.368  -0.933  0.00  0.00    -0.374 OA
ATOM     27  C   UNL     1      -6.121  -3.844  -2.255  0.00  0.00    +0.065 C 
ATOM     28  C   UNL     1      -6.914  -2.535  -2.198  0.00  0.00    +0.047 C 
ATOM     29  C   UNL     1      -6.867  -4.855  -3.126  0.00  0.00    +0.041 C 
ATOM     30  C   UNL     1      -4.738  -3.577  -2.853  0.00  0.00    +0.041 C 
ENDBRANCH  13  23
BRANCH   5  31
ATOM     31  C   UNL     1      -3.498   1.787   1.445  0.00  0.00    +0.014 C 
ATOM     32  C   UNL     1      -2.561   0.641   1.058  0.00  0.00    +0.005 C 
ENDBRANCH   5  31
BRANCH   1  33
ATOM     33  C   UNL     1      -7.793   4.197   0.463  0.00  0.00    +0.017 C 
BRANCH  33  35
ATOM     34  C   UNL     1      -9.911   5.450   0.027  0.00  0.00    +0.004 C 
ATOM     35  C   UNL     1      -9.038   4.276  -0.423  0.00  0.00    -0.002 C 
ENDBRANCH  33  35
ENDBRANCH   1  33
TORSDOF 5
