REMARK  Name = ZINC38902692
REMARK  13 active torsions:
REMARK  status: ('A' for Active; 'I' for Inactive)
REMARK    1  A    between atoms: C_1  and  C_2
REMARK    2  A    between atoms: C_2  and  O_3
REMARK    3  A    between atoms: O_3  and  C_4
REMARK    4  A    between atoms: N_13  and  C_14
REMARK    5  A    between atoms: C_14  and  C_15
REMARK    6  A    between atoms: C_15  and  N_16
REMARK    7  A    between atoms: C_17  and  C_22
REMARK    8  A    between atoms: C_19  and  C_21
REMARK    9  A    between atoms: C_23  and  C_25
REMARK   10  A    between atoms: C_29  and  S_31
REMARK   11  A    between atoms: S_31  and  C_34
REMARK   12  A    between atoms: C_34  and  C_35
REMARK   13  A    between atoms: C_34  and  C_36
REMARK                            x       y       z     vdW  Elec       q    Type
REMARK                         _______ _______ _______ _____ _____    ______ ____
ROOT
ATOM      1  C   UNL     1       2.000  -1.435   0.722  0.00  0.00    +0.147 A 
ATOM      2  C   UNL     1       1.817  -2.188  -0.414  0.00  0.00    +0.048 A 
ATOM      3  C   UNL     1       1.806  -3.575  -0.369  0.00  0.00    +0.005 A 
ATOM      4  C   UNL     1       1.984  -4.214   0.844  0.00  0.00    +0.017 A 
ATOM      5  C   UNL     1       2.168  -3.471   1.985  0.00  0.00    +0.044 A 
ATOM      6  C   UNL     1       2.191  -2.059   1.980  0.00  0.00    +0.122 A 
ATOM      7  N   UNL     1       2.387  -1.472   3.182  0.00  0.00    -0.221 NA
ATOM      8  C   UNL     1       2.552  -2.163   4.285  0.00  0.00    +0.169 A 
ATOM      9  S   UNL     1       2.426  -3.848   3.702  0.00  0.00    -0.052 S 
ATOM     10  N   UNL     1       2.761  -1.704   5.575  0.00  0.00    -0.245 N 
ATOM     11  C   UNL     1       2.816  -0.379   5.817  0.00  0.00    +0.252 C 
ATOM     12  O   UNL     1       2.616   0.413   4.917  0.00  0.00    -0.270 OA
ENDROOT
BRANCH  11  13
ATOM     13  C   UNL     1       3.119   0.111   7.178  0.00  0.00    +0.039 A 
ATOM     14  C   UNL     1       3.856  -0.681   8.061  0.00  0.00    +0.013 A 
ATOM     15  C   UNL     1       4.136  -0.218   9.329  0.00  0.00    +0.003 A 
ATOM     16  C   UNL     1       3.688   1.029   9.728  0.00  0.00    +0.027 A 
ATOM     17  C   UNL     1       2.957   1.819   8.859  0.00  0.00    +0.089 A 
ATOM     18  C   UNL     1       2.675   1.370   7.585  0.00  0.00    +0.040 A 
BRANCH  17  19
ATOM     19  S   UNL     1       2.390   3.405   9.378  0.00  0.00    -0.001 S 
ATOM     20  O   UNL     1       1.239   3.656   8.583  0.00  0.00    -0.169 OA
ATOM     21  O   UNL     1       2.287   3.309  10.792  0.00  0.00    -0.169 OA
BRANCH  19  22
ATOM     22  C   UNL     1       3.724   4.548   8.925  0.00  0.00    +0.130 C 
ATOM     23  C   UNL     1       3.949   4.494   7.412  0.00  0.00    +0.032 C 
ATOM     24  C   UNL     1       3.336   5.971   9.332  0.00  0.00    +0.032 C 
ENDBRANCH  19  22
ENDBRANCH  17  19
ENDBRANCH  11  13
BRANCH   1  25
ATOM     25  O   UNL     1       2.004  -0.078   0.636  0.00  0.00    -0.490 OA
BRANCH  25  27
ATOM     26  C   UNL     1       1.843   2.017  -0.558  0.00  0.00    +0.048 C 
ATOM     27  C   UNL     1       1.807   0.491  -0.660  0.00  0.00    +0.226 C 
ENDBRANCH  25  27
ENDBRANCH   1  25
BRANCH  10  28
ATOM     28  C   UNL     1       2.922  -2.657   6.675  0.00  0.00    +0.139 C 
BRANCH  28  29
ATOM     29  C   UNL     1       4.251  -3.399   6.517  0.00  0.00    +0.163 C 
BRANCH  29  30
ATOM     30  N   UNL     1       4.342  -4.457   7.526  0.00  0.00    -0.267 N 
ATOM     31  C   UNL     1       4.958  -4.362   8.723  0.00  0.00    +0.036 A 
ATOM     32  C   UNL     1       4.818  -5.551   9.354  0.00  0.00    +0.047 A 
ATOM     33  C   UNL     1       4.091  -6.401   8.514  0.00  0.00    +0.060 A 
ATOM     34  N   UNL     1       3.800  -5.745   7.421  0.00  0.00    -0.176 NA
ATOM     35  C   UNL     1       3.704  -7.825   8.820  0.00  0.00    +0.067 C 
ATOM     36  C   UNL     1       5.675  -3.150   9.259  0.00  0.00    +0.065 C 
ENDBRANCH  29  30
ENDBRANCH  28  29
ENDBRANCH  10  28
TORSDOF 8
