REMARK  Name = ZINC03624658
REMARK  10 active torsions:
REMARK  status: ('A' for Active; 'I' for Inactive)
REMARK    1  A    between atoms: C_1  and  C_2
REMARK    2  A    between atoms: C_2  and  C_3
REMARK    3  A    between atoms: C_3  and  C_4
REMARK    4  A    between atoms: C_4  and  N_5
REMARK    5  A    between atoms: C_11  and  C_25
REMARK    6  A    between atoms: C_13  and  O_24
REMARK    7  A    between atoms: C_15  and  O_22
REMARK    8  A    between atoms: C_15  and  O_23
REMARK    9  A    between atoms: C_28  and  O_31
REMARK   10  A    between atoms: O_31  and  C_32
REMARK                            x       y       z     vdW  Elec       q    Type
REMARK                         _______ _______ _______ _____ _____    ______ ____
ROOT
ATOM      1  N   UNL     1       1.787   5.375  -2.070  0.00  0.00    -0.274 N 
ATOM      2  C   UNL     1       2.905   6.145  -2.279  0.00  0.00    +0.288 C 
ATOM      3  O   UNL     1       3.633   6.085  -3.248  0.00  0.00    -0.266 OA
ATOM      4  C   UNL     1       3.078   7.070  -1.113  0.00  0.00    +0.249 C 
ATOM      5  O   UNL     1       3.952   7.905  -0.967  0.00  0.00    -0.282 OA
ATOM      6  C   UNL     1       2.037   6.782  -0.229  0.00  0.00    +0.082 C 
ATOM      7  C   UNL     1       1.011   7.279   0.555  0.00  0.00    +0.141 C 
ATOM      8  O   UNL     1      -0.135   6.516   0.389  0.00  0.00    -0.453 OA
ATOM      9  C   UNL     1       0.327   5.256   0.130  0.00  0.00    +0.269 C 
ATOM     10  C   UNL     1       1.631   5.407  -0.647  0.00  0.00    +0.198 C 
ATOM     11  C   UNL     1       2.318   4.171  -0.032  0.00  0.00    +0.226 C 
ATOM     12  C   UNL     1       1.167   3.160   0.018  0.00  0.00    +0.023 A 
ATOM     13  C   UNL     1      -0.059   3.857   0.059  0.00  0.00    +0.034 A 
ATOM     14  C   UNL     1      -1.234   3.134   0.046  0.00  0.00    +0.010 A 
ATOM     15  C   UNL     1      -1.217   1.754   0.017  0.00  0.00    +0.000 A 
ATOM     16  C   UNL     1      -0.013   1.076   0.008  0.00  0.00    +0.000 A 
ATOM     17  C   UNL     1       1.173   1.786   0.001  0.00  0.00    +0.009 A 
ENDROOT
BRANCH   7  18
ATOM     18  C   UNL     1       1.120   8.450   1.439  0.00  0.00    +0.018 A 
ATOM     19  C   UNL     1       2.331   9.147   1.535  0.00  0.00    +0.015 A 
ATOM     20  C   UNL     1       2.426  10.246   2.358  0.00  0.00    +0.046 A 
ATOM     21  C   UNL     1       1.325  10.657   3.102  0.00  0.00    +0.120 A 
ATOM     22  C   UNL     1       0.122   9.964   3.015  0.00  0.00    +0.046 A 
ATOM     23  C   UNL     1       0.015   8.868   2.190  0.00  0.00    +0.015 A 
BRANCH  21  24
ATOM     24  O   UNL     1       1.426  11.738   3.917  0.00  0.00    -0.495 OA
ATOM     25  C   UNL     1       2.690  12.403   3.959  0.00  0.00    +0.277 C 
ENDBRANCH  21  24
ENDBRANCH   7  18
BRANCH  11  26
ATOM     26  O   UNL     1       2.804   4.457   1.281  0.00  0.00    -0.359 OA
ATOM     27  H   UNL     1       3.162   3.688   1.744  0.00  0.00    +0.213 HD
ENDBRANCH  11  26
BRANCH  11  28
ATOM     28  O   UNL     1       3.374   3.702  -0.873  0.00  0.00    -0.359 OA
ATOM     29  H   UNL     1       3.776   2.875  -0.575  0.00  0.00    +0.213 HD
ENDBRANCH  11  28
BRANCH   9  30
ATOM     30  O   UNL     1       0.921   5.106   1.421  0.00  0.00    -0.350 OA
ATOM     31  H   UNL     1       0.281   4.987   2.136  0.00  0.00    +0.214 HD
ENDBRANCH   9  30
BRANCH   1  32
ATOM     32  C   UNL     1       0.956   4.689  -3.062  0.00  0.00    +0.109 C 
BRANCH  32  33
ATOM     33  C   UNL     1      -0.163   5.624  -3.525  0.00  0.00    +0.019 C 
BRANCH  33  35
ATOM     34  C   UNL     1      -2.150   5.842  -5.024  0.00  0.00    +0.004 C 
ATOM     35  C   UNL     1      -1.031   4.907  -4.561  0.00  0.00    -0.002 C 
ENDBRANCH  33  35
ENDBRANCH  32  33
ENDBRANCH   1  32
TORSDOF 8
