REMARK  Name = ZINC38981358
REMARK  8 active torsions:
REMARK  status: ('A' for Active; 'I' for Inactive)
REMARK    1  A    between atoms: C_1  and  C_2
REMARK    2  A    between atoms: C_2  and  O_3
REMARK    3  A    between atoms: O_3  and  C_4
REMARK    4  A    between atoms: C_4  and  C_6
REMARK    5  A    between atoms: C_10  and  N_12
REMARK    6  A    between atoms: N_12  and  C_13
REMARK    7  A    between atoms: N_16  and  S_17
REMARK    8  A    between atoms: S_17  and  C_20
REMARK                            x       y       z     vdW  Elec       q    Type
REMARK                         _______ _______ _______ _____ _____    ______ ____
ROOT
ATOM      1  C   UNL     1       3.192  -6.206   4.990  0.00  0.00    +0.237 C 
ATOM      2  C   UNL     1       2.406  -7.345   5.599  0.00  0.00    +0.192 C 
ATOM      3  N   UNL     1       1.210  -7.145   6.068  0.00  0.00    -0.110 NA
ATOM      4  N   UNL     1       2.961  -8.567   5.648  0.00  0.00    -0.226 NA
ATOM      5  C   UNL     1       4.170  -8.795   5.180  0.00  0.00    +0.089 A 
ATOM      6  C   UNL     1       4.726 -10.098   5.249  0.00  0.00    +0.030 A 
ATOM      7  C   UNL     1       5.966 -10.337   4.771  0.00  0.00    +0.002 A 
ATOM      8  C   UNL     1       6.763  -9.337   4.190  0.00  0.00    +0.002 A 
ATOM      9  C   UNL     1       6.331  -8.062   4.075  0.00  0.00    +0.027 A 
ATOM     10  C   UNL     1       4.990  -7.718   4.572  0.00  0.00    +0.063 A 
ATOM     11  N   UNL     1       4.539  -6.499   4.477  0.00  0.00    -0.359 N 
ATOM     12  H   UNL     1       5.080  -5.801   4.077  0.00  0.00    +0.162 HD
ENDROOT
BRANCH   3  13
ATOM     13  S   UNL     1       0.359  -8.401   6.732  0.00  0.00    +0.100 S 
ATOM     14  O   UNL     1       0.091  -9.313   5.676  0.00  0.00    -0.146 OA
ATOM     15  O   UNL     1       1.055  -8.784   7.911  0.00  0.00    -0.146 OA
BRANCH  13  16
ATOM     16  C   UNL     1      -1.197  -7.760   7.252  0.00  0.00    +0.113 A 
ATOM     17  C   UNL     1      -1.343  -7.248   8.528  0.00  0.00    +0.029 A 
ATOM     18  C   UNL     1      -2.564  -6.745   8.936  0.00  0.00    +0.002 A 
ATOM     19  C   UNL     1      -3.640  -6.753   8.067  0.00  0.00    +0.000 A 
ATOM     20  C   UNL     1      -3.494  -7.264   6.791  0.00  0.00    +0.002 A 
ATOM     21  C   UNL     1      -2.271  -7.763   6.382  0.00  0.00    +0.029 A 
ENDBRANCH  13  16
ENDBRANCH   3  13
BRANCH   1  22
ATOM     22  N   UNL     1       2.402  -5.659   3.884  0.00  0.00    -0.318 N 
ATOM     23  H   UNL     1       2.049  -6.250   3.201  0.00  0.00    +0.148 HD
BRANCH  22  28
ATOM     24  C   UNL     1       1.026  -2.415   2.807  0.00  0.00    +0.061 A 
ATOM     25  C   UNL     1       1.680  -1.552   3.690  0.00  0.00    +0.015 A 
ATOM     26  C   UNL     1       2.562  -2.058   4.623  0.00  0.00    +0.003 A 
ATOM     27  C   UNL     1       2.801  -3.418   4.688  0.00  0.00    +0.023 A 
ATOM     28  C   UNL     1       2.156  -4.285   3.814  0.00  0.00    +0.030 A 
ATOM     29  C   UNL     1       1.263  -3.788   2.877  0.00  0.00    +0.038 A 
BRANCH  24  30
ATOM     30  C   UNL     1       0.081  -1.875   1.807  0.00  0.00    +0.339 C 
ATOM     31  O   UNL     1      -0.490  -2.628   1.044  0.00  0.00    -0.245 OA
BRANCH  30  32
ATOM     32  O   UNL     1      -0.146  -0.549   1.742  0.00  0.00    -0.461 OA
BRANCH  32  34
ATOM     33  C   UNL     1      -1.199   1.425   0.829  0.00  0.00    +0.048 C 
ATOM     34  C   UNL     1      -1.072  -0.098   0.751  0.00  0.00    +0.229 C 
ENDBRANCH  32  34
ENDBRANCH  30  32
ENDBRANCH  24  30
ENDBRANCH  22  28
ENDBRANCH   1  22
TORSDOF 7
