REMARK  Name = ZINC10341473
REMARK  5 active torsions:
REMARK  status: ('A' for Active; 'I' for Inactive)
REMARK    1  A    between atoms: C_1  and  C_2
REMARK    2  A    between atoms: C_2  and  C_4
REMARK    3  A    between atoms: C_2  and  N_40
REMARK    4  A    between atoms: N_6  and  C_7
REMARK    5  A    between atoms: C_10  and  N_13
REMARK                            x       y       z     vdW  Elec       q    Type
REMARK                         _______ _______ _______ _____ _____    ______ ____
ROOT
ATOM      1  C   UNL     1      -0.006   1.146   0.236  0.00  0.00    +0.203 C 
ATOM      2  O   UNL     1       0.131   0.006   0.627  0.00  0.00    -0.277 OA
ATOM      3  N   UNL     1      -1.224   1.590  -0.133  0.00  0.00    -0.287 N 
ATOM      4  H   UNL     1      -1.323   2.480  -0.507  0.00  0.00    +0.155 HD
ENDROOT
BRANCH   3   5
ATOM      5  C   UNL     1      -2.346   0.768   0.023  0.00  0.00    +0.033 A 
ATOM      6  C   UNL     1      -2.235  -0.603  -0.165  0.00  0.00    +0.025 A 
ATOM      7  C   UNL     1      -3.342  -1.413  -0.006  0.00  0.00    +0.034 A 
ATOM      8  C   UNL     1      -4.564  -0.857   0.330  0.00  0.00    +0.126 A 
ATOM      9  C   UNL     1      -4.678   0.508   0.513  0.00  0.00    +0.034 A 
ATOM     10  C   UNL     1      -3.573   1.323   0.360  0.00  0.00    +0.025 A 
BRANCH   8  11
ATOM     11  N   UNL     1      -5.750  -1.727   0.494  0.00  0.00    +0.056 N 
ATOM     12  O   UNL     1      -6.826  -1.239   0.791  0.00  0.00    -0.126 OA
ATOM     13  O   UNL     1      -5.650  -2.930   0.333  0.00  0.00    -0.126 OA
ENDBRANCH   8  11
ENDBRANCH   3   5
BRANCH   1  15
ATOM     14  C   UNL     1       1.064   3.151   1.229  0.00  0.00    -0.004 C 
ATOM     15  C   UNL     1       1.186   2.064   0.159  0.00  0.00    +0.017 C 
BRANCH  15  24
ATOM     16  C   UNL     1       2.491   0.817   1.773  0.00  0.00    -0.072 C 
ATOM     17  C   UNL     1       3.543  -0.301   1.858  0.00  0.00    +0.024 C 
ATOM     18  C   UNL     1       4.760   0.162   1.125  0.00  0.00    -0.011 A 
ATOM     19  C   UNL     1       4.844   1.224   0.276  0.00  0.00    -0.054 A 
ATOM     20  C   UNL     1       6.091   1.469  -0.293  0.00  0.00    +0.009 A 
ATOM     21  C   UNL     1       7.141   0.670   0.008  0.00  0.00    +0.045 A 
ATOM     22  S   UNL     1       6.402  -0.500   1.139  0.00  0.00    -0.101 S 
ATOM     23  C   UNL     1       3.602   2.066  -0.001  0.00  0.00    -0.041 C 
ATOM     24  N   UNL     1       2.409   1.264   0.361  0.00  0.00    +0.390 N 
ATOM     25  H   UNL     1       2.370   0.436  -0.245  0.00  0.00    -0.080 HD
ENDBRANCH  15  24
ENDBRANCH   1  15
TORSDOF 4
