REMARK  Name = ZINC20877552
REMARK  7 active torsions:
REMARK  status: ('A' for Active; 'I' for Inactive)
REMARK    1  A    between atoms: C_1  and  C_2
REMARK    2  A    between atoms: C_3  and  C_11
REMARK    3  A    between atoms: C_11  and  N_12
REMARK    4  A    between atoms: N_12  and  C_13
REMARK    5  A    between atoms: C_14  and  C_16
REMARK    6  A    between atoms: C_16  and  C_17
REMARK    7  A    between atoms: N_24  and  C_25
REMARK                            x       y       z     vdW  Elec       q    Type
REMARK                         _______ _______ _______ _____ _____    ______ ____
ROOT
ATOM      1  N   UNL     1       3.171   6.013   0.903  0.00  0.00    -0.299 N 
ATOM      2  C   UNL     1       1.847   6.311   1.455  0.00  0.00    +0.132 C 
ATOM      3  C   UNL     1       4.228   5.868   1.726  0.00  0.00    +0.215 C 
ATOM      4  O   UNL     1       5.304   5.534   1.278  0.00  0.00    -0.276 OA
ENDROOT
BRANCH   1   5
ATOM      5  C   UNL     1       3.346   5.873  -0.545  0.00  0.00    +0.163 C 
BRANCH   5   8
ATOM      6  C   UNL     1       5.367   3.523  -0.940  0.00  0.00    +0.067 C 
ATOM      7  C   UNL     1       3.874   3.445  -1.130  0.00  0.00    +0.062 A 
ATOM      8  C   UNL     1       3.004   4.464  -0.958  0.00  0.00    +0.063 A 
ATOM      9  N   UNL     1       1.754   3.978  -1.229  0.00  0.00    -0.302 N 
ATOM     10  C   UNL     1       0.516   4.554  -1.216  0.00  0.00    +0.093 A 
ATOM     11  C   UNL     1      -0.580   3.833  -1.532  0.00  0.00    +0.018 A 
ATOM     12  C   UNL     1      -0.461   2.479  -1.884  0.00  0.00    +0.005 A 
ATOM     13  C   UNL     1       0.766   1.891  -1.896  0.00  0.00    +0.047 A 
ATOM     14  C   UNL     1       1.901   2.657  -1.564  0.00  0.00    +0.138 A 
ATOM     15  N   UNL     1       3.191   2.358  -1.497  0.00  0.00    -0.233 NA
ENDBRANCH   5   8
ENDBRANCH   1   5
BRANCH   3  16
ATOM     16  C   UNL     1       4.072   6.121   3.204  0.00  0.00    +0.090 C 
BRANCH  16  17
ATOM     17  C   UNL     1       5.432   5.981   3.891  0.00  0.00    +0.028 C 
ATOM     18  C   UNL     1       5.915   4.565   3.757  0.00  0.00    +0.200 C 
ATOM     19  O   UNL     1       5.123   3.662   3.925  0.00  0.00    -0.278 OA
ATOM     20  N   UNL     1       7.183   4.258   3.459  0.00  0.00    -0.318 N 
ATOM     21  C   UNL     1       8.204   5.269   3.203  0.00  0.00    +0.085 C 
ATOM     22  C   UNL     1       7.752   6.623   3.753  0.00  0.00    -0.058 C 
ATOM     23  N   UNL     1       6.392   6.901   3.266  0.00  0.00    +0.390 N 
ATOM     24  H   UNL     1       7.441   3.190   3.412  0.00  0.00    +0.149 HD
ATOM     25  H   UNL     1       6.369   6.740   2.178  0.00  0.00    -0.080 HD
BRANCH  23  26
ATOM     26  C   UNL     1       6.019   8.300   3.514  0.00  0.00    -0.067 C 
ATOM     27  C   UNL     1       6.922   9.242   2.691  0.00  0.00    -0.015 C 
ATOM     28  C   UNL     1       7.155  10.456   3.624  0.00  0.00    -0.002 C 
ATOM     29  C   UNL     1       7.284   9.795   5.019  0.00  0.00    -0.002 C 
ATOM     30  C   UNL     1       6.249   8.652   4.994  0.00  0.00    -0.015 C 
ENDBRANCH  23  26
ENDBRANCH  16  17
ENDBRANCH   3  16
TORSDOF 5
