REMARK  Name = ZINC38971370
REMARK  8 active torsions:
REMARK  status: ('A' for Active; 'I' for Inactive)
REMARK    1  A    between atoms: C_1  and  C_2
REMARK    2  A    between atoms: C_2  and  O_3
REMARK    3  A    between atoms: O_3  and  C_4
REMARK    4  A    between atoms: C_4  and  C_6
REMARK    5  A    between atoms: C_10  and  N_12
REMARK    6  A    between atoms: N_12  and  C_13
REMARK    7  A    between atoms: N_16  and  S_17
REMARK    8  A    between atoms: S_17  and  C_20
REMARK                            x       y       z     vdW  Elec       q    Type
REMARK                         _______ _______ _______ _____ _____    ______ ____
ROOT
ATOM      1  C   UNL     1       2.882  -6.154  -5.232  0.00  0.00    +0.237 C 
ATOM      2  C   UNL     1       1.888  -7.130  -5.819  0.00  0.00    +0.192 C 
ATOM      3  N   UNL     1       0.682  -6.745  -6.116  0.00  0.00    -0.110 NA
ATOM      4  N   UNL     1       2.268  -8.400  -6.030  0.00  0.00    -0.226 NA
ATOM      5  C   UNL     1       3.483  -8.815  -5.738  0.00  0.00    +0.089 A 
ATOM      6  C   UNL     1       3.851 -10.164  -5.974  0.00  0.00    +0.030 A 
ATOM      7  C   UNL     1       5.096 -10.594  -5.676  0.00  0.00    +0.002 A 
ATOM      8  C   UNL     1       6.080  -9.754  -5.129  0.00  0.00    +0.002 A 
ATOM      9  C   UNL     1       5.835  -8.452  -4.864  0.00  0.00    +0.027 A 
ATOM     10  C   UNL     1       4.503  -7.905  -5.160  0.00  0.00    +0.063 A 
ATOM     11  N   UNL     1       4.230  -6.653  -4.919  0.00  0.00    -0.359 N 
ATOM     12  H   UNL     1       4.902  -6.064  -4.541  0.00  0.00    +0.162 HD
ENDROOT
BRANCH   3  13
ATOM     13  S   UNL     1      -0.398  -7.824  -6.758  0.00  0.00    +0.100 S 
ATOM     14  O   UNL     1       0.099  -8.181  -8.040  0.00  0.00    -0.146 OA
ATOM     15  O   UNL     1      -0.659  -8.787  -5.747  0.00  0.00    -0.146 OA
BRANCH  13  16
ATOM     16  C   UNL     1      -1.907  -6.954  -7.026  0.00  0.00    +0.114 A 
ATOM     17  C   UNL     1      -2.861  -6.900  -6.027  0.00  0.00    +0.029 A 
ATOM     18  C   UNL     1      -4.044  -6.218  -6.237  0.00  0.00    +0.003 A 
ATOM     19  C   UNL     1      -4.275  -5.590  -7.446  0.00  0.00    +0.020 A 
ATOM     20  C   UNL     1      -3.321  -5.644  -8.447  0.00  0.00    +0.043 A 
ATOM     21  C   UNL     1      -2.134  -6.322  -8.234  0.00  0.00    +0.049 A 
ATOM     22 CL   UNL     1      -3.611  -4.855  -9.966  0.00  0.00    -0.083 Cl
ENDBRANCH  13  16
ENDBRANCH   3  13
BRANCH   1  23
ATOM     23  N   UNL     1       2.306  -5.617  -3.997  0.00  0.00    -0.318 N 
ATOM     24  H   UNL     1       1.966  -6.220  -3.318  0.00  0.00    +0.148 HD
BRANCH  23  29
ATOM     25  C   UNL     1       2.816  -2.000  -4.481  0.00  0.00    +0.061 A 
ATOM     26  C   UNL     1       2.115  -1.492  -3.385  0.00  0.00    +0.015 A 
ATOM     27  C   UNL     1       1.489  -2.353  -2.508  0.00  0.00    +0.003 A 
ATOM     28  C   UNL     1       1.551  -3.720  -2.710  0.00  0.00    +0.023 A 
ATOM     29  C   UNL     1       2.246  -4.235  -3.798  0.00  0.00    +0.030 A 
ATOM     30  C   UNL     1       2.875  -3.378  -4.688  0.00  0.00    +0.038 A 
BRANCH  25  31
ATOM     31  C   UNL     1       3.488  -1.080  -5.422  0.00  0.00    +0.339 C 
ATOM     32  O   UNL     1       4.093  -1.523  -6.377  0.00  0.00    -0.245 OA
BRANCH  31  33
ATOM     33  O   UNL     1       3.430   0.251  -5.220  0.00  0.00    -0.461 OA
BRANCH  33  35
ATOM     34  C   UNL     1       3.928   2.550  -5.776  0.00  0.00    +0.048 C 
ATOM     35  C   UNL     1       4.103   1.081  -6.168  0.00  0.00    +0.229 C 
ENDBRANCH  33  35
ENDBRANCH  31  33
ENDBRANCH  25  31
ENDBRANCH  23  29
ENDBRANCH   1  23
TORSDOF 7
