REMARK  Name = ZINC37640428
REMARK  7 active torsions:
REMARK  status: ('A' for Active; 'I' for Inactive)
REMARK    1  A    between atoms: C_1  and  C_2
REMARK    2  A    between atoms: C_7  and  N_8
REMARK    3  A    between atoms: C_9  and  C_11
REMARK    4  A    between atoms: C_11  and  N_12
REMARK    5  A    between atoms: N_20  and  C_23
REMARK    6  A    between atoms: C_23  and  C_24
REMARK    7  A    between atoms: C_27  and  N_30
REMARK                            x       y       z     vdW  Elec       q    Type
REMARK                         _______ _______ _______ _____ _____    ______ ____
ROOT
ATOM      1  N   UNL     1      -0.241  -0.905   5.988  0.00  0.00    -0.251 N 
ATOM      2  C   UNL     1      -1.445  -1.353   6.388  0.00  0.00    +0.266 A 
ATOM      3  O   UNL     1      -2.461  -0.968   5.839  0.00  0.00    -0.267 OA
ATOM      4  C   UNL     1      -1.518  -2.320   7.505  0.00  0.00    +0.074 A 
ATOM      5  C   UNL     1      -2.715  -2.935   8.099  0.00  0.00    -0.023 A 
ATOM      6  C   UNL     1      -2.467  -3.783   9.110  0.00  0.00    -0.004 A 
ATOM      7  S   UNL     1      -0.700  -3.776   9.278  0.00  0.00    -0.075 S 
ATOM      8  C   UNL     1      -0.304  -2.699   8.066  0.00  0.00    +0.097 A 
ATOM      9  N   UNL     1       0.882  -2.192   7.597  0.00  0.00    -0.283 N 
ATOM     10  C   UNL     1       0.895  -1.317   6.573  0.00  0.00    +0.334 A 
ATOM     11  O   UNL     1       1.960  -0.887   6.173  0.00  0.00    -0.246 OA
ATOM     12  C   UNL     1      -3.733  -4.371   9.673  0.00  0.00    +0.043 C 
ATOM     13  C   UNL     1      -4.857  -3.447   9.153  0.00  0.00    +0.010 C 
ATOM     14  C   UNL     1      -4.223  -2.873   7.870  0.00  0.00    +0.037 C 
ENDROOT
BRANCH   1  15
ATOM     15  C   UNL     1      -0.168   0.052   4.882  0.00  0.00    +0.226 C 
BRANCH  15  17
ATOM     16  N   UNL     1       0.025  -0.015   2.417  0.00  0.00    -0.284 N 
ATOM     17  C   UNL     1      -0.056  -0.694   3.578  0.00  0.00    +0.237 C 
ATOM     18  O   UNL     1      -0.040  -1.907   3.573  0.00  0.00    -0.274 OA
ATOM     19  H   UNL     1       0.078   0.954   2.425  0.00  0.00    +0.155 HD
BRANCH  16  26
ATOM     20  C   UNL     1      -1.264   1.184   0.181  0.00  0.00    +0.045 C 
ATOM     21  C   UNL     1      -0.584  -0.158   0.084  0.00  0.00    -0.029 A 
ATOM     22  C   UNL     1      -0.568  -0.840  -1.117  0.00  0.00    +0.005 A 
ATOM     23  C   UNL     1       0.055  -2.071  -1.206  0.00  0.00    +0.000 A 
ATOM     24  C   UNL     1       0.666  -2.622  -0.095  0.00  0.00    +0.002 A 
ATOM     25  C   UNL     1       0.655  -1.945   1.108  0.00  0.00    +0.023 A 
ATOM     26  C   UNL     1       0.034  -0.706   1.201  0.00  0.00    +0.036 A 
ENDBRANCH  16  26
ENDBRANCH  15  17
ENDBRANCH   1  15
BRANCH   9  27
ATOM     27  C   UNL     1       2.144  -2.611   8.210  0.00  0.00    +0.162 C 
BRANCH  27  28
ATOM     28  C   UNL     1       2.670  -3.830   7.497  0.00  0.00    -0.027 A 
ATOM     29  C   UNL     1       2.305  -5.093   7.924  0.00  0.00    +0.007 A 
ATOM     30  C   UNL     1       2.787  -6.210   7.269  0.00  0.00    +0.033 A 
ATOM     31  C   UNL     1       3.635  -6.066   6.187  0.00  0.00    +0.126 A 
ATOM     32  C   UNL     1       3.999  -4.803   5.759  0.00  0.00    +0.033 A 
ATOM     33  C   UNL     1       3.514  -3.685   6.411  0.00  0.00    +0.007 A 
BRANCH  31  34
ATOM     34  N   UNL     1       4.152  -7.263   5.487  0.00  0.00    +0.056 N 
ATOM     35  O   UNL     1       3.833  -8.367   5.861  0.00  0.00    -0.126 OA
ATOM     36  O   UNL     1       4.893  -7.136   4.540  0.00  0.00    -0.126 OA
ENDBRANCH  31  34
ENDBRANCH  27  28
ENDBRANCH   9  27
TORSDOF 6
