REMARK  Name = ZINC32745267
REMARK  15 active torsions:
REMARK  status: ('A' for Active; 'I' for Inactive)
REMARK    1  A    between atoms: C_1  and  C_2
REMARK    2  A    between atoms: C_4  and  C_38
REMARK    3  A    between atoms: C_6  and  N_13
REMARK    4  A    between atoms: C_14  and  C_16
REMARK    5  A    between atoms: C_16  and  S_17
REMARK    6  A    between atoms: S_17  and  C_18
REMARK    7  A    between atoms: N_28  and  C_29
REMARK    8  A    between atoms: C_29  and  C_30
REMARK    9  A    between atoms: C_30  and  N_31
REMARK   10  A    between atoms: N_31  and  C_32
REMARK   11  A    between atoms: N_31  and  C_35
REMARK   12  A    between atoms: C_32  and  C_33
REMARK   13  A    between atoms: C_32  and  C_34
REMARK   14  A    between atoms: C_35  and  C_36
REMARK   15  A    between atoms: C_35  and  C_37
REMARK                            x       y       z     vdW  Elec       q    Type
REMARK                         _______ _______ _______ _____ _____    ______ ____
ROOT
ATOM      1  C   UNL     1      -1.618  -2.147   0.259  0.00  0.00    +0.173 A 
ATOM      2  N   UNL     1      -1.750  -0.844   0.280  0.00  0.00    -0.223 NA
ATOM      3  C   UNL     1      -0.685  -0.024   0.183  0.00  0.00    +0.079 A 
ATOM      4  C   UNL     1      -0.827   1.367   0.205  0.00  0.00    +0.028 A 
ATOM      5  C   UNL     1       0.281   2.161   0.105  0.00  0.00    +0.002 A 
ATOM      6  C   UNL     1       1.548   1.608  -0.019  0.00  0.00    +0.001 A 
ATOM      7  C   UNL     1       1.719   0.251  -0.044  0.00  0.00    +0.015 A 
ATOM      8  C   UNL     1       0.607  -0.583   0.057  0.00  0.00    +0.065 A 
ATOM      9  C   UNL     1       0.730  -2.047   0.036  0.00  0.00    +0.262 A 
ATOM     10  O   UNL     1       1.815  -2.588  -0.070  0.00  0.00    -0.267 OA
ATOM     11  N   UNL     1      -0.409  -2.771   0.140  0.00  0.00    -0.289 N 
ENDROOT
BRANCH   1  12
ATOM     12  S   UNL     1      -3.067  -3.141   0.390  0.00  0.00    -0.078 S 
BRANCH  12  13
ATOM     13  C   UNL     1      -4.325  -1.847   0.518  0.00  0.00    +0.173 C 
BRANCH  13  15
ATOM     14  N   UNL     1      -6.784  -1.705   0.752  0.00  0.00    -0.255 N 
ATOM     15  C   UNL     1      -5.687  -2.481   0.643  0.00  0.00    +0.230 C 
ATOM     16  O   UNL     1      -5.795  -3.688   0.646  0.00  0.00    -0.274 OA
ATOM     17  H   UNL     1      -6.685  -0.610   0.749  0.00  0.00    +0.158 HD
BRANCH  14  23
ATOM     18  C   UNL     1     -12.766  -3.263   1.309  0.00  0.00    +0.068 C 
ATOM     19  C   UNL     1     -11.664  -2.239   1.211  0.00  0.00    +0.070 A 
ATOM     20  C   UNL     1     -10.269  -2.670   1.076  0.00  0.00    +0.053 A 
ATOM     21  C   UNL     1      -9.610  -3.845   1.006  0.00  0.00    +0.114 A 
ATOM     22  O   UNL     1      -8.292  -3.604   0.878  0.00  0.00    -0.445 OA
ATOM     23  C   UNL     1      -8.034  -2.287   0.867  0.00  0.00    +0.206 A 
ATOM     24  C   UNL     1      -9.228  -1.617   0.985  0.00  0.00    +0.110 A 
ATOM     25  C   UNL     1      -9.667  -0.226   1.036  0.00  0.00    +0.277 A 
ATOM     26  O   UNL     1      -8.860   0.683   0.965  0.00  0.00    -0.266 OA
ATOM     27  N   UNL     1     -10.986   0.033   1.162  0.00  0.00    -0.242 N 
ATOM     28  H   UNL     1     -11.341   1.073   1.203  0.00  0.00    +0.192 HD
ATOM     29  N   UNL     1     -11.945  -0.973   1.247  0.00  0.00    -0.175 NA
ATOM     30  C   UNL     1     -10.248  -5.209   1.057  0.00  0.00    +0.087 C 
ENDBRANCH  14  23
ENDBRANCH  13  15
ENDBRANCH  12  13
ENDBRANCH   1  12
BRANCH  11  31
ATOM     31  C   UNL     1      -0.344  -4.235   0.125  0.00  0.00    +0.109 C 
BRANCH  31  32
ATOM     32  C   UNL     1      -0.184  -4.753   1.556  0.00  0.00    -0.056 C 
BRANCH  32  33
ATOM     33  N   UNL     1      -0.261  -6.220   1.557  0.00  0.00    +0.384 N 
ATOM     34  H   UNL     1      -1.132  -6.514   0.952  0.00  0.00    -0.081 HD
BRANCH  33  35
ATOM     35  C   UNL     1       0.935  -6.810   0.942  0.00  0.00    -0.074 C 
ATOM     36  C   UNL     1       0.720  -6.944  -0.567  0.00  0.00    -0.014 C 
ATOM     37  C   UNL     1       2.143  -5.908   1.207  0.00  0.00    -0.014 C 
ENDBRANCH  33  35
BRANCH  33  38
ATOM     38  C   UNL     1      -0.462  -6.736   2.918  0.00  0.00    -0.074 C 
ATOM     39  C   UNL     1      -1.701  -6.082   3.533  0.00  0.00    -0.014 C 
ATOM     40  C   UNL     1      -0.659  -8.252   2.865  0.00  0.00    -0.014 C 
ENDBRANCH  33  38
ENDBRANCH  32  33
ENDBRANCH  31  32
ENDBRANCH  11  31
TORSDOF 9
