REMARK  Name = ZINC45876845
REMARK  7 active torsions:
REMARK  status: ('A' for Active; 'I' for Inactive)
REMARK    1  A    between atoms: C_1  and  C_2
REMARK    2  A    between atoms: C_2  and  C_4
REMARK    3  A    between atoms: C_2  and  S_17
REMARK    4  A    between atoms: N_6  and  N_7
REMARK    5  A    between atoms: C_8  and  C_10
REMARK    6  A    between atoms: C_15  and  O_16
REMARK    7  A    between atoms: S_17  and  C_20
REMARK                            x       y       z     vdW  Elec       q    Type
REMARK                         _______ _______ _______ _____ _____    ______ ____
ROOT
ATOM      1  N   UNL     1       2.706  -1.052  -2.402  0.00  0.00    -0.230 N 
ATOM      2  C   UNL     1       4.050  -1.163  -2.414  0.00  0.00    +0.264 C 
ATOM      3  O   UNL     1       4.692  -0.870  -1.424  0.00  0.00    -0.269 OA
ATOM      4  H   UNL     1       2.194  -1.286  -3.192  0.00  0.00    +0.173 HD
ENDROOT
BRANCH   2   5
ATOM      5  C   UNL     1       4.740  -1.639  -3.628  0.00  0.00    +0.079 A 
ATOM      6  C   UNL     1       4.006  -1.970  -4.769  0.00  0.00    +0.017 A 
ATOM      7  C   UNL     1       4.657  -2.414  -5.900  0.00  0.00    +0.001 A 
ATOM      8  C   UNL     1       6.037  -2.533  -5.910  0.00  0.00    +0.004 A 
ATOM      9  C   UNL     1       6.775  -2.209  -4.789  0.00  0.00    +0.046 A 
ATOM     10  C   UNL     1       6.137  -1.755  -3.644  0.00  0.00    +0.129 A 
BRANCH  10  11
ATOM     11  O   UNL     1       6.860  -1.430  -2.544  0.00  0.00    -0.506 OA
ATOM     12  H   UNL     1       7.004  -2.168  -1.936  0.00  0.00    +0.292 HD
ENDBRANCH  10  11
ENDBRANCH   2   5
BRANCH   1  15
ATOM     13  C   UNL     1       0.707  -0.490  -1.238  0.00  0.00    +0.253 C 
ATOM     14  O   UNL     1       0.066  -0.782  -2.225  0.00  0.00    -0.272 OA
ATOM     15  N   UNL     1       2.051  -0.601  -1.250  0.00  0.00    -0.233 N 
ATOM     16  H   UNL     1       2.563  -0.367  -0.460  0.00  0.00    +0.173 HD
BRANCH  13  18
ATOM     17  C   UNL     1      -0.019   1.526   0.010  0.00  0.00    +0.042 C 
ATOM     18  C   UNL     1       0.002  -0.004   0.002  0.00  0.00    +0.214 C 
BRANCH  18  19
ATOM     19  S   UNL     1      -1.700  -0.632   0.015  0.00  0.00    -0.023 S 
ATOM     20  O   UNL     1      -2.368  -0.143  -1.140  0.00  0.00    -0.174 OA
ATOM     21  O   UNL     1      -1.660  -2.033   0.249  0.00  0.00    -0.174 OA
ATOM     22  C   UNL     1      -2.413   0.174   1.475  0.00  0.00    +0.194 C 
ENDBRANCH  18  19
ENDBRANCH  13  18
ENDBRANCH   1  15
TORSDOF 5
