REMARK  Name = ZINC63778038
REMARK  6 active torsions:
REMARK  status: ('A' for Active; 'I' for Inactive)
REMARK    1  A    between atoms: C_1  and  C_2
REMARK    2  A    between atoms: C_5  and  N_8
REMARK    3  A    between atoms: C_9  and  S_19
REMARK    4  A    between atoms: S_19  and  C_20
REMARK    5  A    between atoms: C_20  and  C_21
REMARK    6  A    between atoms: N_23  and  C_24
REMARK                            x       y       z     vdW  Elec       q    Type
REMARK                         _______ _______ _______ _____ _____    ______ ____
ROOT
ATOM      1  N   UNL     1       0.048  -4.126  -0.028  0.00  0.00    -0.252 N 
ATOM      2  C   UNL     1       0.068  -5.016   1.142  0.00  0.00    +0.258 C 
ATOM      3  N   UNL     1       0.095  -6.388   0.623  0.00  0.00    -0.242 NA
ATOM      4  C   UNL     1       0.091  -6.344  -0.666  0.00  0.00    +0.165 C 
ATOM      5  C   UNL     1       0.057  -4.932  -1.125  0.00  0.00    +0.160 C 
ATOM      6  N   UNL     1       0.044  -4.704  -2.426  0.00  0.00    -0.221 NA
ATOM      7  C   UNL     1       0.058  -5.691  -3.307  0.00  0.00    +0.213 C 
ATOM      8  N   UNL     1       0.086  -6.966  -3.004  0.00  0.00    -0.163 NA
ATOM      9  C   UNL     1       0.111  -7.390  -1.729  0.00  0.00    +0.290 C 
ATOM     10  O   UNL     1       0.136  -8.576  -1.454  0.00  0.00    -0.266 OA
ENDROOT
BRANCH   1  15
ATOM     11  C   UNL     1      -0.068   1.543   0.021  0.00  0.00    +0.044 C 
ATOM     12  C   UNL     1      -0.037   0.036   0.008  0.00  0.00    -0.050 A 
ATOM     13  C   UNL     1      -0.031  -0.643  -1.197  0.00  0.00    +0.005 A 
ATOM     14  C   UNL     1      -0.002  -2.024  -1.212  0.00  0.00    +0.024 A 
ATOM     15  C   UNL     1       0.020  -2.730  -0.016  0.00  0.00    +0.038 A 
ATOM     16  C   UNL     1       0.014  -2.044   1.193  0.00  0.00    +0.024 A 
ATOM     17  C   UNL     1      -0.009  -0.663   1.201  0.00  0.00    +0.005 A 
ENDBRANCH   1  15
BRANCH   2  18
ATOM     18  S   UNL     1      -1.421  -4.758   2.145  0.00  0.00    -0.106 S 
BRANCH  18  19
ATOM     19  C   UNL     1      -2.784  -5.155   1.016  0.00  0.00    +0.168 C 
BRANCH  19  20
ATOM     20  C   UNL     1      -4.098  -4.979   1.734  0.00  0.00    +0.227 C 
ATOM     21  O   UNL     1      -4.113  -4.621   2.892  0.00  0.00    -0.275 OA
ATOM     22  N   UNL     1      -5.256  -5.219   1.087  0.00  0.00    -0.284 N 
ATOM     23  H   UNL     1      -5.248  -5.442   0.143  0.00  0.00    +0.155 HD
BRANCH  22  24
ATOM     24  C   UNL     1      -6.471  -5.147   1.779  0.00  0.00    +0.052 A 
ATOM     25  C   UNL     1      -6.640  -4.215   2.794  0.00  0.00    +0.025 A 
ATOM     26  C   UNL     1      -7.840  -4.146   3.474  0.00  0.00    +0.002 A 
ATOM     27  C   UNL     1      -8.873  -5.004   3.146  0.00  0.00    +0.002 A 
ATOM     28  C   UNL     1      -8.710  -5.934   2.135  0.00  0.00    +0.022 A 
ATOM     29  C   UNL     1      -7.513  -6.004   1.447  0.00  0.00    +0.062 A 
ATOM     30 CL   UNL     1      -7.310  -7.167   0.173  0.00  0.00    -0.082 Cl
ENDBRANCH  22  24
ENDBRANCH  19  20
ENDBRANCH  18  19
ENDBRANCH   2  18
TORSDOF 5
