REMARK  Name = ZINC02095839
REMARK  7 active torsions:
REMARK  status: ('A' for Active; 'I' for Inactive)
REMARK    1  A    between atoms: C_1  and  C_2
REMARK    2  A    between atoms: C_3  and  O_17
REMARK    3  A    between atoms: O_17  and  C_18
REMARK    4  A    between atoms: C_18  and  C_19
REMARK    5  A    between atoms: C_34  and  C_36
REMARK    6  A    between atoms: C_36  and  O_38
REMARK    7  A    between atoms: O_38  and  C_39
REMARK                            x       y       z     vdW  Elec       q    Type
REMARK                         _______ _______ _______ _____ _____    ______ ____
ROOT
ATOM      1  C   UNL     1       1.676   9.385   1.299  0.00  0.00    +0.254 C 
ATOM      2  O   UNL     1       0.885  10.258   1.010  0.00  0.00    -0.272 OA
ATOM      3  N   UNL     1       1.337   8.090   1.143  0.00  0.00    -0.279 N 
ATOM      4  C   UNL     1       2.233   7.015   1.604  0.00  0.00    +0.162 C 
ATOM      5  C   UNL     1       2.287   5.971   0.510  0.00  0.00    +0.038 A 
ATOM      6  C   UNL     1       1.450   5.958  -0.545  0.00  0.00    -0.015 A 
ATOM      7  C   UNL     1       1.807   4.805  -1.367  0.00  0.00    +0.003 A 
ATOM      8  C   UNL     1       1.319   4.269  -2.560  0.00  0.00    +0.010 A 
ATOM      9  C   UNL     1       1.895   3.148  -3.088  0.00  0.00    +0.001 A 
ATOM     10  C   UNL     1       2.957   2.530  -2.442  0.00  0.00    +0.002 A 
ATOM     11  C   UNL     1       3.455   3.041  -1.263  0.00  0.00    +0.026 A 
ATOM     12  C   UNL     1       2.887   4.184  -0.711  0.00  0.00    +0.047 A 
ATOM     13  N   UNL     1       3.152   4.918   0.425  0.00  0.00    -0.356 N 
ATOM     14  H   UNL     1       3.850   4.717   1.068  0.00  0.00    +0.166 HD
ATOM     15  C   UNL     1       0.360   6.967  -0.797  0.00  0.00    +0.071 C 
ATOM     16  C   UNL     1       0.065   7.715   0.509  0.00  0.00    +0.189 C 
ENDROOT
BRANCH  16  17
ATOM     17  C   UNL     1      -0.737   8.956   0.209  0.00  0.00    +0.328 C 
ATOM     18  O   UNL     1      -0.404   9.687  -0.694  0.00  0.00    -0.249 OA
BRANCH  17  19
ATOM     19  O   UNL     1      -1.820   9.249   0.946  0.00  0.00    -0.467 OA
ATOM     20  C   UNL     1      -2.544  10.460   0.601  0.00  0.00    +0.280 C 
ENDBRANCH  17  19
ENDBRANCH  16  17
BRANCH   1  21
ATOM     21  C   UNL     1       3.038   9.749   1.831  0.00  0.00    +0.324 C 
BRANCH  21  22
ATOM     22  O   UNL     1       3.157  11.171   1.904  0.00  0.00    -0.482 OA
BRANCH  22  25
ATOM     23  C   UNL     1       3.405  13.975   2.040  0.00  0.00    +0.051 C 
ATOM     24  C   UNL     1       4.510  13.040   2.456  0.00  0.00    +0.034 A 
ATOM     25  C   UNL     1       4.332  11.668   2.367  0.00  0.00    +0.128 A 
ATOM     26  C   UNL     1       5.351  10.796   2.744  0.00  0.00    +0.047 A 
ATOM     27  C   UNL     1       6.539  11.280   3.212  0.00  0.00    +0.015 A 
ATOM     28  C   UNL     1       6.733  12.662   3.313  0.00  0.00    +0.022 A 
ATOM     29  C   UNL     1       5.708  13.547   2.934  0.00  0.00    +0.146 A 
ATOM     30  O   UNL     1       5.906  14.879   3.035  0.00  0.00    -0.422 OA
ATOM     31  C   UNL     1       7.063  15.379   3.489  0.00  0.00    +0.341 A 
ATOM     32  O   UNL     1       7.193  16.588   3.562  0.00  0.00    -0.245 OA
ATOM     33  C   UNL     1       8.140  14.548   3.886  0.00  0.00    +0.041 A 
ATOM     34  C   UNL     1       8.002  13.206   3.815  0.00  0.00    -0.027 A 
ATOM     35  C   UNL     1       9.080  12.246   4.233  0.00  0.00    +0.036 C 
ATOM     36  C   UNL     1      10.433  12.953   4.308  0.00  0.00    +0.005 C 
ATOM     37  C   UNL     1      10.265  14.223   5.151  0.00  0.00    +0.005 C 
ATOM     38  C   UNL     1       9.404  15.211   4.366  0.00  0.00    +0.042 C 
ENDBRANCH  22  25
ENDBRANCH  21  22
ENDBRANCH   1  21
TORSDOF 5
