REMARK  Name = ZINC39528368
REMARK  10 active torsions:
REMARK  status: ('A' for Active; 'I' for Inactive)
REMARK    1  A    between atoms: C_1  and  C_2
REMARK    2  A    between atoms: C_2  and  C_3
REMARK    3  A    between atoms: C_2  and  S_4
REMARK    4  A    between atoms: S_4  and  C_7
REMARK    5  A    between atoms: C_10  and  N_20
REMARK    6  A    between atoms: C_11  and  C_13
REMARK    7  A    between atoms: C_13  and  C_14
REMARK    8  A    between atoms: C_24  and  S_27
REMARK    9  A    between atoms: S_27  and  O_30
REMARK   10  A    between atoms: O_30  and  C_31
REMARK                            x       y       z     vdW  Elec       q    Type
REMARK                         _______ _______ _______ _____ _____    ______ ____
ROOT
ATOM      1  C   UNL     1      -2.825  -0.526  -2.591  0.00  0.00    +0.089 A 
ATOM      2  C   UNL     1      -3.516   0.670  -2.540  0.00  0.00    +0.029 A 
ATOM      3  C   UNL     1      -3.854   1.324  -3.708  0.00  0.00    +0.025 A 
ATOM      4  C   UNL     1      -3.499   0.778  -4.936  0.00  0.00    +0.033 A 
ATOM      5  C   UNL     1      -2.805  -0.424  -4.983  0.00  0.00    -0.020 A 
ATOM      6  C   UNL     1      -2.465  -1.069  -3.810  0.00  0.00    +0.032 A 
ENDROOT
BRANCH   4   7
ATOM      7  N   UNL     1      -3.840   1.437  -6.119  0.00  0.00    -0.331 N 
ATOM      8  C   UNL     1      -5.061   1.081  -6.858  0.00  0.00    +0.086 C 
ATOM      9  C   UNL     1      -4.690   0.848  -8.327  0.00  0.00    -0.061 C 
ATOM     10  N   UNL     1      -3.990   2.030  -8.847  0.00  0.00    +0.398 N 
ATOM     11  C   UNL     1      -2.715   2.206  -8.140  0.00  0.00    +0.133 C 
ATOM     12  C   UNL     1      -2.991   2.510  -6.660  0.00  0.00    +0.115 C 
ATOM     13  H   UNL     1      -3.812   1.907  -9.832  0.00  0.00    -0.083 HD
ATOM     14  H   UNL     1      -4.565   2.847  -8.710  0.00  0.00    -0.083 HD
BRANCH  11  15
ATOM     15  S   UNL     1      -1.800   3.588  -8.879  0.00  0.00    +0.109 S 
ATOM     16  O   UNL     1      -1.373   3.247 -10.190  0.00  0.00    -0.138 OA
ATOM     17  O   UNL     1      -2.480   4.811  -8.634  0.00  0.00    -0.138 OA
BRANCH  15  18
ATOM     18  O   UNL     1      -0.517   3.687  -8.066  0.00  0.00    -0.347 OA
BRANCH  18  19
ATOM     19  C   UNL     1       0.397   2.725  -8.356  0.00  0.00    +0.156 A 
ATOM     20  C   UNL     1       0.416   1.543  -7.629  0.00  0.00    +0.048 A 
ATOM     21  C   UNL     1       1.346   0.566  -7.927  0.00  0.00    +0.004 A 
ATOM     22  C   UNL     1       2.258   0.765  -8.947  0.00  0.00    +0.000 A 
ATOM     23  C   UNL     1       2.241   1.942  -9.673  0.00  0.00    +0.004 A 
ATOM     24  C   UNL     1       1.309   2.920  -9.383  0.00  0.00    +0.048 A 
ENDBRANCH  18  19
ENDBRANCH  15  18
ENDBRANCH  11  15
ENDBRANCH   4   7
BRANCH   1  25
ATOM     25  S   UNL     1      -2.395  -1.357  -1.097  0.00  0.00    -0.001 S 
ATOM     26  O   UNL     1      -2.284  -2.726  -1.463  0.00  0.00    -0.169 OA
ATOM     27  O   UNL     1      -3.372  -0.936  -0.155  0.00  0.00    -0.169 OA
BRANCH  25  29
ATOM     28  C   UNL     1      -0.869   0.817  -0.444  0.00  0.00    +0.032 C 
ATOM     29  C   UNL     1      -0.767  -0.696  -0.647  0.00  0.00    +0.130 C 
ATOM     30  C   UNL     1      -0.290  -1.354   0.649  0.00  0.00    +0.032 C 
ENDBRANCH  25  29
ENDBRANCH   1  25
BRANCH   5  31
ATOM     31  C   UNL     1      -2.418  -1.020  -6.312  0.00  0.00    +0.072 C 
BRANCH  31  32
ATOM     32  C   UNL     1      -1.777  -2.366  -6.091  0.00  0.00    -0.043 A 
ATOM     33  C   UNL     1      -0.411  -2.458  -5.898  0.00  0.00    +0.004 A 
ATOM     34  C   UNL     1       0.177  -3.692  -5.696  0.00  0.00    +0.000 A 
ATOM     35  C   UNL     1      -0.601  -4.835  -5.686  0.00  0.00    +0.000 A 
ATOM     36  C   UNL     1      -1.967  -4.743  -5.878  0.00  0.00    +0.000 A 
ATOM     37  C   UNL     1      -2.556  -3.508  -6.076  0.00  0.00    +0.004 A 
ENDBRANCH  31  32
ENDBRANCH   5  31
TORSDOF 8
