REMARK  Name = ZINC36222627
REMARK  1 active torsions:
REMARK  status: ('A' for Active; 'I' for Inactive)
REMARK    1  A    between atoms: C_1  and  C_2
REMARK                            x       y       z     vdW  Elec       q    Type
REMARK                         _______ _______ _______ _____ _____    ______ ____
ROOT
ATOM      1  C   UNL     1      -0.019   1.526   0.010  0.00  0.00    +0.008 C 
ATOM      2  C   UNL     1       0.002  -0.004   0.002  0.00  0.00    -0.009 C 
ATOM      3  C   UNL     1       0.726  -0.501  -1.253  0.00  0.00    +0.008 C 
ATOM      4  C   UNL     1       0.536  -2.011  -1.397  0.00  0.00    +0.037 C 
ATOM      5  C   UNL     1       0.950  -2.688  -0.092  0.00  0.00    -0.023 A 
ATOM      6  C   UNL     1       1.032  -1.976   1.055  0.00  0.00    -0.004 A 
ATOM      7  S   UNL     1       1.537  -3.144   2.293  0.00  0.00    -0.073 S 
ATOM      8  C   UNL     1       1.638  -4.581   1.272  0.00  0.00    +0.117 A 
ATOM      9  C   UNL     1       1.272  -4.103  -0.006  0.00  0.00    +0.075 A 
ATOM     10  C   UNL     1       1.256  -5.052  -1.080  0.00  0.00    +0.261 A 
ATOM     11  O   UNL     1       0.955  -4.736  -2.218  0.00  0.00    -0.267 OA
ATOM     12  N   UNL     1       1.597  -6.320  -0.753  0.00  0.00    -0.295 N 
ATOM     13  H   UNL     1       1.599  -6.994  -1.451  0.00  0.00    +0.172 HD
ATOM     14  C   UNL     1       1.937  -6.694   0.511  0.00  0.00    +0.194 A 
ATOM     15  N   UNL     1       1.962  -5.843   1.527  0.00  0.00    -0.209 NA
ATOM     16  N   UNL     1       2.267  -8.006   0.743  0.00  0.00    -0.329 N 
ATOM     17  C   UNL     1       0.751  -0.516   1.240  0.00  0.00    +0.046 C 
ATOM     18  H   UNL     1       2.255  -8.645   0.013  0.00  0.00    +0.145 HD
ATOM     19  H   UNL     1       2.512  -8.293   1.636  0.00  0.00    +0.145 HD
ENDROOT
TORSDOF 0
