REMARK  Name = ZINC14330370
REMARK  4 active torsions:
REMARK  status: ('A' for Active; 'I' for Inactive)
REMARK    1  A    between atoms: N_9  and  C_10
REMARK    2  A    between atoms: C_10  and  C_11
REMARK    3  A    between atoms: N_13  and  N_14
REMARK    4  A    between atoms: C_15  and  C_17
REMARK                            x       y       z     vdW  Elec       q    Type
REMARK                         _______ _______ _______ _____ _____    ______ ____
ROOT
ATOM      1  C   UNL     1       5.387  -0.491   1.367  0.00  0.00    +0.251 C 
ATOM      2  O   UNL     1       4.623  -0.648   2.296  0.00  0.00    -0.272 OA
ATOM      3  N   UNL     1       6.689  -0.236   1.601  0.00  0.00    -0.233 N 
ATOM      4  H   UNL     1       7.300  -0.110   0.858  0.00  0.00    +0.173 HD
ENDROOT
BRANCH   3   5
ATOM      5  N   UNL     1       7.161  -0.152   2.917  0.00  0.00    -0.230 N 
ATOM      6  C   UNL     1       8.463   0.103   3.151  0.00  0.00    +0.267 C 
ATOM      7  O   UNL     1       9.230   0.261   2.219  0.00  0.00    -0.268 OA
ATOM      8  H   UNL     1       6.550  -0.277   3.660  0.00  0.00    +0.173 HD
BRANCH   6   9
ATOM      9  C   UNL     1       8.957   0.191   4.529  0.00  0.00    +0.076 A 
ATOM     10  C   UNL     1      10.236   0.446   4.980  0.00  0.00    +0.024 A 
ATOM     11  C   UNL     1      10.423   0.471   6.364  0.00  0.00    -0.036 A 
ATOM     12  C   UNL     1       9.326   0.239   7.130  0.00  0.00    -0.006 A 
ATOM     13  S   UNL     1       8.061   0.004   6.057  0.00  0.00    -0.088 S 
ATOM     14  C   UNL     1       9.653   0.285   8.600  0.00  0.00    +0.043 C 
ATOM     15  C   UNL     1      11.190   0.147   8.664  0.00  0.00    +0.010 C 
ATOM     16  C   UNL     1      11.616   0.708   7.293  0.00  0.00    +0.036 C 
ENDBRANCH   6   9
ENDBRANCH   3   5
BRANCH   1  17
ATOM     17  C   UNL     1       4.879  -0.581  -0.050  0.00  0.00    +0.243 C 
BRANCH  17  26
ATOM     18  C   UNL     1      -0.016   1.360   0.009  0.00  0.00    +0.002 A 
ATOM     19  C   UNL     1       1.167   2.086   0.002  0.00  0.00    +0.002 A 
ATOM     20  C   UNL     1       2.375   1.447  -0.013  0.00  0.00    +0.029 A 
ATOM     21  C   UNL     1       2.422   0.057  -0.021  0.00  0.00    +0.090 A 
ATOM     22  C   UNL     1       1.227  -0.684  -0.013  0.00  0.00    +0.113 A 
ATOM     23  C   UNL     1       0.002  -0.004   0.002  0.00  0.00    +0.032 A 
ATOM     24  N   UNL     1       1.557  -1.991  -0.024  0.00  0.00    -0.129 NA
ATOM     25  N   UNL     1       2.836  -2.129  -0.037  0.00  0.00    -0.064 NA
ATOM     26  N   UNL     1       3.442  -0.864  -0.036  0.00  0.00    -0.235 N 
ENDBRANCH  17  26
ENDBRANCH   1  17
TORSDOF 4
