REMARK  Name = ZINC14982460
REMARK  9 active torsions:
REMARK  status: ('A' for Active; 'I' for Inactive)
REMARK    1  A    between atoms: C_1  and  C_2
REMARK    2  A    between atoms: C_2  and  C_3
REMARK    3  A    between atoms: C_2  and  C_4
REMARK    4  A    between atoms: C_4  and  C_5
REMARK    5  A    between atoms: C_5  and  N_74
REMARK    6  A    between atoms: C_17  and  C_19
REMARK    7  A    between atoms: C_19  and  N_20
REMARK    8  A    between atoms: C_29  and  C_31
REMARK    9  A    between atoms: C_31  and  C_32
REMARK                            x       y       z     vdW  Elec       q    Type
REMARK                         _______ _______ _______ _____ _____    ______ ____
ROOT
ATOM      1  C   UNL     1       0.296  -0.060   4.599  0.00  0.00    +0.243 C 
ENDROOT
BRANCH   1  11
ATOM      2  C   UNL     1      -2.871   1.496   0.045  0.00  0.00    -0.077 C 
ATOM      3  C   UNL     1      -2.136   1.018   1.302  0.00  0.00    +0.004 C 
ATOM      4  C   UNL     1      -0.714   1.578   1.280  0.00  0.00    +0.076 C 
ATOM      5  C   UNL     1      -0.013   1.086   0.008  0.00  0.00    -0.007 C 
ATOM      6  C   UNL     1      -0.795   1.589  -1.203  0.00  0.00    -0.074 C 
ATOM      7  C   UNL     1       1.421   1.612  -0.003  0.00  0.00    +0.005 C 
ATOM      8  C   UNL     1       2.171   1.039   1.204  0.00  0.00    +0.019 C 
ATOM      9  C   UNL     1       1.485   1.477   2.500  0.00  0.00    +0.108 C 
ATOM     10  N   UNL     1       0.058   1.121   2.439  0.00  0.00    -0.297 N 
ATOM     11  C   UNL     1      -0.520   0.398   3.418  0.00  0.00    +0.237 C 
ATOM     12  O   UNL     1      -1.697   0.115   3.349  0.00  0.00    -0.274 OA
ATOM     13  N   UNL     1      -2.155   1.018  -1.157  0.00  0.00    +0.380 N 
ATOM     14  H   UNL     1      -2.084  -0.005  -1.117  0.00  0.00    -0.082 HD
BRANCH  13  15
ATOM     15  C   UNL     1      -2.904   1.397  -2.372  0.00  0.00    -0.079 C 
BRANCH  15  16
ATOM     16  C   UNL     1      -4.210   0.602  -2.411  0.00  0.00    -0.016 C 
BRANCH  16  18
ATOM     17  C   UNL     1      -6.233   0.078  -3.780  0.00  0.00    +0.007 C 
ATOM     18  C   UNL     1      -4.989   0.963  -3.678  0.00  0.00    -0.019 C 
ATOM     19  C   UNL     1      -5.411   2.432  -3.616  0.00  0.00    +0.007 C 
ENDBRANCH  16  18
ENDBRANCH  15  16
ENDBRANCH  13  15
ENDBRANCH   1  11
BRANCH   1  20
ATOM     20  N   UNL     1      -0.555  -0.822   5.516  0.00  0.00    -0.220 N 
ATOM     21  C   UNL     1      -0.665  -2.157   5.354  0.00  0.00    +0.275 A 
ATOM     22  O   UNL     1      -0.065  -2.725   4.458  0.00  0.00    -0.266 OA
ATOM     23  C   UNL     1      -1.520  -2.913   6.277  0.00  0.00    +0.050 A 
ATOM     24  C   UNL     1      -1.682  -4.294   6.173  0.00  0.00    +0.014 A 
ATOM     25  C   UNL     1      -2.498  -4.948   7.069  0.00  0.00    +0.001 A 
ATOM     26  C   UNL     1      -3.157  -4.247   8.071  0.00  0.00    +0.001 A 
ATOM     27  C   UNL     1      -3.013  -2.894   8.192  0.00  0.00    +0.010 A 
ATOM     28  C   UNL     1      -2.193  -2.203   7.298  0.00  0.00    +0.011 A 
ATOM     29  C   UNL     1      -2.004  -0.755   7.384  0.00  0.00    +0.074 A 
ATOM     30  N   UNL     1      -1.227  -0.149   6.537  0.00  0.00    -0.172 NA
BRANCH  29  31
ATOM     31  C   UNL     1      -2.705   0.034   8.460  0.00  0.00    +0.093 C 
BRANCH  31  32
ATOM     32  C   UNL     1      -2.346   1.491   8.330  0.00  0.00    -0.042 A 
ATOM     33  C   UNL     1      -1.250   1.996   9.005  0.00  0.00    +0.004 A 
ATOM     34  C   UNL     1      -0.918   3.332   8.882  0.00  0.00    +0.000 A 
ATOM     35  C   UNL     1      -1.687   4.166   8.092  0.00  0.00    +0.000 A 
ATOM     36  C   UNL     1      -2.785   3.662   7.420  0.00  0.00    +0.000 A 
ATOM     37  C   UNL     1      -3.115   2.325   7.540  0.00  0.00    +0.004 A 
ENDBRANCH  31  32
ENDBRANCH  29  31
ENDBRANCH   1  20
TORSDOF 7
