REMARK  Name = ZINC09310500
REMARK  6 active torsions:
REMARK  status: ('A' for Active; 'I' for Inactive)
REMARK    1  A    between atoms: C_1  and  N_2
REMARK    2  A    between atoms: N_7  and  C_10
REMARK    3  A    between atoms: N_11  and  C_24
REMARK    4  A    between atoms: N_14  and  N_15
REMARK    5  A    between atoms: C_16  and  C_17
REMARK    6  A    between atoms: C_24  and  C_25
REMARK                            x       y       z     vdW  Elec       q    Type
REMARK                         _______ _______ _______ _____ _____    ______ ____
ROOT
ATOM      1  C   UNL     1       1.176   4.509  -0.254  0.00  0.00    +0.155 C 
ATOM      2  N   UNL     1       0.770   3.106  -0.366  0.00  0.00    -0.280 N 
ATOM      3  C   UNL     1      -0.560   2.754  -0.196  0.00  0.00    +0.170 A 
ATOM      4  C   UNL     1      -0.919   1.416  -0.313  0.00  0.00    +0.153 A 
ATOM      5  C   UNL     1       0.074   0.460  -0.589  0.00  0.00    +0.282 A 
ATOM      6  O   UNL     1      -0.217  -0.719  -0.693  0.00  0.00    -0.265 OA
ATOM      7  N   UNL     1       1.353   0.862  -0.744  0.00  0.00    -0.262 N 
ATOM      8  C   UNL     1       1.689   2.159  -0.634  0.00  0.00    +0.333 A 
ATOM      9  O   UNL     1       2.851   2.485  -0.781  0.00  0.00    -0.246 OA
ATOM     10  C   UNL     1       2.391  -0.130  -1.038  0.00  0.00    +0.157 C 
ATOM     11  N   UNL     1      -2.290   1.359  -0.105  0.00  0.00    -0.301 N 
ATOM     12  C   UNL     1      -2.705   2.635   0.121  0.00  0.00    +0.218 A 
ATOM     13  N   UNL     1      -1.668   3.447   0.070  0.00  0.00    -0.195 NA
ATOM     14  N   UNL     1      -4.003   3.017   0.372  0.00  0.00    -0.206 N 
ATOM     15  H   UNL     1      -4.686   2.345   0.524  0.00  0.00    +0.177 HD
ENDROOT
BRANCH  14  16
ATOM     16  N   UNL     1      -4.338   4.377   0.410  0.00  0.00    -0.188 NA
ATOM     17  C   UNL     1      -5.563   4.737   0.647  0.00  0.00    +0.138 C 
BRANCH  17  18
ATOM     18  C   UNL     1      -5.916   6.168   0.686  0.00  0.00    -0.005 A 
ATOM     19  C   UNL     1      -4.934   7.139   0.474  0.00  0.00    +0.010 A 
ATOM     20  C   UNL     1      -5.272   8.475   0.507  0.00  0.00    +0.016 A 
ATOM     21  C   UNL     1      -6.579   8.856   0.761  0.00  0.00    +0.018 A 
ATOM     22  C   UNL     1      -7.556   7.899   0.977  0.00  0.00    +0.016 A 
ATOM     23  C   UNL     1      -7.232   6.559   0.942  0.00  0.00    +0.010 A 
ATOM     24 BR   UNL     1      -7.031  10.691   0.813  0.00  0.00    -0.050 Br
ENDBRANCH  17  18
ENDBRANCH  14  16
BRANCH  11  25
ATOM     25  C   UNL     1      -3.129   0.158  -0.125  0.00  0.00    +0.162 C 
BRANCH  25  26
ATOM     26  C   UNL     1      -3.515  -0.162  -1.546  0.00  0.00    -0.009 A 
ATOM     27  C   UNL     1      -2.719  -0.997  -2.308  0.00  0.00    +0.007 A 
ATOM     28  C   UNL     1      -3.072  -1.290  -3.611  0.00  0.00    +0.000 A 
ATOM     29  C   UNL     1      -4.223  -0.749  -4.154  0.00  0.00    +0.001 A 
ATOM     30  C   UNL     1      -5.020   0.086  -3.394  0.00  0.00    +0.020 A 
ATOM     31  C   UNL     1      -4.669   0.376  -2.087  0.00  0.00    +0.046 A 
ATOM     32 CL   UNL     1      -5.673   1.418  -1.129  0.00  0.00    -0.083 Cl
ENDBRANCH  25  26
ENDBRANCH  11  25
TORSDOF 4
