REMARK  Name = ZINC13053940
REMARK  7 active torsions:
REMARK  status: ('A' for Active; 'I' for Inactive)
REMARK    1  A    between atoms: C_1  and  C_2
REMARK    2  A    between atoms: C_5  and  N_9
REMARK    3  A    between atoms: C_10  and  C_12
REMARK    4  A    between atoms: C_12  and  O_13
REMARK    5  A    between atoms: O_13  and  C_14
REMARK    6  A    between atoms: C_17  and  C_23
REMARK    7  A    between atoms: C_19  and  N_20
REMARK                            x       y       z     vdW  Elec       q    Type
REMARK                         _______ _______ _______ _____ _____    ______ ____
ROOT
ATOM      1  C   UNL     1       6.036  -0.782  -0.569  0.00  0.00    +0.325 C 
ENDROOT
BRANCH   1   3
ATOM      2  N   UNL     1       3.623  -0.651  -0.037  0.00  0.00    -0.281 N 
ATOM      3  C   UNL     1       4.742  -0.019  -0.444  0.00  0.00    +0.255 C 
ATOM      4  O   UNL     1       4.708   1.164  -0.709  0.00  0.00    -0.272 OA
ATOM      5  H   UNL     1       3.665  -1.579   0.244  0.00  0.00    +0.155 HD
BRANCH   2  10
ATOM      6  C   UNL     1      -1.329   2.119   0.024  0.00  0.00    +0.044 C 
ATOM      7  C   UNL     1      -0.016   1.379   0.010  0.00  0.00    -0.048 A 
ATOM      8  C   UNL     1       0.787   1.377   1.135  0.00  0.00    +0.020 A 
ATOM      9  C   UNL     1       1.994   0.705   1.123  0.00  0.00    +0.040 A 
ATOM     10  C   UNL     1       2.401   0.030  -0.021  0.00  0.00    +0.062 A 
ATOM     11  C   UNL     1       1.591   0.035  -1.150  0.00  0.00    +0.040 A 
ATOM     12  C   UNL     1       0.385   0.709  -1.131  0.00  0.00    +0.020 A 
ATOM     13 BR   UNL     1       2.139  -0.881  -2.711  0.00  0.00    -0.048 Br
ATOM     14 BR   UNL     1       3.092   0.703   2.663  0.00  0.00    -0.048 Br
ENDBRANCH   2  10
ENDBRANCH   1   3
BRANCH   1  15
ATOM     15  O   UNL     1       7.068   0.100  -1.013  0.00  0.00    -0.480 OA
BRANCH  15  16
ATOM     16  C   UNL     1       8.305  -0.432  -1.178  0.00  0.00    +0.151 A 
ATOM     17  C   UNL     1       8.520  -1.781  -0.917  0.00  0.00    +0.049 A 
ATOM     18  C   UNL     1       9.773  -2.326  -1.083  0.00  0.00    +0.019 A 
ATOM     19  C   UNL     1      10.831  -1.521  -1.516  0.00  0.00    +0.066 A 
ATOM     20  C   UNL     1      10.611  -0.165  -1.777  0.00  0.00    +0.051 A 
ATOM     21  C   UNL     1       9.353   0.370  -1.614  0.00  0.00    +0.168 A 
BRANCH  21  22
ATOM     22  N   UNL     1       9.118   1.804  -1.897  0.00  0.00    +0.060 N 
ATOM     23  O   UNL     1      10.035   2.508  -2.278  0.00  0.00    -0.126 OA
ATOM     24  O   UNL     1       8.006   2.279  -1.748  0.00  0.00    -0.126 OA
ENDBRANCH  21  22
BRANCH  19  25
ATOM     25  C   UNL     1      12.175  -2.100  -1.695  0.00  0.00    +0.387 C 
ATOM     26  O   UNL     1      13.094  -1.399  -2.070  0.00  0.00    -0.241 OA
ATOM     27  O   UNL     1      12.385  -3.406  -1.441  0.00  0.00    -0.241 OA
ENDBRANCH  19  25
ENDBRANCH  15  16
ENDBRANCH   1  15
TORSDOF 6
