REMARK  Name = ZINC64960627
REMARK  9 active torsions:
REMARK  status: ('A' for Active; 'I' for Inactive)
REMARK    1  A    between atoms: C_1  and  C_2
REMARK    2  A    between atoms: C_6  and  C_29
REMARK    3  A    between atoms: N_7  and  C_10
REMARK    4  A    between atoms: C_10  and  C_11
REMARK    5  A    between atoms: N_13  and  C_14
REMARK    6  A    between atoms: C_14  and  C_15
REMARK    7  A    between atoms: C_15  and  C_16
REMARK    8  A    between atoms: C_16  and  N_17
REMARK    9  A    between atoms: N_20  and  C_23
REMARK                            x       y       z     vdW  Elec       q    Type
REMARK                         _______ _______ _______ _____ _____    ______ ____
ROOT
ATOM      1  C   UNL     1      -1.423  -1.508  -5.372  0.00  0.00    +0.233 C 
ATOM      2  O   UNL     1      -2.340  -1.612  -4.585  0.00  0.00    -0.274 OA
ATOM      3  N   UNL     1      -1.677  -1.358  -6.687  0.00  0.00    -0.314 N 
ATOM      4  H   UNL     1      -0.944  -1.275  -7.316  0.00  0.00    +0.149 HD
ENDROOT
BRANCH   1   5
ATOM      5  C   UNL     1       0.000  -1.547  -4.879  0.00  0.00    +0.222 C 
BRANCH   5  12
ATOM      6  C   UNL     1      -0.018   1.503   0.010  0.00  0.00    +0.070 C 
ATOM      7  C   UNL     1       0.002  -0.004   0.002  0.00  0.00    +0.095 A 
ATOM      8  C   UNL     1       0.008  -0.861  -1.175  0.00  0.00    +0.128 A 
ATOM      9  C   UNL     1       0.029  -2.184  -0.713  0.00  0.00    +0.265 A 
ATOM     10  N   UNL     1       0.038  -3.183  -1.605  0.00  0.00    -0.197 NA
ATOM     11  C   UNL     1       0.029  -2.961  -2.889  0.00  0.00    +0.114 A 
ATOM     12  N   UNL     1       0.009  -1.717  -3.424  0.00  0.00    -0.287 N 
ATOM     13  C   UNL     1      -0.001  -0.629  -2.617  0.00  0.00    +0.267 A 
ATOM     14  O   UNL     1      -0.019   0.499  -3.076  0.00  0.00    -0.267 OA
ATOM     15  C   UNL     1       0.041  -4.144  -3.822  0.00  0.00    +0.086 C 
ATOM     16  O   UNL     1       0.034  -2.132   0.627  0.00  0.00    -0.334 OA
ATOM     17  N   UNL     1       0.023  -0.782   1.045  0.00  0.00    -0.080 NA
ENDBRANCH   5  12
ENDBRANCH   1   5
BRANCH   3  18
ATOM     18  C   UNL     1      -3.062  -1.320  -7.166  0.00  0.00    +0.105 C 
BRANCH  18  19
ATOM     19  C   UNL     1      -3.071  -1.143  -8.685  0.00  0.00    +0.034 C 
BRANCH  19  20
ATOM     20  C   UNL     1      -4.516  -1.103  -9.185  0.00  0.00    +0.086 C 
BRANCH  20  21
ATOM     21  N   UNL     1      -4.525  -0.933 -10.645  0.00  0.00    -0.306 NA
ATOM     22  C   UNL     1      -3.993   0.383 -11.024  0.00  0.00    +0.066 C 
ATOM     23  C   UNL     1      -3.964   0.497 -12.550  0.00  0.00    -0.063 C 
ATOM     24  N   UNL     1      -5.323   0.328 -13.080  0.00  0.00    +0.383 N 
ATOM     25  C   UNL     1      -5.831  -1.001 -12.714  0.00  0.00    -0.063 C 
ATOM     26  C   UNL     1      -5.876  -1.127 -11.189  0.00  0.00    +0.066 C 
ATOM     27  H   UNL     1      -5.926   1.037 -12.692  0.00  0.00    -0.081 HD
BRANCH  24  28
ATOM     28  C   UNL     1      -5.297   0.455 -14.543  0.00  0.00    -0.068 C 
ATOM     29  C   UNL     1      -4.769   1.840 -14.925  0.00  0.00    -0.015 C 
ATOM     30  C   UNL     1      -4.742   1.972 -16.450  0.00  0.00    -0.002 C 
ATOM     31  C   UNL     1      -6.158   1.796 -17.002  0.00  0.00    -0.000 C 
ATOM     32  C   UNL     1      -6.686   0.412 -16.620  0.00  0.00    -0.002 C 
ATOM     33  C   UNL     1      -6.713   0.279 -15.096  0.00  0.00    -0.015 C 
ENDBRANCH  24  28
ENDBRANCH  20  21
ENDBRANCH  19  20
ENDBRANCH  18  19
ENDBRANCH   3  18
TORSDOF 7
