REMARK  Name = ZINC04250441
REMARK  9 active torsions:
REMARK  status: ('A' for Active; 'I' for Inactive)
REMARK    1  A    between atoms: C_1  and  C_2
REMARK    2  A    between atoms: C_2  and  O_3
REMARK    3  A    between atoms: O_3  and  C_4
REMARK    4  A    between atoms: C_4  and  C_6
REMARK    5  A    between atoms: C_6  and  C_8
REMARK    6  A    between atoms: C_6  and  S_9
REMARK    7  A    between atoms: S_9  and  C_10
REMARK    8  A    between atoms: C_15  and  C_22
REMARK    9  A    between atoms: C_16  and  C_21
REMARK                            x       y       z     vdW  Elec       q    Type
REMARK                         _______ _______ _______ _____ _____    ______ ____
ROOT
ATOM      1  C   UNL     1      -0.264   2.249   4.838  0.00  0.00    +0.198 A 
ATOM      2  N   UNL     1      -1.286   2.638   5.560  0.00  0.00    -0.120 NA
ATOM      3  N   UNL     1      -2.402   2.734   4.720  0.00  0.00    -0.109 NA
ATOM      4  C   UNL     1      -2.029   2.401   3.508  0.00  0.00    +0.237 A 
ATOM      5  N   UNL     1      -0.693   2.091   3.547  0.00  0.00    -0.260 N 
ATOM      6  C   UNL     1      -0.039   1.703   2.401  0.00  0.00    +0.034 A 
ATOM      7  C   UNL     1      -0.705   1.626   1.236  0.00  0.00    +0.033 A 
ATOM      8  C   UNL     1      -2.084   1.950   1.187  0.00  0.00    +0.256 A 
ATOM      9  O   UNL     1      -2.690   1.886   0.132  0.00  0.00    -0.267 OA
ATOM     10  N   UNL     1      -2.724   2.325   2.313  0.00  0.00    -0.291 N 
ATOM     11  H   UNL     1      -3.668   2.545   2.285  0.00  0.00    +0.172 HD
ATOM     12  C   UNL     1       0.015   1.200  -0.018  0.00  0.00    +0.051 C 
ATOM     13  C   UNL     1       1.429   1.364   2.452  0.00  0.00    +0.064 C 
ENDROOT
BRANCH   1  14
ATOM     14  S   UNL     1       1.376   1.978   5.425  0.00  0.00    -0.071 S 
BRANCH  14  15
ATOM     15  C   UNL     1       1.277   2.358   7.195  0.00  0.00    +0.160 C 
ATOM     16  C   UNL     1       0.359   1.346   7.884  0.00  0.00    +0.031 C 
BRANCH  15  17
ATOM     17  C   UNL     1       2.654   2.283   7.803  0.00  0.00    +0.320 C 
ATOM     18  O   UNL     1       3.530   1.669   7.240  0.00  0.00    -0.250 OA
BRANCH  17  19
ATOM     19  O   UNL     1       2.907   2.897   8.969  0.00  0.00    -0.464 OA
BRANCH  19  21
ATOM     20  C   UNL     1       4.353   3.541  10.820  0.00  0.00    +0.048 C 
ATOM     21  C   UNL     1       4.256   2.782   9.495  0.00  0.00    +0.229 C 
ENDBRANCH  19  21
ENDBRANCH  17  19
ENDBRANCH  15  17
ENDBRANCH  14  15
ENDBRANCH   1  14
TORSDOF 5
