REMARK  Name = ZINC50322420
REMARK  7 active torsions:
REMARK  status: ('A' for Active; 'I' for Inactive)
REMARK    1  A    between atoms: C_1  and  C_2
REMARK    2  A    between atoms: C_2  and  C_3
REMARK    3  A    between atoms: C_3  and  C_4
REMARK    4  A    between atoms: C_5  and  N_22
REMARK    5  A    between atoms: C_6  and  C_10
REMARK    6  A    between atoms: N_12  and  C_13
REMARK    7  A    between atoms: N_12  and  C_14
REMARK                            x       y       z     vdW  Elec       q    Type
REMARK                         _______ _______ _______ _____ _____    ______ ____
ROOT
ATOM      1  C   UNL     1      -0.423  -2.159  -0.090  0.00  0.00    +0.057 A 
ATOM      2  C   UNL     1      -0.529  -2.945   1.014  0.00  0.00    +0.078 A 
ATOM      3  C   UNL     1      -0.814  -4.246   0.526  0.00  0.00    +0.168 A 
ATOM      4  N   UNL     1      -0.860  -4.165  -0.790  0.00  0.00    -0.167 NA
ATOM      5  N   UNL     1      -0.640  -2.957  -1.169  0.00  0.00    -0.279 N 
ATOM      6  H   UNL     1      -0.628  -2.658  -2.091  0.00  0.00    +0.189 HD
ENDROOT
BRANCH   3   7
ATOM      7  C   UNL     1      -1.020  -5.460   1.337  0.00  0.00    +0.269 C 
ATOM      8  O   UNL     1      -0.860  -5.421   2.542  0.00  0.00    -0.268 OA
ATOM      9  N   UNL     1      -1.384  -6.614   0.743  0.00  0.00    -0.295 N 
ATOM     10  C   UNL     1      -1.519  -6.676  -0.715  0.00  0.00    +0.132 C 
BRANCH   9  11
ATOM     11  C   UNL     1      -1.646  -7.805   1.554  0.00  0.00    +0.098 C 
ATOM     12  C   UNL     1      -3.093  -8.272   1.324  0.00  0.00    +0.046 C 
ATOM     13  C   UNL     1      -3.247  -9.693   1.938  0.00  0.00    +0.168 C 
ATOM     14  S   UNL     1      -1.646 -10.453   1.433  0.00  0.00    -0.029 S 
ATOM     15  O   UNL     1      -1.101 -11.159   2.539  0.00  0.00    -0.174 OA
ATOM     16  O   UNL     1      -1.823 -11.125   0.194  0.00  0.00    -0.174 OA
ATOM     17  C   UNL     1      -0.660  -8.928   1.151  0.00  0.00    +0.188 C 
ENDBRANCH   9  11
ENDBRANCH   3   7
BRANCH   2  18
ATOM     18  N   UNL     1      -0.387  -2.551   2.353  0.00  0.00    -0.355 N 
ATOM     19  H   UNL     1      -0.191  -1.626   2.569  0.00  0.00    +0.142 HD
ATOM     20  H   UNL     1      -0.485  -3.204   3.063  0.00  0.00    +0.142 HD
ENDBRANCH   2  18
BRANCH   1  21
ATOM     21  C   UNL     1      -0.128  -0.682  -0.114  0.00  0.00    +0.056 C 
BRANCH  21  23
ATOM     22  C   UNL     1       1.686   1.036  -0.094  0.00  0.00    +0.004 C 
ATOM     23  C   UNL     1       1.386  -0.464  -0.070  0.00  0.00    +0.003 C 
ENDBRANCH  21  23
ENDBRANCH   1  21
TORSDOF 5
