REMARK  Name = ZINC39695210
REMARK  6 active torsions:
REMARK  status: ('A' for Active; 'I' for Inactive)
REMARK    1  A    between atoms: C_1  and  C_2
REMARK    2  A    between atoms: C_2  and  C_3
REMARK    3  A    between atoms: C_3  and  C_5
REMARK    4  A    between atoms: C_3  and  N_11
REMARK    5  A    between atoms: C_12  and  C_14
REMARK    6  A    between atoms: C_25  and  C_27
REMARK                            x       y       z     vdW  Elec       q    Type
REMARK                         _______ _______ _______ _____ _____    ______ ____
ROOT
ATOM      1  C   UNL     1      -3.587   1.198   2.444  0.00  0.00    +0.100 C 
ATOM      2  C   UNL     1      -4.612   0.150   2.934  0.00  0.00    +0.121 C 
ATOM      3  N   UNL     1      -5.689   0.947   3.568  0.00  0.00    -0.296 N 
ATOM      4  C   UNL     1      -5.838   2.131   2.688  0.00  0.00    +0.115 C 
ATOM      5  C   UNL     1      -4.396   2.496   2.283  0.00  0.00    -0.004 C 
ATOM      6  C   UNL     1      -3.848   3.579   3.207  0.00  0.00    -0.010 C 
ATOM      7  C   UNL     1      -4.632   4.876   2.988  0.00  0.00    -0.082 C 
ATOM      8  N   UNL     1      -4.509   5.293   1.586  0.00  0.00    +0.379 N 
ATOM      9  C   UNL     1      -5.122   4.288   0.709  0.00  0.00    -0.082 C 
ATOM     10  C   UNL     1      -4.359   2.966   0.832  0.00  0.00    -0.010 C 
ATOM     11  C   UNL     1      -6.376   0.661   4.691  0.00  0.00    +0.247 C 
ATOM     12  O   UNL     1      -7.295   1.376   5.040  0.00  0.00    -0.270 OA
ATOM     13  H   UNL     1      -4.975   6.179   1.458  0.00  0.00    -0.086 HD
ATOM     14  H   UNL     1      -3.533   5.392   1.350  0.00  0.00    -0.086 HD
ENDROOT
BRANCH  11  15
ATOM     15  C   UNL     1      -6.013  -0.522   5.498  0.00  0.00    +0.045 A 
ATOM     16  C   UNL     1      -5.841  -1.767   4.881  0.00  0.00    +0.014 A 
ATOM     17  C   UNL     1      -5.503  -2.873   5.631  0.00  0.00    +0.001 A 
ATOM     18  C   UNL     1      -5.329  -2.765   7.002  0.00  0.00    +0.012 A 
ATOM     19  C   UNL     1      -5.495  -1.538   7.634  0.00  0.00    +0.031 A 
ATOM     20  C   UNL     1      -5.834  -0.402   6.882  0.00  0.00    +0.006 A 
ATOM     21  C   UNL     1      -5.940   0.762   7.797  0.00  0.00    -0.006 A 
ATOM     22  C   UNL     1      -6.250   2.096   7.568  0.00  0.00    +0.009 A 
ATOM     23  C   UNL     1      -6.279   2.992   8.625  0.00  0.00    +0.001 A 
ATOM     24  C   UNL     1      -6.002   2.568   9.910  0.00  0.00    +0.001 A 
ATOM     25  C   UNL     1      -5.691   1.240  10.155  0.00  0.00    +0.012 A 
ATOM     26  C   UNL     1      -5.659   0.332   9.105  0.00  0.00    +0.030 A 
ATOM     27  C   UNL     1      -5.379  -1.124   9.053  0.00  0.00    +0.194 C 
ATOM     28  O   UNL     1      -5.095  -1.838   9.992  0.00  0.00    -0.287 OA
ENDBRANCH  11  15
BRANCH   1  30
ATOM     29  N   UNL     1      -1.750   1.159   0.789  0.00  0.00    -0.308 N 
ATOM     30  C   UNL     1      -2.999   0.779   1.121  0.00  0.00    +0.219 C 
ATOM     31  O   UNL     1      -3.651   0.100   0.356  0.00  0.00    -0.275 OA
ATOM     32  H   UNL     1      -1.259   1.767   1.363  0.00  0.00    +0.149 HD
BRANCH  29  33
ATOM     33  C   UNL     1      -1.134   0.654  -0.441  0.00  0.00    +0.103 C 
BRANCH  33  34
ATOM     34  C   UNL     1       0.325   0.370  -0.191  0.00  0.00    -0.027 A 
ATOM     35  C   UNL     1       1.073   1.232   0.590  0.00  0.00    +0.005 A 
ATOM     36  C   UNL     1       2.412   0.971   0.818  0.00  0.00    +0.000 A 
ATOM     37  C   UNL     1       3.002  -0.150   0.267  0.00  0.00    +0.000 A 
ATOM     38  C   UNL     1       2.254  -1.012  -0.514  0.00  0.00    +0.000 A 
ATOM     39  C   UNL     1       0.914  -0.754  -0.739  0.00  0.00    +0.005 A 
ENDBRANCH  33  34
BRANCH  33  41
ATOM     40  C   UNL     1      -2.745   1.883  -1.902  0.00  0.00    +0.006 C 
ATOM     41  C   UNL     1      -1.268   1.702  -1.546  0.00  0.00    +0.024 C 
ENDBRANCH  33  41
ENDBRANCH  29  33
ENDBRANCH   1  30
TORSDOF 5
