REMARK  Name = ZINC16411795
REMARK  8 active torsions:
REMARK  status: ('A' for Active; 'I' for Inactive)
REMARK    1  A    between atoms: C_1  and  C_2
REMARK    2  A    between atoms: C_5  and  C_30
REMARK    3  A    between atoms: C_6  and  N_8
REMARK    4  A    between atoms: C_9  and  C_11
REMARK    5  A    between atoms: C_11  and  C_28
REMARK    6  A    between atoms: C_12  and  C_13
REMARK    7  A    between atoms: C_16  and  C_18
REMARK    8  A    between atoms: C_21  and  N_25
REMARK                            x       y       z     vdW  Elec       q    Type
REMARK                         _______ _______ _______ _____ _____    ______ ____
ROOT
ATOM      1  C   UNL     1      -1.344  -0.698   0.133  0.00  0.00    +0.117 C 
ATOM      2  C   UNL     1      -1.387  -2.086   0.135  0.00  0.00    +0.070 C 
ENDROOT
BRANCH   2   3
ATOM      3  C   UNL     1      -2.618  -2.750   0.252  0.00  0.00    +0.130 A 
ATOM      4  C   UNL     1      -2.803  -4.125   0.262  0.00  0.00    +0.050 A 
ATOM      5  C   UNL     1      -4.173  -4.346   0.398  0.00  0.00    +0.050 A 
ATOM      6  C   UNL     1      -4.778  -3.108   0.459  0.00  0.00    +0.137 A 
ATOM      7  O   UNL     1      -3.828  -2.162   0.369  0.00  0.00    -0.455 OA
BRANCH   6   8
ATOM      8  C   UNL     1      -6.226  -2.864   0.597  0.00  0.00    +0.036 A 
ATOM      9  C   UNL     1      -7.131  -3.507  -0.251  0.00  0.00    +0.015 A 
ATOM     10  C   UNL     1      -8.484  -3.278  -0.112  0.00  0.00    +0.033 A 
ATOM     11  C   UNL     1      -8.946  -2.405   0.858  0.00  0.00    +0.128 A 
ATOM     12  C   UNL     1      -8.057  -1.760   1.698  0.00  0.00    +0.053 A 
ATOM     13  C   UNL     1      -6.700  -1.983   1.575  0.00  0.00    +0.054 A 
ATOM     14 CL   UNL     1      -5.585  -1.173   2.630  0.00  0.00    -0.083 Cl
BRANCH  11  15
ATOM     15  N   UNL     1     -10.399  -2.160   0.996  0.00  0.00    +0.056 N 
ATOM     16  O   UNL     1     -10.809  -1.392   1.848  0.00  0.00    -0.126 OA
ATOM     17  O   UNL     1     -11.185  -2.727   0.257  0.00  0.00    -0.126 OA
ENDBRANCH  11  15
ENDBRANCH   6   8
ENDBRANCH   2   3
BRANCH   1  19
ATOM     18  N   UNL     1      -0.016   1.344   0.009  0.00  0.00    -0.281 N 
ATOM     19  C   UNL     1      -0.058  -0.004   0.011  0.00  0.00    +0.259 C 
ATOM     20  O   UNL     1       0.973  -0.644  -0.089  0.00  0.00    -0.269 OA
ATOM     21  H   UNL     1      -0.841   1.854   0.004  0.00  0.00    +0.155 HD
BRANCH  18  27
ATOM     22  C   UNL     1       4.788   1.343   1.053  0.00  0.00    +0.044 C 
ATOM     23  C   UNL     1       3.561   2.028   0.509  0.00  0.00    -0.049 A 
ATOM     24  C   UNL     1       3.653   3.315   0.009  0.00  0.00    +0.004 A 
ATOM     25  C   UNL     1       2.530   3.948  -0.491  0.00  0.00    +0.005 A 
ATOM     26  C   UNL     1       1.312   3.297  -0.492  0.00  0.00    -0.029 A 
ATOM     27  C   UNL     1       1.216   2.005   0.009  0.00  0.00    +0.037 A 
ATOM     28  C   UNL     1       2.345   1.374   0.516  0.00  0.00    +0.027 A 
ATOM     29  C   UNL     1       0.088   3.987  -1.037  0.00  0.00    +0.045 C 
ENDBRANCH  18  27
ENDBRANCH   1  19
BRANCH   1  30
ATOM     30  C   UNL     1      -2.556   0.056   0.251  0.00  0.00    +0.104 C 
ATOM     31  N   UNL     1      -3.518   0.653   0.345  0.00  0.00    -0.191 NA
ENDBRANCH   1  30
TORSDOF 6
