REMARK  Name = ZINC11600241
REMARK  8 active torsions:
REMARK  status: ('A' for Active; 'I' for Inactive)
REMARK    1  A    between atoms: C_1  and  O_2
REMARK    2  A    between atoms: O_2  and  C_3
REMARK    3  A    between atoms: C_5  and  O_30
REMARK    4  A    between atoms: C_8  and  N_9
REMARK    5  A    between atoms: C_10  and  C_12
REMARK    6  A    between atoms: C_12  and  C_13
REMARK    7  A    between atoms: C_13  and  C_14
REMARK    8  A    between atoms: O_30  and  C_31
REMARK                            x       y       z     vdW  Elec       q    Type
REMARK                         _______ _______ _______ _____ _____    ______ ____
ROOT
ATOM      1  C   UNL     1      -2.039   9.009   3.005  0.00  0.00    +0.104 C 
ENDROOT
BRANCH   1   3
ATOM      2  N   UNL     1      -1.118   7.024   1.852  0.00  0.00    -0.283 N 
ATOM      3  C   UNL     1      -1.825   7.522   2.886  0.00  0.00    +0.218 C 
ATOM      4  O   UNL     1      -2.288   6.774   3.720  0.00  0.00    -0.275 OA
ATOM      5  H   UNL     1      -0.680   7.625   1.229  0.00  0.00    +0.155 HD
BRANCH   2  11
ATOM      6  C   UNL     1       0.067   5.099   0.985  0.00  0.00    +0.145 A 
ATOM      7  C   UNL     1       0.165   3.728   0.812  0.00  0.00    +0.094 A 
ATOM      8  C   UNL     1      -0.815   2.893   1.327  0.00  0.00    +0.142 A 
ATOM      9  C   UNL     1      -1.897   3.430   2.011  0.00  0.00    +0.084 A 
ATOM     10  C   UNL     1      -1.995   4.797   2.189  0.00  0.00    +0.050 A 
ATOM     11  C   UNL     1      -1.016   5.636   1.676  0.00  0.00    +0.077 A 
ATOM     12 CL   UNL     1      -3.126   2.382   2.648  0.00  0.00    -0.080 Cl
BRANCH   6  14
ATOM     13  C   UNL     1       2.109   5.299  -0.217  0.00  0.00    +0.277 C 
ATOM     14  O   UNL     1       1.027   5.919   0.480  0.00  0.00    -0.493 OA
ENDBRANCH   6  14
BRANCH   8  15
ATOM     15  O   UNL     1      -0.718   1.547   1.157  0.00  0.00    -0.494 OA
ATOM     16  C   UNL     1       0.418   1.064   0.439  0.00  0.00    +0.277 C 
ENDBRANCH   8  15
ENDBRANCH   2  11
ENDBRANCH   1   3
BRANCH   1  17
ATOM     17  C   UNL     1      -2.867   9.306   4.258  0.00  0.00    +0.083 C 
BRANCH  17  18
ATOM     18  C   UNL     1      -3.081  10.793   4.377  0.00  0.00    +0.111 A 
ATOM     19  N   UNL     1      -3.795  11.282   5.424  0.00  0.00    -0.310 N 
ATOM     20  H   UNL     1      -4.158  10.666   6.080  0.00  0.00    +0.170 HD
ATOM     21  C   UNL     1      -4.010  12.602   5.569  0.00  0.00    +0.260 A 
ATOM     22  O   UNL     1      -4.653  13.026   6.514  0.00  0.00    -0.267 OA
ATOM     23  C   UNL     1      -3.470  13.503   4.593  0.00  0.00    +0.075 A 
ATOM     24  C   UNL     1      -3.576  14.961   4.546  0.00  0.00    -0.023 A 
ATOM     25  C   UNL     1      -2.974  15.585   3.512  0.00  0.00    -0.004 A 
ATOM     26  S   UNL     1      -2.241  14.286   2.555  0.00  0.00    -0.073 S 
ATOM     27  C   UNL     1      -2.748  12.905   3.548  0.00  0.00    +0.116 A 
ATOM     28  N   UNL     1      -2.573  11.589   3.475  0.00  0.00    -0.227 NA
ATOM     29  C   UNL     1      -2.936  17.058   3.239  0.00  0.00    +0.043 C 
ATOM     30  C   UNL     1      -4.002  17.739   4.109  0.00  0.00    +0.005 C 
ATOM     31  C   UNL     1      -3.873  17.217   5.543  0.00  0.00    +0.005 C 
ATOM     32  C   UNL     1      -4.328  15.759   5.608  0.00  0.00    +0.037 C 
ENDBRANCH  17  18
ENDBRANCH   1  17
TORSDOF 6
