REMARK  Name = ZINC34793639
REMARK  8 active torsions:
REMARK  status: ('A' for Active; 'I' for Inactive)
REMARK    1  A    between atoms: C_1  and  C_2
REMARK    2  A    between atoms: C_3  and  N_19
REMARK    3  A    between atoms: C_4  and  C_14
REMARK    4  A    between atoms: C_7  and  O_9
REMARK    5  A    between atoms: O_9  and  C_10
REMARK    6  A    between atoms: C_10  and  C_11
REMARK    7  A    between atoms: C_10  and  C_12
REMARK    8  A    between atoms: C_10  and  C_13
REMARK                            x       y       z     vdW  Elec       q    Type
REMARK                         _______ _______ _______ _____ _____    ______ ____
ROOT
ATOM      1  C   UNL     1      -0.018   1.503   0.010  0.00  0.00    +0.068 C 
ATOM      2  C   UNL     1       0.002  -0.004   0.002  0.00  0.00    +0.069 A 
ATOM      3  C   UNL     1       0.008  -0.796  -1.094  0.00  0.00    +0.074 A 
ATOM      4  C   UNL     1       0.029  -2.142  -0.656  0.00  0.00    +0.115 A 
ATOM      5  N   UNL     1       0.035  -2.146   0.658  0.00  0.00    -0.159 NA
ATOM      6  N   UNL     1       0.024  -0.817   1.102  0.00  0.00    -0.167 N 
ATOM      7  C   UNL     1       0.031  -0.411   2.387  0.00  0.00    +0.437 C 
ATOM      8  O   UNL     1       0.018   0.775   2.650  0.00  0.00    -0.221 OA
ENDROOT
BRANCH   4   9
ATOM      9  C   UNL     1       0.041  -3.341  -1.530  0.00  0.00    +0.011 A 
ATOM     10  C   UNL     1       0.741  -4.485  -1.158  0.00  0.00    +0.018 A 
ATOM     11  C   UNL     1       0.727  -5.558  -1.980  0.00  0.00    +0.046 A 
ATOM     12  S   UNL     1      -0.288  -4.987  -3.332  0.00  0.00    -0.104 S 
ATOM     13  C   UNL     1      -0.640  -3.349  -2.715  0.00  0.00    +0.055 A 
ENDBRANCH   4   9
BRANCH   3  14
ATOM     14  N   UNL     1      -0.005  -0.360  -2.431  0.00  0.00    -0.355 N 
ATOM     15  H   UNL     1      -0.020   0.589  -2.631  0.00  0.00    +0.142 HD
ATOM     16  H   UNL     1       0.001  -1.008  -3.152  0.00  0.00    +0.142 HD
ENDBRANCH   3  14
BRANCH   7  17
ATOM     17  O   UNL     1       0.053  -1.319   3.380  0.00  0.00    -0.441 OA
BRANCH  17  18
ATOM     18  C   UNL     1       0.060  -0.818   4.718  0.00  0.00    +0.107 C 
ATOM     19  C   UNL     1      -1.199   0.019   4.955  0.00  0.00    +0.055 C 
ATOM     20  C   UNL     1       0.086  -1.990   5.702  0.00  0.00    +0.055 C 
ATOM     21  C   UNL     1       1.300   0.053   4.930  0.00  0.00    +0.055 C 
ENDBRANCH  17  18
ENDBRANCH   7  17
TORSDOF 4
