REMARK  Name = ZINC23562831
REMARK  7 active torsions:
REMARK  status: ('A' for Active; 'I' for Inactive)
REMARK    1  A    between atoms: C_1  and  C_2
REMARK    2  A    between atoms: C_2  and  N_3
REMARK    3  A    between atoms: C_6  and  C_9
REMARK    4  A    between atoms: C_9  and  S_10
REMARK    5  A    between atoms: S_10  and  C_11
REMARK    6  A    between atoms: N_24  and  C_25
REMARK    7  A    between atoms: C_31  and  C_33
REMARK                            x       y       z     vdW  Elec       q    Type
REMARK                         _______ _______ _______ _____ _____    ______ ____
ROOT
ATOM      1  C   UNL     1      -2.617  -6.440  -2.742  0.00  0.00    +0.178 A 
ATOM      2  N   UNL     1      -3.144  -6.895  -1.623  0.00  0.00    -0.215 NA
ATOM      3  C   UNL     1      -2.876  -8.123  -1.196  0.00  0.00    +0.117 A 
ATOM      4  C   UNL     1      -2.019  -8.989  -1.897  0.00  0.00    +0.076 A 
ATOM      5  C   UNL     1      -1.815 -10.309  -1.298  0.00  0.00    -0.023 A 
ATOM      6  C   UNL     1      -2.463 -10.564  -0.143  0.00  0.00    -0.004 A 
ATOM      7  S   UNL     1      -3.370  -9.084   0.213  0.00  0.00    -0.073 S 
ATOM      8  C   UNL     1      -2.421 -11.828   0.661  0.00  0.00    +0.043 C 
ATOM      9  C   UNL     1      -1.820 -12.938  -0.212  0.00  0.00    +0.005 C 
ATOM     10  C   UNL     1      -0.548 -12.405  -0.878  0.00  0.00    +0.005 C 
ATOM     11  C   UNL     1      -0.914 -11.363  -1.936  0.00  0.00    +0.037 C 
ATOM     12  C   UNL     1      -1.457  -8.467  -3.104  0.00  0.00    +0.268 A 
ATOM     13  O   UNL     1      -0.703  -9.147  -3.779  0.00  0.00    -0.267 OA
ATOM     14  N   UNL     1      -1.773  -7.216  -3.486  0.00  0.00    -0.255 N 
ENDROOT
BRANCH  14  15
ATOM     15  C   UNL     1      -1.226  -6.699  -4.668  0.00  0.00    +0.052 A 
ATOM     16  C   UNL     1      -1.817  -6.983  -5.891  0.00  0.00    +0.026 A 
ATOM     17  C   UNL     1      -1.279  -6.467  -7.053  0.00  0.00    +0.002 A 
ATOM     18  C   UNL     1      -0.145  -5.677  -7.001  0.00  0.00    +0.000 A 
ATOM     19  C   UNL     1       0.450  -5.397  -5.785  0.00  0.00    +0.002 A 
ATOM     20  C   UNL     1      -0.087  -5.905  -4.618  0.00  0.00    +0.026 A 
ENDBRANCH  14  15
BRANCH   1  21
ATOM     21  S   UNL     1      -3.001  -4.807  -3.283  0.00  0.00    -0.081 S 
BRANCH  21  22
ATOM     22  C   UNL     1      -4.115  -4.290  -1.954  0.00  0.00    +0.133 C 
BRANCH  22  26
ATOM     23  N   UNL     1      -3.733   0.581  -1.549  0.00  0.00    -0.251 N 
ATOM     24  C   UNL     1      -4.312  -0.613  -1.963  0.00  0.00    +0.167 A 
ATOM     25  N   UNL     1      -3.907  -1.849  -1.747  0.00  0.00    -0.229 NA
ATOM     26  C   UNL     1      -4.584  -2.881  -2.211  0.00  0.00    +0.061 A 
ATOM     27  C   UNL     1      -5.708  -2.645  -2.931  0.00  0.00    +0.072 A 
ATOM     28  S   UNL     1      -5.752  -0.859  -2.901  0.00  0.00    -0.060 S 
ATOM     29  C   UNL     1      -2.552   0.568  -0.900  0.00  0.00    +0.218 C 
ATOM     30  O   UNL     1      -1.960  -0.479  -0.739  0.00  0.00    -0.276 OA
ATOM     31  C   UNL     1      -1.967   1.853  -0.374  0.00  0.00    +0.110 C 
BRANCH  23  33
ATOM     32  C   UNL     1      -5.240   2.259  -0.602  0.00  0.00    +0.025 C 
ATOM     33  C   UNL     1      -4.406   1.854  -1.819  0.00  0.00    +0.112 C 
ENDBRANCH  23  33
ENDBRANCH  22  26
ENDBRANCH  21  22
ENDBRANCH   1  21
TORSDOF 5
