REMARK  Name = ZINC51068162
REMARK  3 active torsions:
REMARK  status: ('A' for Active; 'I' for Inactive)
REMARK    1  A    between atoms: C_7  and  C_20
REMARK    2  A    between atoms: C_23  and  S_26
REMARK    3  A    between atoms: S_26  and  C_27
REMARK                            x       y       z     vdW  Elec       q    Type
REMARK                         _______ _______ _______ _____ _____    ______ ____
ROOT
ATOM      1  C   UNL     1      -0.196   1.321  -0.228  0.00  0.00    +0.033 C 
ATOM      2  C   UNL     1      -0.121  -0.017  -0.160  0.00  0.00    +0.031 C 
ATOM      3  C   UNL     1      -1.337  -0.846  -0.083  0.00  0.00    +0.090 C 
ATOM      4  C   UNL     1      -1.220  -2.185  -0.218  0.00  0.00    +0.249 C 
ATOM      5  O   UNL     1      -2.327  -2.965  -0.184  0.00  0.00    -0.270 OA
ATOM      6  N   UNL     1       0.021  -2.761  -0.392  0.00  0.00    -0.215 N 
ATOM      7  C   UNL     1       0.172  -4.221  -0.356  0.00  0.00    +0.211 C 
ATOM      8  N   UNL     1       1.272  -4.614  -1.241  0.00  0.00    -0.335 N 
ATOM      9  C   UNL     1       2.232  -3.779  -1.532  0.00  0.00    +0.196 C 
ATOM     10  N   UNL     1       2.222  -2.505  -1.103  0.00  0.00    -0.186 NA
ATOM     11  C   UNL     1       1.140  -1.988  -0.562  0.00  0.00    +0.199 C 
ATOM     12  N   UNL     1       1.119  -0.677  -0.165  0.00  0.00    -0.287 N 
ATOM     13  N   UNL     1       3.289  -4.218  -2.304  0.00  0.00    -0.297 N 
ATOM     14  C   UNL     1       3.939  -3.324  -3.276  0.00  0.00    +0.136 C 
ATOM     15  C   UNL     1       5.453  -3.370  -3.039  0.00  0.00    +0.179 C 
ATOM     16  O   UNL     1       5.888  -4.732  -3.039  0.00  0.00    -0.377 OA
ATOM     17  C   UNL     1       5.321  -5.527  -1.995  0.00  0.00    +0.179 C 
ATOM     18  C   UNL     1       3.804  -5.590  -2.175  0.00  0.00    +0.136 C 
ATOM     19  H   UNL     1       1.932  -0.222   0.105  0.00  0.00    +0.155 HD
ATOM     20  H   UNL     1       1.287  -5.508  -1.616  0.00  0.00    +0.164 HD
ENDROOT
BRANCH   7  21
ATOM     21  C   UNL     1       0.477  -4.661   1.052  0.00  0.00    -0.007 A 
ATOM     22  C   UNL     1      -0.014  -3.936   2.123  0.00  0.00    +0.008 A 
ATOM     23  C   UNL     1       0.263  -4.337   3.415  0.00  0.00    +0.015 A 
ATOM     24  C   UNL     1       1.036  -5.469   3.639  0.00  0.00    +0.008 A 
ATOM     25  C   UNL     1       1.528  -6.196   2.561  0.00  0.00    +0.015 A 
ATOM     26  C   UNL     1       1.242  -5.792   1.272  0.00  0.00    +0.008 A 
BRANCH  24  27
ATOM     27  S   UNL     1       1.393  -5.984   5.286  0.00  0.00    -0.129 S 
ATOM     28  C   UNL     1       2.407  -7.472   5.071  0.00  0.00    +0.090 C 
ENDBRANCH  24  27
ENDBRANCH   7  21
TORSDOF 2
