REMARK  Name = ZINC36490968
REMARK  11 active torsions:
REMARK  status: ('A' for Active; 'I' for Inactive)
REMARK    1  A    between atoms: C_1  and  C_2
REMARK    2  A    between atoms: C_2  and  C_3
REMARK    3  A    between atoms: C_2  and  C_4
REMARK    4  A    between atoms: C_2  and  N_5
REMARK    5  A    between atoms: C_6  and  C_8
REMARK    6  A    between atoms: C_8  and  C_10
REMARK    7  A    between atoms: C_8  and  N_17
REMARK    8  A    between atoms: C_13  and  O_16
REMARK    9  A    between atoms: N_17  and  C_18
REMARK   10  A    between atoms: C_24  and  C_26
REMARK   11  A    between atoms: C_30  and  N_32
REMARK                            x       y       z     vdW  Elec       q    Type
REMARK                         _______ _______ _______ _____ _____    ______ ____
ROOT
ATOM      1  N   UNL     1       3.596  -0.831  -3.501  0.00  0.00    -0.279 N 
ATOM      2  C   UNL     1       3.928   0.183  -4.325  0.00  0.00    +0.248 C 
ATOM      3  O   UNL     1       3.200   1.151  -4.421  0.00  0.00    -0.270 OA
ENDROOT
BRANCH   1   4
ATOM      4  C   UNL     1       4.589  -1.853  -3.161  0.00  0.00    +0.077 C 
ATOM      5  C   UNL     1       3.875  -3.153  -2.786  0.00  0.00    +0.022 C 
ATOM      6  C   UNL     1       4.911  -4.221  -2.432  0.00  0.00    +0.002 C 
ATOM      7  C   UNL     1       5.753  -3.741  -1.247  0.00  0.00    +0.000 C 
ATOM      8  C   UNL     1       6.467  -2.441  -1.622  0.00  0.00    +0.002 C 
ATOM      9  C   UNL     1       5.430  -1.373  -1.977  0.00  0.00    +0.022 C 
ENDBRANCH   1   4
BRANCH   2  10
ATOM     10  C   UNL     1       5.178   0.117  -5.113  0.00  0.00    +0.039 A 
ATOM     11  C   UNL     1       6.363  -0.310  -4.512  0.00  0.00    +0.013 A 
ATOM     12  C   UNL     1       7.526  -0.369  -5.252  0.00  0.00    +0.003 A 
ATOM     13  C   UNL     1       7.518  -0.007  -6.588  0.00  0.00    +0.033 A 
ATOM     14  C   UNL     1       6.347   0.417  -7.189  0.00  0.00    +0.127 A 
ATOM     15  C   UNL     1       5.176   0.475  -6.462  0.00  0.00    +0.045 A 
BRANCH  14  16
ATOM     16  N   UNL     1       6.348   0.802  -8.618  0.00  0.00    +0.056 N 
ATOM     17  O   UNL     1       7.372   0.747  -9.258  0.00  0.00    -0.126 OA
ATOM     18  O   UNL     1       5.325   1.173  -9.145  0.00  0.00    -0.126 OA
ENDBRANCH  14  16
ENDBRANCH   2  10
BRANCH   1  19
ATOM     19  C   UNL     1       2.244  -0.910  -2.945  0.00  0.00    +0.193 C 
BRANCH  19  20
ATOM     20  C   UNL     1       1.583  -2.183  -3.409  0.00  0.00    -0.018 A 
ATOM     21  C   UNL     1       0.898  -2.974  -2.505  0.00  0.00    +0.009 A 
ATOM     22  C   UNL     1       0.292  -4.141  -2.928  0.00  0.00    +0.046 A 
ATOM     23  C   UNL     1       0.372  -4.520  -4.260  0.00  0.00    +0.117 A 
ATOM     24  C   UNL     1       1.061  -3.725  -5.165  0.00  0.00    +0.046 A 
ATOM     25  C   UNL     1       1.660  -2.555  -4.738  0.00  0.00    +0.009 A 
BRANCH  23  26
ATOM     26  O   UNL     1      -0.222  -5.668  -4.678  0.00  0.00    -0.507 OA
ATOM     27  H   UNL     1      -1.137  -5.554  -4.971  0.00  0.00    +0.292 HD
ENDBRANCH  23  26
ENDBRANCH  19  20
BRANCH  19  29
ATOM     28  N   UNL     1       1.204  -1.104  -0.709  0.00  0.00    -0.309 N 
ATOM     29  C   UNL     1       2.318  -0.902  -1.440  0.00  0.00    +0.239 C 
ATOM     30  O   UNL     1       3.380  -0.714  -0.886  0.00  0.00    -0.273 OA
ATOM     31  H   UNL     1       0.354  -1.255  -1.152  0.00  0.00    +0.149 HD
BRANCH  28  33
ATOM     32  C   UNL     1       1.790   0.263   1.232  0.00  0.00    +0.031 C 
ATOM     33  C   UNL     1       1.276  -1.097   0.754  0.00  0.00    +0.026 C 
ATOM     34  C   UNL     1       2.230  -2.197   1.223  0.00  0.00    +0.031 C 
ATOM     35  C   UNL     1      -0.117  -1.348   1.335  0.00  0.00    +0.031 C 
ENDBRANCH  28  33
ENDBRANCH  19  29
ENDBRANCH   1  19
TORSDOF 8
