REMARK  Name = ZINC13366230
REMARK  11 active torsions:
REMARK  status: ('A' for Active; 'I' for Inactive)
REMARK    1  A    between atoms: C_1  and  C_2
REMARK    2  A    between atoms: C_5  and  C_8
REMARK    3  A    between atoms: C_8  and  N_9
REMARK    4  A    between atoms: C_11  and  C_15
REMARK    5  A    between atoms: C_12  and  C_14
REMARK    6  A    between atoms: C_16  and  C_17
REMARK    7  A    between atoms: C_17  and  C_19
REMARK    8  A    between atoms: C_22  and  S_25
REMARK    9  A    between atoms: S_25  and  N_28
REMARK   10  A    between atoms: N_28  and  C_29
REMARK   11  A    between atoms: C_29  and  C_30
REMARK                            x       y       z     vdW  Elec       q    Type
REMARK                         _______ _______ _______ _____ _____    ______ ____
ROOT
ATOM      1  C   UNL     1      -1.440   6.789  -6.425  0.00  0.00    +0.016 C 
ATOM      2  C   UNL     1      -1.351   6.110  -5.257  0.00  0.00    +0.052 C 
ENDROOT
BRANCH   1   5
ATOM      3  N   UNL     1      -0.526  10.280  -6.094  0.00  0.00    -0.248 N 
ATOM      4  C   UNL     1      -1.196   9.204  -5.648  0.00  0.00    +0.135 A 
ATOM      5  C   UNL     1      -0.923   8.159  -6.518  0.00  0.00    +0.034 A 
ATOM      6  C   UNL     1      -0.048   8.663  -7.509  0.00  0.00    +0.069 A 
ATOM      7  N   UNL     1       0.175   9.921  -7.250  0.00  0.00    -0.174 NA
ATOM      8  C   UNL     1       0.524   7.882  -8.665  0.00  0.00    +0.068 C 
ATOM      9 CL   UNL     1      -2.213   9.134  -4.243  0.00  0.00    -0.062 Cl
BRANCH   3  10
ATOM     10  C   UNL     1      -0.529  11.607  -5.473  0.00  0.00    +0.180 C 
BRANCH  10  15
ATOM     11  C   UNL     1       3.761  11.940  -1.616  0.00  0.00    +0.044 C 
ATOM     12  C   UNL     1       2.642  11.854  -2.622  0.00  0.00    -0.050 A 
ATOM     13  C   UNL     1       2.866  12.215  -3.937  0.00  0.00    +0.004 A 
ATOM     14  C   UNL     1       1.840  12.135  -4.860  0.00  0.00    +0.006 A 
ATOM     15  C   UNL     1       0.590  11.694  -4.467  0.00  0.00    -0.026 A 
ATOM     16  C   UNL     1       0.364  11.338  -3.151  0.00  0.00    +0.006 A 
ATOM     17  C   UNL     1       1.392  11.414  -2.229  0.00  0.00    +0.004 A 
ENDBRANCH  10  15
ENDBRANCH   3  10
ENDBRANCH   1   5
BRANCH   2  18
ATOM     18  C   UNL     1      -1.849   4.789  -5.167  0.00  0.00    +0.186 C 
ATOM     19  O   UNL     1      -2.358   4.262  -6.140  0.00  0.00    -0.287 OA
BRANCH  18  20
ATOM     20  C   UNL     1      -1.752   4.046  -3.891  0.00  0.00    +0.022 A 
ATOM     21  C   UNL     1      -2.242   2.743  -3.799  0.00  0.00    +0.013 A 
ATOM     22  C   UNL     1      -2.149   2.057  -2.606  0.00  0.00    +0.029 A 
ATOM     23  C   UNL     1      -1.571   2.658  -1.502  0.00  0.00    +0.105 A 
ATOM     24  C   UNL     1      -1.087   3.952  -1.585  0.00  0.00    +0.029 A 
ATOM     25  C   UNL     1      -1.170   4.647  -2.773  0.00  0.00    +0.013 A 
BRANCH  23  26
ATOM     26  S   UNL     1      -1.456   1.774   0.019  0.00  0.00    +0.059 S 
ATOM     27  O   UNL     1      -2.475   0.784  -0.009  0.00  0.00    -0.153 OA
ATOM     28  O   UNL     1      -1.369   2.749   1.049  0.00  0.00    -0.153 OA
BRANCH  26  29
ATOM     29  N   UNL     1      -0.011   0.966   0.007  0.00  0.00    -0.179 NA
ATOM     30  H   UNL     1       0.002  -0.004   0.002  0.00  0.00    +0.149 HD
BRANCH  29  31
ATOM     31  C   UNL     1       1.248   1.716  -0.001  0.00  0.00    +0.230 C 
BRANCH  31  32
ATOM     32  C   UNL     1       2.385   0.791   0.351  0.00  0.00    +0.371 C 
ATOM     33  O   UNL     1       2.167  -0.374   0.585  0.00  0.00    -0.245 OA
ATOM     34  O   UNL     1       3.640   1.263   0.405  0.00  0.00    -0.245 OA
ENDBRANCH  31  32
ENDBRANCH  29  31
ENDBRANCH  26  29
ENDBRANCH  23  26
ENDBRANCH  18  20
ENDBRANCH   2  18
TORSDOF 9
