REMARK  Name = ZINC08569933
REMARK  6 active torsions:
REMARK  status: ('A' for Active; 'I' for Inactive)
REMARK    1  A    between atoms: C_7  and  C_18
REMARK    2  A    between atoms: C_7  and  O_30
REMARK    3  A    between atoms: N_10  and  C_11
REMARK    4  A    between atoms: C_11  and  N_57
REMARK    5  A    between atoms: C_18  and  C_19
REMARK    6  A    between atoms: C_19  and  C_21
REMARK                            x       y       z     vdW  Elec       q    Type
REMARK                         _______ _______ _______ _____ _____    ______ ____
ROOT
ATOM      1  C   UNL     1      -9.329   0.043  -0.203  0.00  0.00    +0.000 A 
ATOM      2  C   UNL     1      -9.918   0.464   0.976  0.00  0.00    +0.002 A 
ATOM      3  C   UNL     1      -9.295   1.404   1.770  0.00  0.00    +0.024 A 
ATOM      4  C   UNL     1      -8.065   1.937   1.389  0.00  0.00    +0.041 A 
ATOM      5  C   UNL     1      -7.484   1.506   0.204  0.00  0.00    +0.014 A 
ATOM      6  C   UNL     1      -8.107   0.567  -0.587  0.00  0.00    +0.009 A 
ATOM      7  C   UNL     1      -6.179   2.257   0.072  0.00  0.00    +0.175 C 
ATOM      8  C   UNL     1      -6.130   3.129   1.308  0.00  0.00    +0.255 C 
ATOM      9  O   UNL     1      -5.247   3.903   1.609  0.00  0.00    -0.272 OA
ATOM     10  N   UNL     1      -7.250   2.884   2.010  0.00  0.00    -0.285 N 
ENDROOT
BRANCH   7  11
ATOM     11  O   UNL     1      -6.180   3.059  -1.110  0.00  0.00    -0.374 OA
ATOM     12  H   UNL     1      -5.378   3.586  -1.229  0.00  0.00    +0.211 HD
ENDBRANCH   7  11
BRANCH  10  13
ATOM     13  C   UNL     1      -7.577   3.536   3.280  0.00  0.00    +0.038 C 
BRANCH  13  20
ATOM     14  C   UNL     1      -7.864   1.544   4.641  0.00  0.00    -0.077 C 
ATOM     15  C   UNL     1      -7.514   0.850   5.929  0.00  0.00    -0.019 C 
ATOM     16  C   UNL     1      -8.443   1.381   7.041  0.00  0.00    -0.002 C 
ATOM     17  C   UNL     1      -8.020   2.687   7.535  0.00  0.00    -0.002 C 
ATOM     18  C   UNL     1      -8.033   3.761   6.428  0.00  0.00    -0.019 C 
ATOM     19  C   UNL     1      -6.800   3.590   5.582  0.00  0.00    -0.077 C 
ATOM     20  N   UNL     1      -6.989   2.732   4.363  0.00  0.00    +0.390 N 
ATOM     21  H   UNL     1      -6.068   2.393   4.061  0.00  0.00    -0.080 HD
ENDBRANCH  13  20
ENDBRANCH  10  13
BRANCH   7  22
ATOM     22  C   UNL     1      -4.999   1.283   0.056  0.00  0.00    +0.129 C 
BRANCH  22  23
ATOM     23  C   UNL     1      -3.707   2.059   0.048  0.00  0.00    +0.167 C 
ATOM     24  O   UNL     1      -3.728   3.272   0.054  0.00  0.00    -0.292 OA
BRANCH  23  25
ATOM     25  C   UNL     1      -2.423   1.347   0.032  0.00  0.00    +0.021 A 
ATOM     26  C   UNL     1      -2.396  -0.053   0.024  0.00  0.00    +0.015 A 
ATOM     27  C   UNL     1      -1.190  -0.717   0.009  0.00  0.00    +0.050 A 
ATOM     28  C   UNL     1       0.002  -0.004   0.002  0.00  0.00    +0.166 A 
ATOM     29  C   UNL     1      -0.017   1.392   0.010  0.00  0.00    +0.167 A 
ATOM     30  C   UNL     1      -1.221   2.066   0.030  0.00  0.00    +0.061 A 
ATOM     31  O   UNL     1       1.271   1.845  -0.000  0.00  0.00    -0.453 OA
ATOM     32  C   UNL     1       2.076   0.720   0.399  0.00  0.00    +0.466 C 
ATOM     33  O   UNL     1       1.300  -0.421  -0.013  0.00  0.00    -0.453 OA
ENDBRANCH  23  25
ENDBRANCH  22  23
ENDBRANCH   7  22
TORSDOF 6
