REMARK  Name = ZINC64840330
REMARK  12 active torsions:
REMARK  status: ('A' for Active; 'I' for Inactive)
REMARK    1  A    between atoms: C_1  and  C_2
REMARK    2  A    between atoms: C_5  and  N_9
REMARK    3  A    between atoms: C_6  and  C_8
REMARK    4  A    between atoms: N_12  and  C_13
REMARK    5  A    between atoms: N_12  and  C_14
REMARK    6  A    between atoms: C_14  and  C_15
REMARK    7  A    between atoms: C_15  and  C_16
REMARK    8  A    between atoms: C_18  and  C_21
REMARK    9  A    between atoms: C_21  and  O_22
REMARK   10  A    between atoms: O_22  and  C_23
REMARK   11  A    between atoms: C_25  and  C_30
REMARK   12  A    between atoms: C_27  and  C_29
REMARK                            x       y       z     vdW  Elec       q    Type
REMARK                         _______ _______ _______ _____ _____    ______ ____
ROOT
ATOM      1  C   UNL     1       1.169  -7.253  -2.966  0.00  0.00    +0.098 C 
ENDROOT
BRANCH   1   2
ATOM      2  C   UNL     1       1.059  -8.001  -4.270  0.00  0.00    +0.173 A 
ATOM      3  N   UNL     1       0.965  -9.329  -4.399  0.00  0.00    -0.193 NA
ATOM      4  C   UNL     1       0.885  -9.652  -5.660  0.00  0.00    +0.265 A 
ATOM      5  O   UNL     1       0.926  -8.527  -6.384  0.00  0.00    -0.334 OA
ATOM      6  N   UNL     1       1.034  -7.460  -5.453  0.00  0.00    -0.061 NA
BRANCH   4   7
ATOM      7  C   UNL     1       0.766 -11.051  -6.208  0.00  0.00    +0.327 C 
BRANCH   7   8
ATOM      8  O   UNL     1      -0.614 -11.404  -6.319  0.00  0.00    -0.483 OA
BRANCH   8   9
ATOM      9  C   UNL     1      -0.897 -12.643  -6.801  0.00  0.00    +0.122 A 
ATOM     10  C   UNL     1       0.132 -13.503  -7.154  0.00  0.00    +0.049 A 
ATOM     11  C   UNL     1      -0.159 -14.762  -7.643  0.00  0.00    -0.047 A 
ATOM     12  C   UNL     1      -1.474 -15.164  -7.781  0.00  0.00    +0.007 A 
ATOM     13  C   UNL     1      -2.502 -14.309  -7.430  0.00  0.00    -0.047 A 
ATOM     14  C   UNL     1      -2.216 -13.051  -6.934  0.00  0.00    +0.049 A 
ATOM     15  C   UNL     1      -3.935 -14.750  -7.582  0.00  0.00    +0.044 C 
ATOM     16  C   UNL     1       0.959 -15.697  -8.027  0.00  0.00    +0.044 C 
ENDBRANCH   8   9
ENDBRANCH   7   8
ENDBRANCH   4   7
ENDBRANCH   1   2
BRANCH   1  17
ATOM     17  C   UNL     1      -0.231  -6.911  -2.454  0.00  0.00    +0.117 C 
BRANCH  17  21
ATOM     18  N   UNL     1       0.058  -4.170  -0.021  0.00  0.00    -0.269 N 
ATOM     19  C   UNL     1      -0.041  -4.839  -1.187  0.00  0.00    +0.306 C 
ATOM     20  O   UNL     1      -0.054  -4.229  -2.239  0.00  0.00    -0.252 OA
ATOM     21  N   UNL     1      -0.124  -6.184  -1.187  0.00  0.00    -0.288 N 
ATOM     22  C   UNL     1      -0.108  -6.919   0.080  0.00  0.00    +0.133 C 
ATOM     23  H   UNL     1       0.134  -4.659   0.814  0.00  0.00    +0.156 HD
BRANCH  18  28
ATOM     24  C   UNL     1       0.027   1.503   0.005  0.00  0.00    +0.044 C 
ATOM     25  C   UNL     1       0.035  -0.004  -0.001  0.00  0.00    -0.050 A 
ATOM     26  C   UNL     1       0.633  -0.686  -1.046  0.00  0.00    +0.005 A 
ATOM     27  C   UNL     1       0.643  -2.067  -1.055  0.00  0.00    +0.024 A 
ATOM     28  C   UNL     1       0.051  -2.771  -0.014  0.00  0.00    +0.038 A 
ATOM     29  C   UNL     1      -0.549  -2.083   1.033  0.00  0.00    -0.029 A 
ATOM     30  C   UNL     1      -0.550  -0.702   1.039  0.00  0.00    +0.008 A 
ATOM     31  C   UNL     1      -1.193  -2.843   2.163  0.00  0.00    +0.045 C 
ENDBRANCH  18  28
ENDBRANCH  17  21
ENDBRANCH   1  17
TORSDOF 7
