REMARK  Name = ZINC09509247
REMARK  12 active torsions:
REMARK  status: ('A' for Active; 'I' for Inactive)
REMARK    1  A    between atoms: C_1  and  C_2
REMARK    2  A    between atoms: C_6  and  C_30
REMARK    3  A    between atoms: C_7  and  O_8
REMARK    4  A    between atoms: O_8  and  C_9
REMARK    5  A    between atoms: C_9  and  C_11
REMARK    6  A    between atoms: C_9  and  C_12
REMARK    7  A    between atoms: N_14  and  N_15
REMARK    8  A    between atoms: C_16  and  C_18
REMARK    9  A    between atoms: C_21  and  S_24
REMARK   10  A    between atoms: S_24  and  N_27
REMARK   11  A    between atoms: N_27  and  C_28
REMARK   12  A    between atoms: N_27  and  C_29
REMARK                            x       y       z     vdW  Elec       q    Type
REMARK                         _______ _______ _______ _____ _____    ______ ____
ROOT
ATOM      1  C   UNL     1      -0.175   1.038  -1.096  0.00  0.00    +0.270 C 
ATOM      2  O   UNL     1      -0.246   0.063  -0.378  0.00  0.00    -0.270 OA
ATOM      3  N   UNL     1       0.161   0.897  -2.393  0.00  0.00    -0.231 N 
ATOM      4  H   UNL     1       0.218   1.677  -2.967  0.00  0.00    +0.173 HD
ENDROOT
BRANCH   3   5
ATOM      5  N   UNL     1       0.429  -0.376  -2.913  0.00  0.00    -0.230 N 
ATOM      6  C   UNL     1       0.765  -0.517  -4.211  0.00  0.00    +0.260 C 
ATOM      7  O   UNL     1       0.836   0.460  -4.930  0.00  0.00    -0.269 OA
ATOM      8  H   UNL     1       0.372  -1.156  -2.339  0.00  0.00    +0.173 HD
BRANCH   6   9
ATOM      9  C   UNL     1       1.047  -1.861  -4.759  0.00  0.00    +0.038 A 
ATOM     10  C   UNL     1       0.972  -2.984  -3.934  0.00  0.00    +0.015 A 
ATOM     11  C   UNL     1       1.231  -4.236  -4.454  0.00  0.00    +0.029 A 
ATOM     12  C   UNL     1       1.576  -4.378  -5.786  0.00  0.00    +0.105 A 
ATOM     13  C   UNL     1       1.658  -3.267  -6.608  0.00  0.00    +0.029 A 
ATOM     14  C   UNL     1       1.395  -2.011  -6.102  0.00  0.00    +0.015 A 
BRANCH  12  15
ATOM     15  S   UNL     1       1.912  -5.979  -6.440  0.00  0.00    +0.060 S 
ATOM     16  O   UNL     1       1.237  -6.909  -5.604  0.00  0.00    -0.153 OA
ATOM     17  O   UNL     1       1.679  -5.903  -7.840  0.00  0.00    -0.153 OA
BRANCH  15  18
ATOM     18  N   UNL     1       3.533  -6.257  -6.245  0.00  0.00    -0.183 NA
ATOM     19  C   UNL     1       4.024  -6.893  -5.020  0.00  0.00    +0.131 C 
ATOM     20  C   UNL     1       4.475  -5.868  -7.297  0.00  0.00    +0.131 C 
ENDBRANCH  15  18
ENDBRANCH  12  15
ENDBRANCH   6   9
ENDBRANCH   3   5
BRANCH   1  21
ATOM     21  C   UNL     1      -0.463   2.408  -0.537  0.00  0.00    +0.257 C 
ATOM     22  C   UNL     1      -1.714   2.980  -1.207  0.00  0.00    +0.062 C 
BRANCH  21  23
ATOM     23  O   UNL     1      -0.679   2.312   0.873  0.00  0.00    -0.479 OA
BRANCH  23  30
ATOM     24  C   UNL     1       2.037   2.535   1.617  0.00  0.00    +0.047 C 
ATOM     25  C   UNL     1       0.997   3.548   2.022  0.00  0.00    -0.007 A 
ATOM     26  C   UNL     1       1.358   4.642   2.785  0.00  0.00    +0.027 A 
ATOM     27  C   UNL     1       0.403   5.569   3.162  0.00  0.00    +0.042 A 
ATOM     28  C   UNL     1      -0.914   5.406   2.772  0.00  0.00    +0.027 A 
ATOM     29  C   UNL     1      -1.279   4.316   2.005  0.00  0.00    -0.007 A 
ATOM     30  C   UNL     1      -0.322   3.385   1.626  0.00  0.00    +0.127 A 
ATOM     31  C   UNL     1      -2.714   4.138   1.582  0.00  0.00    +0.047 C 
ATOM     32 CL   UNL     1       0.858   6.941   4.125  0.00  0.00    -0.084 Cl
ENDBRANCH  23  30
ENDBRANCH  21  23
ENDBRANCH   1  21
TORSDOF 7
