REMARK  Name = ZINC22472597
REMARK  6 active torsions:
REMARK  status: ('A' for Active; 'I' for Inactive)
REMARK    1  A    between atoms: C_9  and  O_10
REMARK    2  A    between atoms: N_12  and  C_13
REMARK    3  A    between atoms: C_13  and  C_14
REMARK    4  A    between atoms: C_14  and  N_15
REMARK    5  A    between atoms: C_21  and  C_23
REMARK    6  A    between atoms: C_24  and  C_25
REMARK                            x       y       z     vdW  Elec       q    Type
REMARK                         _______ _______ _______ _____ _____    ______ ____
ROOT
ATOM      1  C   UNL     1      -3.641   2.362   0.015  0.00  0.00    -0.057 C 
ENDROOT
BRANCH   1   2
ATOM      2  N   UNL     1      -4.912   1.625   0.021  0.00  0.00    +0.383 N 
ATOM      3  C   UNL     1      -5.095   0.881  -1.232  0.00  0.00    -0.059 C 
ATOM      4  C   UNL     1      -6.335  -0.012  -1.115  0.00  0.00    +0.089 C 
ATOM      5  N   UNL     1      -7.477   0.824  -0.716  0.00  0.00    -0.302 N 
ATOM      6  C   UNL     1      -7.321   1.702   0.453  0.00  0.00    +0.089 C 
ATOM      7  C   UNL     1      -6.043   2.528   0.275  0.00  0.00    -0.059 C 
ATOM      8  C   UNL     1      -8.635   0.786  -1.403  0.00  0.00    +0.239 C 
ATOM      9  O   UNL     1      -9.599   1.416  -1.007  0.00  0.00    -0.271 OA
ATOM     10  H   UNL     1      -4.877   0.894   0.842  0.00  0.00    -0.082 HD
BRANCH   8  11
ATOM     11  C   UNL     1      -8.732   0.014  -2.586  0.00  0.00    +0.071 C 
ATOM     12  C   UNL     1      -9.860   0.062  -3.337  0.00  0.00    +0.051 C 
BRANCH  12  13
ATOM     13  C   UNL     1      -9.957  -0.710  -4.520  0.00  0.00    +0.128 A 
ATOM     14  C   UNL     1     -11.041  -0.761  -5.371  0.00  0.00    +0.049 A 
ATOM     15  C   UNL     1     -10.696  -1.644  -6.405  0.00  0.00    +0.042 A 
ATOM     16  C   UNL     1      -9.448  -2.094  -6.147  0.00  0.00    +0.195 A 
ATOM     17  O   UNL     1      -9.007  -1.531  -5.013  0.00  0.00    -0.464 OA
ENDBRANCH  12  13
ENDBRANCH   8  11
ENDBRANCH   1   2
BRANCH   1  18
ATOM     18  C   UNL     1      -2.476   1.370  -0.001  0.00  0.00    +0.094 C 
BRANCH  18  29
ATOM     19  C   UNL     1       2.541   4.168  -0.040  0.00  0.00    +0.001 A 
ATOM     20  C   UNL     1       3.716   3.432  -0.060  0.00  0.00    +0.004 A 
ATOM     21  C   UNL     1       3.682   2.053  -0.067  0.00  0.00    +0.047 A 
ATOM     22  C   UNL     1       2.462   1.389  -0.055  0.00  0.00    +0.141 A 
ATOM     23  C   UNL     1       1.272   2.134  -0.035  0.00  0.00    +0.041 A 
ATOM     24  C   UNL     1       1.320   3.529  -0.027  0.00  0.00    +0.013 A 
ATOM     25  C   UNL     1      -0.015   1.418  -0.022  0.00  0.00    +0.053 A 
ATOM     26  C   UNL     1       0.012   0.047  -0.031  0.00  0.00    +0.113 A 
ATOM     27  C   UNL     1       1.242  -0.623  -0.052  0.00  0.00    +0.286 A 
ATOM     28  O   UNL     1       2.410   0.040  -0.063  0.00  0.00    -0.425 OA
ATOM     29  N   UNL     1      -1.209   2.105  -0.007  0.00  0.00    -0.385 N 
ATOM     30  H   UNL     1      -1.211   3.205  -0.000  0.00  0.00    +0.160 HD
BRANCH  27  31
ATOM     31  O   UNL     1       1.252  -1.841  -0.060  0.00  0.00    -0.480 OA
ATOM     32  H   UNL     1       2.210  -2.383  -0.076  0.00  0.00    +0.295 HD
ENDBRANCH  27  31
ENDBRANCH  18  29
ENDBRANCH   1  18
TORSDOF 6
