REMARK  Name = ZINC62525588
REMARK  2 active torsions:
REMARK  status: ('A' for Active; 'I' for Inactive)
REMARK    1  A    between atoms: C_1  and  C_2
REMARK    2  A    between atoms: C_11  and  C_15
REMARK                            x       y       z     vdW  Elec       q    Type
REMARK                         _______ _______ _______ _____ _____    ______ ____
ROOT
ATOM      1  C   UNL     1      -0.018   1.503   0.010  0.00  0.00    +0.045 C 
ATOM      2  C   UNL     1       0.002  -0.004   0.002  0.00  0.00    -0.030 A 
ATOM      3  C   UNL     1       0.006  -0.687  -1.202  0.00  0.00    +0.031 A 
ATOM      4  C   UNL     1       0.023  -2.072  -1.204  0.00  0.00    +0.070 A 
ATOM      5  C   UNL     1       0.031  -2.772  -0.002  0.00  0.00    +0.143 A 
ATOM      6  C   UNL     1       0.033  -2.085   1.199  0.00  0.00    +0.067 A 
ATOM      7  C   UNL     1       0.023  -0.700   1.197  0.00  0.00    +0.047 A 
ATOM      8 CL   UNL     1       0.030   0.166   2.702  0.00  0.00    -0.083 Cl
ATOM      9  O   UNL     1       0.026  -4.139  -0.016  0.00  0.00    -0.490 OA
ATOM     10  C   UNL     1       1.210  -4.772  -0.495  0.00  0.00    +0.234 C 
ATOM     11  C   UNL     1       1.182  -4.920  -2.010  0.00  0.00    +0.040 C 
ATOM     12  C   UNL     1       1.233  -3.584  -2.726  0.00  0.00    +0.108 C 
ATOM     13  N   UNL     1       0.039  -2.788  -2.410  0.00  0.00    -0.341 N 
ATOM     14  C   UNL     1       2.383  -5.761  -2.447  0.00  0.00    +0.012 C 
ATOM     15  H   UNL     1      -0.716  -2.759  -3.018  0.00  0.00    +0.146 HD
ENDROOT
TORSDOF 0
