REMARK  Name = ZINC08131934
REMARK  4 active torsions:
REMARK  status: ('A' for Active; 'I' for Inactive)
REMARK    1  A    between atoms: C_1  and  C_2
REMARK    2  A    between atoms: N_11  and  C_15
REMARK    3  A    between atoms: C_15  and  C_16
REMARK    4  A    between atoms: C_16  and  C_18
REMARK                            x       y       z     vdW  Elec       q    Type
REMARK                         _______ _______ _______ _____ _____    ______ ____
ROOT
ATOM      1  C   UNL     1      -0.019   1.526   0.010  0.00  0.00    +0.010 C 
ATOM      2  C   UNL     1       0.002  -0.004   0.002  0.00  0.00    +0.018 C 
ATOM      3  C   UNL     1       0.718  -0.497  -1.258  0.00  0.00    +0.006 C 
ATOM      4  C   UNL     1       0.756  -2.027  -1.256  0.00  0.00    +0.000 C 
ATOM      5  C   UNL     1       1.519  -2.517  -0.023  0.00  0.00    +0.003 C 
ATOM      6  C   UNL     1       0.807  -2.032   1.242  0.00  0.00    +0.035 C 
ATOM      7  C   UNL     1       0.739  -0.509   1.238  0.00  0.00    +0.115 C 
ATOM      8  C   UNL     1       2.128   0.083   1.303  0.00  0.00    +0.247 C 
ATOM      9  O   UNL     1       3.022  -0.055   0.496  0.00  0.00    -0.273 OA
ATOM     10  N   UNL     1       2.163   0.796   2.447  0.00  0.00    -0.217 N 
ATOM     11  C   UNL     1       0.998   0.734   3.103  0.00  0.00    +0.310 C 
ATOM     12  O   UNL     1       0.786   1.296   4.159  0.00  0.00    -0.252 OA
ATOM     13  N   UNL     1       0.086  -0.021   2.460  0.00  0.00    -0.285 N 
ATOM     14  H   UNL     1      -0.822  -0.205   2.747  0.00  0.00    +0.151 HD
ENDROOT
BRANCH  10  15
ATOM     15  C   UNL     1       3.332   1.546   2.915  0.00  0.00    +0.197 C 
BRANCH  15  16
ATOM     16  C   UNL     1       3.277   2.951   2.373  0.00  0.00    +0.181 C 
ATOM     17  O   UNL     1       2.353   3.293   1.666  0.00  0.00    -0.290 OA
BRANCH  16  18
ATOM     18  C   UNL     1       4.343   3.906   2.701  0.00  0.00    +0.023 A 
ATOM     19  C   UNL     1       5.414   3.512   3.513  0.00  0.00    +0.015 A 
ATOM     20  C   UNL     1       6.412   4.410   3.818  0.00  0.00    +0.050 A 
ATOM     21  C   UNL     1       6.361   5.708   3.325  0.00  0.00    +0.166 A 
ATOM     22  C   UNL     1       5.296   6.108   2.515  0.00  0.00    +0.167 A 
ATOM     23  C   UNL     1       4.295   5.212   2.199  0.00  0.00    +0.061 A 
ATOM     24  O   UNL     1       5.482   7.415   2.167  0.00  0.00    -0.453 OA
ATOM     25  C   UNL     1       6.451   7.927   3.101  0.00  0.00    +0.466 C 
ATOM     26  O   UNL     1       7.209   6.763   3.480  0.00  0.00    -0.453 OA
ENDBRANCH  16  18
ENDBRANCH  15  16
ENDBRANCH  10  15
TORSDOF 3
