REMARK  Name = ZINC48026304
REMARK  8 active torsions:
REMARK  status: ('A' for Active; 'I' for Inactive)
REMARK    1  A    between atoms: C_3  and  O_8
REMARK    2  A    between atoms: O_8  and  C_9
REMARK    3  A    between atoms: C_9  and  C_10
REMARK    4  A    between atoms: C_10  and  C_12
REMARK    5  A    between atoms: C_10  and  O_23
REMARK    6  A    between atoms: C_12  and  N_13
REMARK    7  A    between atoms: C_16  and  C_19
REMARK    8  A    between atoms: C_19  and  C_20
REMARK                            x       y       z     vdW  Elec       q    Type
REMARK                         _______ _______ _______ _____ _____    ______ ____
ROOT
ATOM      1  C   UNL     1       7.250   1.478   0.066  0.00  0.00    -0.044 C 
ENDROOT
BRANCH   1   2
ATOM      2  N   UNL     1       8.395   2.392   0.179  0.00  0.00    +0.381 N 
ATOM      3  C   UNL     1       8.293   3.146   1.434  0.00  0.00    -0.078 C 
ATOM      4  C   UNL     1       9.439   4.157   1.520  0.00  0.00    -0.015 C 
ATOM      5  C   UNL     1      10.776   3.409   1.478  0.00  0.00    -0.006 C 
ATOM      6  C   UNL     1      10.838   2.567   0.200  0.00  0.00    -0.015 C 
ATOM      7  C   UNL     1       9.641   1.616   0.164  0.00  0.00    -0.078 C 
ATOM      8  H   UNL     1       8.389   3.034  -0.599  0.00  0.00    -0.082 HD
BRANCH   5   9
ATOM      9  C   UNL     1      11.926   4.418   1.483  0.00  0.00    +0.099 C 
BRANCH   9  10
ATOM     10  C   UNL     1      13.239   3.683   1.565  0.00  0.00    +0.211 C 
ATOM     11  O   UNL     1      13.253   2.471   1.615  0.00  0.00    -0.276 OA
ATOM     12  N   UNL     1      14.397   4.371   1.584  0.00  0.00    -0.329 N 
ATOM     13  H   UNL     1      14.386   5.340   1.544  0.00  0.00    +0.145 HD
ATOM     14  H   UNL     1      15.242   3.897   1.637  0.00  0.00    +0.145 HD
ENDBRANCH   9  10
ENDBRANCH   5   9
ENDBRANCH   1   2
BRANCH   1  15
ATOM     15  C   UNL     1       5.958   2.291  -0.043  0.00  0.00    +0.135 C 
BRANCH  15  16
ATOM     16  O   UNL     1       5.967   3.039  -1.261  0.00  0.00    -0.390 OA
ATOM     17  H   UNL     1       6.029   2.494  -2.057  0.00  0.00    +0.210 HD
ENDBRANCH  15  16
BRANCH  15  18
ATOM     18  C   UNL     1       4.757   1.343  -0.037  0.00  0.00    +0.258 C 
BRANCH  18  19
ATOM     19  O   UNL     1       3.548   2.105  -0.021  0.00  0.00    -0.489 OA
BRANCH  19  22
ATOM     20  C   UNL     1      -0.017   1.378   0.010  0.00  0.00    +0.005 A 
ATOM     21  C   UNL     1       1.170   2.087   0.002  0.00  0.00    +0.046 A 
ATOM     22  C   UNL     1       2.381   1.410  -0.013  0.00  0.00    +0.122 A 
ATOM     23  C   UNL     1       2.398   0.023  -0.021  0.00  0.00    +0.061 A 
ATOM     24  C   UNL     1       1.208  -0.682  -0.013  0.00  0.00    +0.021 A 
ATOM     25  C   UNL     1       0.002  -0.004   0.002  0.00  0.00    +0.015 A 
ATOM     26 BR   UNL     1       1.230  -2.573  -0.024  0.00  0.00    -0.050 Br
ENDBRANCH  19  22
ENDBRANCH  18  19
ENDBRANCH  15  18
ENDBRANCH   1  15
TORSDOF 8
