REMARK  Name = ZINC21811820
REMARK  6 active torsions:
REMARK  status: ('A' for Active; 'I' for Inactive)
REMARK    1  A    between atoms: C_1  and  C_2
REMARK    2  A    between atoms: C_2  and  C_22
REMARK    3  A    between atoms: N_14  and  C_15
REMARK    4  A    between atoms: C_15  and  C_16
REMARK    5  A    between atoms: C_16  and  N_17
REMARK    6  A    between atoms: N_24  and  C_25
REMARK                            x       y       z     vdW  Elec       q    Type
REMARK                         _______ _______ _______ _____ _____    ______ ____
ROOT
ATOM      1  C   UNL     1      -4.079   4.869  -0.317  0.00  0.00    +0.043 C 
ATOM      2  C   UNL     1      -2.977   3.852  -0.619  0.00  0.00    +0.128 C 
ATOM      3  C   UNL     1      -1.689   4.297   0.084  0.00  0.00    +0.157 C 
ATOM      4  N   UNL     1      -0.718   3.200   0.038  0.00  0.00    -0.331 N 
ATOM      5  C   UNL     1       0.644   3.236   0.017  0.00  0.00    +0.088 A 
ATOM      6  C   UNL     1       1.796   4.059   0.006  0.00  0.00    +0.067 A 
ATOM      7  C   UNL     1       2.866   3.246  -0.011  0.00  0.00    +0.198 A 
ATOM      8  O   UNL     1       2.457   1.966  -0.012  0.00  0.00    -0.461 OA
ATOM      9  C   UNL     1       1.107   1.921   0.002  0.00  0.00    +0.153 A 
ATOM     10  C   UNL     1      -0.013   1.076   0.008  0.00  0.00    +0.079 A 
ATOM     11  C   UNL     1      -1.123   1.867   0.017  0.00  0.00    +0.109 A 
ATOM     12  C   UNL     1      -2.548   1.517   0.024  0.00  0.00    +0.264 C 
ATOM     13  O   UNL     1      -2.927   0.375   0.206  0.00  0.00    -0.268 OA
ATOM     14  N   UNL     1      -3.419   2.533  -0.182  0.00  0.00    -0.282 N 
ENDROOT
BRANCH   2  15
ATOM     15  C   UNL     1      -2.739   3.818  -2.107  0.00  0.00    +0.238 C 
ATOM     16  O   UNL     1      -2.986   4.795  -2.782  0.00  0.00    -0.273 OA
ATOM     17  N   UNL     1      -2.251   2.704  -2.686  0.00  0.00    -0.311 N 
ATOM     18  H   UNL     1      -2.027   1.818  -2.073  0.00  0.00    +0.149 HD
BRANCH  17  19
ATOM     19  C   UNL     1      -2.020   2.671  -4.133  0.00  0.00    +0.073 C 
ATOM     20  C   UNL     1      -3.346   2.329  -4.843  0.00  0.00    +0.022 C 
ATOM     21  C   UNL     1      -3.253   2.787  -6.274  0.00  0.00    +0.002 C 
ATOM     22  C   UNL     1      -2.789   1.664  -7.221  0.00  0.00    +0.000 C 
ATOM     23  C   UNL     1      -1.649   0.815  -6.628  0.00  0.00    +0.000 C 
ATOM     24  C   UNL     1      -0.617   1.651  -5.921  0.00  0.00    +0.002 C 
ATOM     25  C   UNL     1      -0.973   1.703  -4.421  0.00  0.00    +0.022 C 
ENDBRANCH  17  19
ENDBRANCH   2  15
BRANCH  14  26
ATOM     26  C   UNL     1      -4.849   2.300   0.039  0.00  0.00    +0.091 C 
BRANCH  26  27
ATOM     27  C   UNL     1      -5.200   2.624   1.492  0.00  0.00    -0.060 C 
BRANCH  27  28
ATOM     28  N   UNL     1      -6.633   2.390   1.714  0.00  0.00    +0.381 N 
ATOM     29  C   UNL     1      -7.024   1.026   1.275  0.00  0.00    -0.079 C 
ATOM     30  C   UNL     1      -8.349   0.775   2.038  0.00  0.00    -0.020 C 
ATOM     31  C   UNL     1      -8.091   1.443   3.408  0.00  0.00    -0.020 C 
ATOM     32  C   UNL     1      -6.965   2.462   3.153  0.00  0.00    -0.079 C 
ATOM     33  H   UNL     1      -7.156   3.170   1.140  0.00  0.00    -0.082 HD
ENDBRANCH  27  28
ENDBRANCH  26  27
ENDBRANCH  14  26
TORSDOF 5
