REMARK  Name = ZINC39592489
REMARK  5 active torsions:
REMARK  status: ('A' for Active; 'I' for Inactive)
REMARK    1  A    between atoms: C_6  and  C_7
REMARK    2  A    between atoms: C_9  and  C_13
REMARK    3  A    between atoms: C_20  and  C_22
REMARK    4  A    between atoms: C_22  and  O_23
REMARK    5  A    between atoms: O_23  and  C_24
REMARK                            x       y       z     vdW  Elec       q    Type
REMARK                         _______ _______ _______ _____ _____    ______ ____
ROOT
ATOM      1  C   UNL     1      -3.263  -3.141   1.279  0.00  0.00    +0.230 C 
ATOM      2  N   UNL     1      -2.531  -4.414   1.360  0.00  0.00    -0.242 N 
ATOM      3  N   UNL     1      -3.503  -5.422   1.333  0.00  0.00    -0.161 NA
ATOM      4  C   UNL     1      -4.686  -4.926   1.250  0.00  0.00    +0.201 C 
ATOM      5  N   UNL     1      -4.693  -3.535   1.209  0.00  0.00    -0.175 N 
ATOM      6  N   UNL     1      -5.941  -2.928   1.121  0.00  0.00    -0.170 NA
ATOM      7  C   UNL     1      -7.033  -3.622   1.080  0.00  0.00    +0.137 C 
ATOM      8  S   UNL     1      -6.424  -5.305   1.160  0.00  0.00    -0.031 S 
ATOM      9  H   UNL     1      -1.570  -4.531   1.420  0.00  0.00    +0.170 HD
ENDROOT
BRANCH   1  12
ATOM     10  C   UNL     1      -1.271  -0.765   0.011  0.00  0.00    +0.091 C 
ATOM     11  C   UNL     1      -1.363  -2.109   0.010  0.00  0.00    +0.035 C 
ATOM     12  C   UNL     1      -2.859  -2.372   0.020  0.00  0.00    +0.194 C 
ATOM     13  N   UNL     1      -3.437  -1.018   0.026  0.00  0.00    -0.176 NA
ATOM     14  N   UNL     1      -2.509  -0.205   0.026  0.00  0.00    -0.154 NA
BRANCH  10  20
ATOM     15  C   UNL     1      -0.017   1.389   0.010  0.00  0.00    +0.013 A 
ATOM     16  C   UNL     1       1.170   2.094   0.002  0.00  0.00    +0.039 A 
ATOM     17  C   UNL     1       2.379   1.417  -0.013  0.00  0.00    +0.123 A 
ATOM     18  C   UNL     1       2.402   0.032  -0.022  0.00  0.00    +0.039 A 
ATOM     19  C   UNL     1       1.221  -0.680  -0.014  0.00  0.00    +0.013 A 
ATOM     20  C   UNL     1       0.002  -0.004   0.002  0.00  0.00    +0.002 A 
ATOM     21  F   UNL     1       3.538   2.110  -0.021  0.00  0.00    -0.205 F 
ENDBRANCH  10  20
ENDBRANCH   1  12
BRANCH   7  22
ATOM     22  C   UNL     1      -8.456  -3.135   0.986  0.00  0.00    +0.293 C 
BRANCH  22  23
ATOM     23  O   UNL     1      -8.470  -1.707   0.943  0.00  0.00    -0.485 OA
BRANCH  23  24
ATOM     24  C   UNL     1      -9.685  -1.104   0.857  0.00  0.00    +0.121 A 
ATOM     25  C   UNL     1     -10.840  -1.871   0.820  0.00  0.00    +0.047 A 
ATOM     26  C   UNL     1     -12.074  -1.256   0.732  0.00  0.00    +0.023 A 
ATOM     27  C   UNL     1     -12.158   0.124   0.680  0.00  0.00    +0.041 A 
ATOM     28  C   UNL     1     -11.007   0.891   0.717  0.00  0.00    +0.023 A 
ATOM     29  C   UNL     1      -9.771   0.280   0.811  0.00  0.00    +0.047 A 
ATOM     30 CL   UNL     1     -13.710   0.894   0.570  0.00  0.00    -0.084 Cl
ENDBRANCH  23  24
ENDBRANCH  22  23
ENDBRANCH   7  22
TORSDOF 5
