REMARK  Name = ZINC00515533
REMARK  3 active torsions:
REMARK  status: ('A' for Active; 'I' for Inactive)
REMARK    1  A    between atoms: C_10  and  N_11
REMARK    2  A    between atoms: C_12  and  C_13
REMARK    3  A    between atoms: C_17  and  O_19
REMARK                            x       y       z     vdW  Elec       q    Type
REMARK                         _______ _______ _______ _____ _____    ______ ____
ROOT
ATOM      1  C   UNL     1       8.518   2.274  -0.438  0.00  0.00    +0.001 A 
ATOM      2  C   UNL     1       7.383   1.471  -0.351  0.00  0.00    +0.001 A 
ATOM      3  C   UNL     1       6.141   2.023  -0.242  0.00  0.00    +0.010 A 
ATOM      4  C   UNL     1       6.003   3.416  -0.216  0.00  0.00    +0.007 A 
ATOM      5  C   UNL     1       7.155   4.235  -0.303  0.00  0.00    -0.016 A 
ATOM      6  C   UNL     1       8.420   3.632  -0.416  0.00  0.00    +0.008 A 
ATOM      7  C   UNL     1       7.012   5.633  -0.278  0.00  0.00    +0.008 A 
ATOM      8  C   UNL     1       5.781   6.203  -0.170  0.00  0.00    +0.003 A 
ATOM      9  C   UNL     1       4.625   5.439  -0.087  0.00  0.00    +0.028 A 
ATOM     10  C   UNL     1       4.692   4.051  -0.100  0.00  0.00    +0.072 A 
ENDROOT
BRANCH  10  11
ATOM     11  N   UNL     1       3.558   3.298  -0.013  0.00  0.00    -0.254 NA
ATOM     12  C   UNL     1       2.667   3.564   0.901  0.00  0.00    +0.119 C 
BRANCH  12  13
ATOM     13  C   UNL     1       1.391   2.830   0.921  0.00  0.00    -0.003 A 
ATOM     14  C   UNL     1       1.132   1.847  -0.039  0.00  0.00    +0.009 A 
ATOM     15  C   UNL     1      -0.065   1.161  -0.016  0.00  0.00    +0.004 A 
ATOM     16  C   UNL     1      -1.012   1.447   0.950  0.00  0.00    +0.045 A 
ATOM     17  C   UNL     1      -0.762   2.418   1.911  0.00  0.00    +0.117 A 
ATOM     18  C   UNL     1       0.434   3.113   1.899  0.00  0.00    +0.054 A 
BRANCH  17  19
ATOM     19  O   UNL     1      -1.696   2.689   2.861  0.00  0.00    -0.507 OA
ATOM     20  H   UNL     1      -2.326   3.378   2.607  0.00  0.00    +0.292 HD
ENDBRANCH  17  19
ENDBRANCH  12  13
ENDBRANCH  10  11
TORSDOF 3
