REMARK  Name = ZINC20208508
REMARK  7 active torsions:
REMARK  status: ('A' for Active; 'I' for Inactive)
REMARK    1  A    between atoms: C_1  and  C_2
REMARK    2  A    between atoms: C_2  and  S_3
REMARK    3  A    between atoms: S_3  and  C_6
REMARK    4  A    between atoms: C_12  and  C_13
REMARK    5  A    between atoms: C_16  and  O_19
REMARK    6  A    between atoms: O_19  and  C_20
REMARK    7  A    between atoms: C_20  and  C_22
REMARK                            x       y       z     vdW  Elec       q    Type
REMARK                         _______ _______ _______ _____ _____    ______ ____
ROOT
ATOM      1  C   UNL     1       0.224 -10.826  -5.427  0.00  0.00    +0.235 C 
ATOM      2  N   UNL     1       0.871  -9.784  -4.992  0.00  0.00    -0.145 NA
ATOM      3  N   UNL     1       0.689  -9.313  -3.709  0.00  0.00    -0.150 N 
ATOM      4  C   UNL     1       1.268  -8.145  -3.168  0.00  0.00    +0.153 C 
ATOM      5  N   UNL     1       1.701  -7.154  -3.900  0.00  0.00    -0.283 NA
ATOM      6  C   UNL     1       1.339  -8.156  -1.679  0.00  0.00    +0.081 C 
ATOM      7  C   UNL     1       2.367  -7.546  -0.997  0.00  0.00    +0.024 C 
ATOM      8  C   UNL     1       0.240  -8.859  -0.971  0.00  0.00    +0.273 C 
ATOM      9  O   UNL     1      -0.060  -8.563   0.175  0.00  0.00    -0.268 OA
ATOM     10  N   UNL     1      -0.418  -9.833  -1.630  0.00  0.00    -0.152 NA
ATOM     11  C   UNL     1      -0.158 -10.037  -2.897  0.00  0.00    +0.182 C 
ATOM     12  S   UNL     1      -0.760 -11.283  -4.006  0.00  0.00    -0.015 S 
ATOM     13  H   UNL     1       1.698  -7.228  -4.867  0.00  0.00    +0.188 HD
ENDROOT
BRANCH   7  14
ATOM     14  C   UNL     1       3.525  -7.027  -1.729  0.00  0.00    -0.024 A 
ATOM     15  C   UNL     1       4.167  -5.859  -1.294  0.00  0.00    +0.011 A 
ATOM     16  C   UNL     1       5.250  -5.378  -1.984  0.00  0.00    +0.047 A 
ATOM     17  C   UNL     1       5.712  -6.047  -3.113  0.00  0.00    +0.132 A 
ATOM     18  C   UNL     1       5.079  -7.205  -3.549  0.00  0.00    +0.047 A 
ATOM     19  C   UNL     1       3.999  -7.700  -2.865  0.00  0.00    +0.011 A 
BRANCH  17  20
ATOM     20  O   UNL     1       6.785  -5.566  -3.791  0.00  0.00    -0.422 OA
BRANCH  20  21
ATOM     21  C   UNL     1       7.982  -5.577  -3.173  0.00  0.00    +0.347 C 
ATOM     22  O   UNL     1       8.096  -6.096  -2.080  0.00  0.00    -0.244 OA
BRANCH  21  23
ATOM     23  C   UNL     1       9.155  -4.960  -3.822  0.00  0.00    +0.094 A 
ATOM     24  C   UNL     1       9.026  -4.358  -5.077  0.00  0.00    +0.018 A 
ATOM     25  C   UNL     1      10.125  -3.784  -5.678  0.00  0.00    +0.001 A 
ATOM     26  C   UNL     1      11.356  -3.801  -5.044  0.00  0.00    +0.003 A 
ATOM     27  C   UNL     1      11.493  -4.395  -3.803  0.00  0.00    +0.039 A 
ATOM     28  C   UNL     1      10.399  -4.971  -3.184  0.00  0.00    +0.137 A 
ATOM     29  F   UNL     1      10.532  -5.546  -1.968  0.00  0.00    -0.205 F 
ENDBRANCH  21  23
ENDBRANCH  20  21
ENDBRANCH  17  20
ENDBRANCH   7  14
BRANCH   1  30
ATOM     30  S   UNL     1       0.294 -11.588  -7.014  0.00  0.00    +0.022 S 
ATOM     31  O   UNL     1       0.811 -10.583  -7.876  0.00  0.00    -0.167 OA
ATOM     32  O   UNL     1      -1.007 -12.120  -7.220  0.00  0.00    -0.167 OA
BRANCH  30  34
ATOM     33  C   UNL     1       1.641 -13.673  -8.164  0.00  0.00    +0.028 C 
ATOM     34  C   UNL     1       1.498 -12.934  -6.832  0.00  0.00    +0.171 C 
ENDBRANCH  30  34
ENDBRANCH   1  30
TORSDOF 6
