REMARK  Name = ZINC53882202
REMARK  3 active torsions:
REMARK  status: ('A' for Active; 'I' for Inactive)
REMARK    1  A    between atoms: N_10  and  C_11
REMARK    2  A    between atoms: C_11  and  C_12
REMARK    3  A    between atoms: C_18  and  O_20
REMARK                            x       y       z     vdW  Elec       q    Type
REMARK                         _______ _______ _______ _____ _____    ______ ____
ROOT
ATOM      1  C   UNL     1      -0.017   1.377   0.010  0.00  0.00    +0.000 A 
ATOM      2  C   UNL     1       1.170   2.088   0.002  0.00  0.00    +0.002 A 
ATOM      3  C   UNL     1       2.375   1.416  -0.015  0.00  0.00    +0.023 A 
ATOM      4  C   UNL     1       2.396   0.025  -0.024  0.00  0.00    +0.033 A 
ATOM      5  C   UNL     1       1.207  -0.687  -0.013  0.00  0.00    -0.026 A 
ATOM      6  C   UNL     1       0.002  -0.004   0.002  0.00  0.00    +0.005 A 
ATOM      7  C   UNL     1       1.192  -2.192  -0.011  0.00  0.00    +0.038 C 
ATOM      8  C   UNL     1       2.521  -2.742  -0.528  0.00  0.00    +0.024 C 
ATOM      9  C   UNL     1       3.667  -2.076   0.246  0.00  0.00    +0.105 C 
ATOM     10  N   UNL     1       3.629  -0.637  -0.046  0.00  0.00    -0.329 N 
ENDROOT
BRANCH  10  11
ATOM     11  C   UNL     1       4.861   0.093  -0.355  0.00  0.00    +0.111 C 
BRANCH  11  12
ATOM     12  C   UNL     1       5.470   0.636   0.939  0.00  0.00    +0.035 C 
ATOM     13  C   UNL     1       5.904  -0.531   1.828  0.00  0.00    +0.007 C 
ATOM     14  C   UNL     1       6.513   0.012   3.121  0.00  0.00    +0.000 C 
ATOM     15  C   UNL     1       7.730   0.879   2.788  0.00  0.00    +0.003 C 
ATOM     16  C   UNL     1       7.296   2.046   1.899  0.00  0.00    +0.031 C 
ATOM     17  C   UNL     1       6.686   1.503   0.605  0.00  0.00    +0.119 C 
BRANCH  17  18
ATOM     18  O   UNL     1       6.281   2.593  -0.225  0.00  0.00    -0.391 OA
ATOM     19  H   UNL     1       7.003   3.185  -0.477  0.00  0.00    +0.210 HD
ENDBRANCH  17  18
ENDBRANCH  11  12
ENDBRANCH  10  11
TORSDOF 3
