REMARK  Name = ZINC34748763
REMARK  6 active torsions:
REMARK  status: ('A' for Active; 'I' for Inactive)
REMARK    1  A    between atoms: C_1  and  C_2
REMARK    2  A    between atoms: C_3  and  C_30
REMARK    3  A    between atoms: N_9  and  C_26
REMARK    4  A    between atoms: N_15  and  C_18
REMARK    5  A    between atoms: C_18  and  C_19
REMARK    6  A    between atoms: C_26  and  C_27
REMARK                            x       y       z     vdW  Elec       q    Type
REMARK                         _______ _______ _______ _____ _____    ______ ____
ROOT
ATOM      1  C   UNL     1       0.882   0.764  -0.629  0.00  0.00    +0.045 C 
ATOM      2  C   UNL     1      -0.258   0.094   0.093  0.00  0.00    -0.026 A 
ATOM      3  C   UNL     1      -1.522   0.284  -0.311  0.00  0.00    -0.008 A 
ATOM      4  S   UNL     1      -2.475  -0.695   0.834  0.00  0.00    -0.073 S 
ATOM      5  C   UNL     1      -1.147  -1.331   1.824  0.00  0.00    +0.117 A 
ATOM      6  C   UNL     1       0.000  -0.770   1.233  0.00  0.00    +0.075 A 
ATOM      7  C   UNL     1       1.248  -1.123   1.837  0.00  0.00    +0.264 A 
ATOM      8  O   UNL     1       2.295  -0.681   1.396  0.00  0.00    -0.267 OA
ATOM      9  N   UNL     1       1.251  -1.950   2.899  0.00  0.00    -0.271 N 
ATOM     10  C   UNL     1       0.090  -2.455   3.406  0.00  0.00    +0.202 A 
ATOM     11  N   UNL     1      -1.074  -2.138   2.876  0.00  0.00    -0.208 NA
ATOM     12  N   UNL     1       0.134  -3.296   4.490  0.00  0.00    -0.304 N 
ATOM     13  C   UNL     1       0.051  -2.768   5.860  0.00  0.00    +0.089 C 
ATOM     14  C   UNL     1      -1.026  -3.550   6.618  0.00  0.00    -0.059 C 
ATOM     15  N   UNL     1      -0.733  -4.987   6.539  0.00  0.00    +0.387 N 
ATOM     16  C   UNL     1      -0.823  -5.439   5.145  0.00  0.00    -0.059 C 
ATOM     17  C   UNL     1       0.259  -4.751   4.314  0.00  0.00    +0.089 C 
ATOM     18  C   UNL     1      -2.019   1.124  -1.460  0.00  0.00    +0.052 C 
ATOM     19  H   UNL     1       0.198  -5.159   6.887  0.00  0.00    -0.081 HD
ENDROOT
BRANCH  15  20
ATOM     20  C   UNL     1      -1.702  -5.729   7.356  0.00  0.00    +0.019 C 
BRANCH  20  21
ATOM     21  C   UNL     1      -1.331  -7.189   7.375  0.00  0.00    +0.199 C 
ATOM     22  O   UNL     1      -0.354  -7.574   6.768  0.00  0.00    -0.278 OA
ATOM     23  N   UNL     1      -2.083  -8.067   8.067  0.00  0.00    -0.303 N 
ATOM     24  C   UNL     1      -3.291  -7.739   8.839  0.00  0.00    +0.108 C 
ATOM     25  C   UNL     1      -3.797  -9.050   9.477  0.00  0.00    +0.020 C 
ATOM     26  C   UNL     1      -2.527  -9.942   9.492  0.00  0.00    +0.020 C 
ATOM     27  C   UNL     1      -1.835  -9.517   8.171  0.00  0.00    +0.108 C 
ENDBRANCH  20  21
ENDBRANCH  15  20
BRANCH   9  28
ATOM     28  C   UNL     1       2.525  -2.315   3.521  0.00  0.00    +0.223 C 
BRANCH  28  29
ATOM     29  C   UNL     1       2.902  -1.274   4.544  0.00  0.00    +0.230 C 
ATOM     30  O   UNL     1       2.177  -0.320   4.733  0.00  0.00    -0.274 OA
ATOM     31  N   UNL     1       4.044  -1.402   5.247  0.00  0.00    -0.328 N 
ATOM     32  H   UNL     1       4.624  -2.165   5.095  0.00  0.00    +0.145 HD
ATOM     33  H   UNL     1       4.286  -0.732   5.905  0.00  0.00    +0.145 HD
ENDBRANCH  28  29
ENDBRANCH   9  28
TORSDOF 4
