REMARK  Name = ZINC24773103
REMARK  8 active torsions:
REMARK  status: ('A' for Active; 'I' for Inactive)
REMARK    1  A    between atoms: C_1  and  C_2
REMARK    2  A    between atoms: N_11  and  C_12
REMARK    3  A    between atoms: C_12  and  C_13
REMARK    4  A    between atoms: N_15  and  N_16
REMARK    5  A    between atoms: C_19  and  C_23
REMARK    6  A    between atoms: C_19  and  C_24
REMARK    7  A    between atoms: C_27  and  O_30
REMARK    8  A    between atoms: O_30  and  C_31
REMARK                            x       y       z     vdW  Elec       q    Type
REMARK                         _______ _______ _______ _____ _____    ______ ____
ROOT
ATOM      1  N   UNL     1      -2.044  -0.617  -4.480  0.00  0.00    -0.137 N 
ATOM      2  C   UNL     1      -0.929  -0.721  -5.230  0.00  0.00    +0.267 C 
ATOM      3  O   UNL     1       0.169  -1.079  -4.864  0.00  0.00    -0.271 OA
ATOM      4  C   UNL     1      -1.335  -0.295  -6.628  0.00  0.00    +0.137 C 
ATOM      5  N   UNL     1      -2.765   0.029  -6.489  0.00  0.00    -0.280 N 
ATOM      6  C   UNL     1      -3.088  -0.195  -5.203  0.00  0.00    +0.327 C 
ATOM      7  O   UNL     1      -4.202  -0.029  -4.747  0.00  0.00    -0.251 OA
ATOM      8  C   UNL     1      -1.137  -1.444  -7.619  0.00  0.00    +0.047 C 
ATOM      9  H   UNL     1      -3.337   0.377  -7.362  0.00  0.00    +0.152 HD
ENDROOT
BRANCH   4  10
ATOM     10  C   UNL     1      -0.555   0.920  -7.059  0.00  0.00    -0.015 A 
ATOM     11  C   UNL     1       0.722   1.129  -6.573  0.00  0.00    +0.010 A 
ATOM     12  C   UNL     1       1.441   2.239  -6.972  0.00  0.00    +0.046 A 
ATOM     13  C   UNL     1       0.876   3.151  -7.851  0.00  0.00    +0.120 A 
ATOM     14  C   UNL     1      -0.408   2.942  -8.333  0.00  0.00    +0.046 A 
ATOM     15  C   UNL     1      -1.121   1.827  -7.936  0.00  0.00    +0.010 A 
BRANCH  13  16
ATOM     16  O   UNL     1       1.579   4.247  -8.240  0.00  0.00    -0.495 OA
ATOM     17  C   UNL     1       2.895   4.398  -7.704  0.00  0.00    +0.277 C 
ENDBRANCH  13  16
ENDBRANCH   4  10
BRANCH   1  20
ATOM     18  C   UNL     1      -2.160   0.074  -2.205  0.00  0.00    +0.247 C 
ATOM     19  O   UNL     1      -2.159   1.230  -2.570  0.00  0.00    -0.273 OA
ATOM     20  N   UNL     1      -2.104  -0.920  -3.113  0.00  0.00    -0.222 N 
ATOM     21  H   UNL     1      -2.105  -1.969  -2.782  0.00  0.00    +0.174 HD
BRANCH  18  22
ATOM     22  C   UNL     1      -2.224  -0.252  -0.735  0.00  0.00    +0.202 C 
BRANCH  22  33
ATOM     23  C   UNL     1       2.120   4.332  -0.550  0.00  0.00    +0.044 C 
ATOM     24  C   UNL     1       0.904   3.455  -0.399  0.00  0.00    -0.050 A 
ATOM     25  C   UNL     1       1.040   2.078  -0.390  0.00  0.00    +0.005 A 
ATOM     26  C   UNL     1      -0.073   1.278  -0.247  0.00  0.00    +0.023 A 
ATOM     27  C   UNL     1      -1.341   1.847  -0.117  0.00  0.00    +0.033 A 
ATOM     28  C   UNL     1      -1.472   3.225  -0.128  0.00  0.00    -0.026 A 
ATOM     29  C   UNL     1      -0.347   4.023  -0.268  0.00  0.00    +0.008 A 
ATOM     30  C   UNL     1      -2.813   3.901  -0.005  0.00  0.00    +0.038 C 
ATOM     31  C   UNL     1      -3.850   2.902   0.506  0.00  0.00    +0.024 C 
ATOM     32  C   UNL     1      -3.707   1.607  -0.303  0.00  0.00    +0.106 C 
ATOM     33  N   UNL     1      -2.426   0.984   0.033  0.00  0.00    -0.321 N 
ENDBRANCH  22  33
ENDBRANCH  18  22
ENDBRANCH   1  20
TORSDOF 5
