REMARK  Name = ZINC65032979
REMARK  6 active torsions:
REMARK  status: ('A' for Active; 'I' for Inactive)
REMARK    1  A    between atoms: C_1  and  C_2
REMARK    2  A    between atoms: C_2  and  C_3
REMARK    3  A    between atoms: C_3  and  N_4
REMARK    4  A    between atoms: C_8  and  S_14
REMARK    5  A    between atoms: S_14  and  N_17
REMARK    6  A    between atoms: C_23  and  C_25
REMARK                            x       y       z     vdW  Elec       q    Type
REMARK                         _______ _______ _______ _____ _____    ______ ____
ROOT
ATOM      1  N   UNL     1       4.619  -5.585   2.717  0.00  0.00    -0.174 NA
ATOM      2  C   UNL     1       5.046  -4.683   3.796  0.00  0.00    +0.128 C 
ATOM      3  C   UNL     1       3.802  -4.210   4.559  0.00  0.00    +0.125 C 
ATOM      4  N   UNL     1       2.985  -5.384   4.899  0.00  0.00    -0.297 N 
ATOM      5  C   UNL     1       2.559  -6.286   3.820  0.00  0.00    +0.125 C 
ATOM      6  C   UNL     1       3.797  -6.756   3.055  0.00  0.00    +0.128 C 
ATOM      7  C   UNL     1       2.633  -5.628   6.176  0.00  0.00    +0.242 C 
ATOM      8  O   UNL     1       2.991  -4.877   7.058  0.00  0.00    -0.273 OA
ENDROOT
BRANCH   7   9
ATOM      9  C   UNL     1       1.795  -6.836   6.509  0.00  0.00    +0.190 C 
ATOM     10  C   UNL     1       2.537  -8.102   6.146  0.00  0.00    +0.016 C 
ATOM     11  C   UNL     1       2.689  -8.792   7.299  0.00  0.00    -0.002 A 
ATOM     12  C   UNL     1       3.318 -10.081   7.611  0.00  0.00    +0.029 A 
ATOM     13  C   UNL     1       3.313 -10.521   8.891  0.00  0.00    +0.042 A 
ATOM     14  C   UNL     1       2.724  -9.777   9.924  0.00  0.00    +0.022 A 
ATOM     15  C   UNL     1       2.128  -8.584   9.714  0.00  0.00    +0.027 A 
ATOM     16  C   UNL     1       2.075  -8.026   8.407  0.00  0.00    +0.043 A 
ATOM     17  N   UNL     1       1.561  -6.906   7.956  0.00  0.00    -0.370 N 
ATOM     18 CL   UNL     1       4.055 -12.046   9.264  0.00  0.00    -0.084 Cl
ATOM     19  H   UNL     1       1.104  -6.236   8.489  0.00  0.00    +0.161 HD
ENDBRANCH   7   9
BRANCH   1  20
ATOM     20  S   UNL     1       5.051  -5.285   1.147  0.00  0.00    +0.061 S 
ATOM     21  O   UNL     1       4.997  -6.530   0.465  0.00  0.00    -0.153 OA
ATOM     22  O   UNL     1       6.231  -4.494   1.194  0.00  0.00    -0.153 OA
BRANCH  20  27
ATOM     23  N   UNL     1       0.738  -1.962  -1.265  0.00  0.00    -0.302 N 
ATOM     24  C   UNL     1       1.793  -2.636  -0.672  0.00  0.00    +0.059 A 
ATOM     25  C   UNL     1       2.912  -2.084  -0.027  0.00  0.00    +0.029 A 
ATOM     26  C   UNL     1       3.883  -2.891   0.515  0.00  0.00    +0.030 A 
ATOM     27  C   UNL     1       3.793  -4.271   0.445  0.00  0.00    +0.107 A 
ATOM     28  C   UNL     1       2.701  -4.843  -0.184  0.00  0.00    +0.045 A 
ATOM     29  C   UNL     1       1.730  -4.037  -0.727  0.00  0.00    +0.043 A 
ATOM     30  S   UNL     1       0.211  -4.340  -1.597  0.00  0.00    -0.027 S 
ATOM     31  C   UNL     1      -0.273  -2.640  -1.844  0.00  0.00    +0.292 A 
ATOM     32  O   UNL     1      -1.265  -2.202  -2.397  0.00  0.00    -0.259 OA
BRANCH  23  33
ATOM     33  C   UNL     1       0.718  -0.497  -1.257  0.00  0.00    +0.126 C 
BRANCH  33  35
ATOM     34  C   UNL     1      -0.019   1.526   0.010  0.00  0.00    +0.005 C 
ATOM     35  C   UNL     1       0.002  -0.004   0.002  0.00  0.00    +0.018 C 
ENDBRANCH  33  35
ENDBRANCH  23  33
ENDBRANCH  20  27
ENDBRANCH   1  20
TORSDOF 5
