REMARK  Name = ZINC11496919
REMARK  8 active torsions:
REMARK  status: ('A' for Active; 'I' for Inactive)
REMARK    1  A    between atoms: C_1  and  N_2
REMARK    2  A    between atoms: N_2  and  C_3
REMARK    3  A    between atoms: N_2  and  S_9
REMARK    4  A    between atoms: S_9  and  C_12
REMARK    5  A    between atoms: C_16  and  C_18
REMARK    6  A    between atoms: C_18  and  O_20
REMARK    7  A    between atoms: O_20  and  C_21
REMARK    8  A    between atoms: C_21  and  C_22
REMARK                            x       y       z     vdW  Elec       q    Type
REMARK                         _______ _______ _______ _____ _____    ______ ____
ROOT
ATOM      1  C   UNL     1       3.548   2.416   1.024  0.00  0.00    +0.110 A 
ATOM      2  C   UNL     1       2.869   3.524   1.503  0.00  0.00    +0.030 A 
ATOM      3  C   UNL     1       1.786   3.367   2.348  0.00  0.00    +0.023 A 
ATOM      4  C   UNL     1       1.375   2.103   2.722  0.00  0.00    +0.055 A 
ATOM      5  C   UNL     1       2.056   0.981   2.242  0.00  0.00    +0.079 A 
ATOM      6  C   UNL     1       3.149   1.148   1.389  0.00  0.00    +0.045 A 
ATOM      7 CL   UNL     1       0.015   1.907   3.783  0.00  0.00    -0.083 Cl
ENDROOT
BRANCH   1   8
ATOM      8  S   UNL     1       4.926   2.629  -0.053  0.00  0.00    +0.074 S 
ATOM      9  O   UNL     1       5.356   3.974   0.098  0.00  0.00    -0.150 OA
ATOM     10  O   UNL     1       5.790   1.523   0.170  0.00  0.00    -0.150 OA
BRANCH   8  12
ATOM     11  C   UNL     1       4.221   1.157  -2.210  0.00  0.00    +0.157 C 
ATOM     12  N   UNL     1       4.362   2.483  -1.603  0.00  0.00    -0.206 N 
BRANCH  12  13
ATOM     13  C   UNL     1       4.022   3.625  -2.332  0.00  0.00    +0.051 A 
ATOM     14  C   UNL     1       2.967   4.428  -1.916  0.00  0.00    +0.025 A 
ATOM     15  C   UNL     1       2.637   5.559  -2.637  0.00  0.00    +0.002 A 
ATOM     16  C   UNL     1       3.347   5.886  -3.777  0.00  0.00    +0.000 A 
ATOM     17  C   UNL     1       4.394   5.086  -4.197  0.00  0.00    +0.002 A 
ATOM     18  C   UNL     1       4.733   3.957  -3.478  0.00  0.00    +0.025 A 
ENDBRANCH  12  13
ENDBRANCH   8  12
ENDBRANCH   1   8
BRANCH   5  19
ATOM     19  C   UNL     1       1.624  -0.375   2.637  0.00  0.00    +0.341 C 
ATOM     20  O   UNL     1       0.673  -0.517   3.380  0.00  0.00    -0.245 OA
BRANCH  19  21
ATOM     21  O   UNL     1       2.283  -1.454   2.173  0.00  0.00    -0.455 OA
BRANCH  21  22
ATOM     22  C   UNL     1       1.802  -2.755   2.603  0.00  0.00    +0.288 C 
BRANCH  22  23
ATOM     23  C   UNL     1       2.656  -3.834   1.988  0.00  0.00    +0.087 A 
ATOM     24  C   UNL     1       3.440  -4.645   2.781  0.00  0.00    +0.097 A 
ATOM     25  C   UNL     1       4.220  -5.642   2.194  0.00  0.00    +0.259 A 
ATOM     26  O   UNL     1       4.913  -6.366   2.892  0.00  0.00    -0.267 OA
ATOM     27  N   UNL     1       4.213  -5.803   0.837  0.00  0.00    -0.262 N 
ATOM     28  C   UNL     1       4.927  -6.729   0.115  0.00  0.00    +0.104 A 
ATOM     29  C   UNL     1       4.834  -6.786  -1.213  0.00  0.00    +0.067 A 
ATOM     30  S   UNL     1       3.675  -5.472  -1.556  0.00  0.00    -0.058 S 
ATOM     31  C   UNL     1       3.410  -4.952   0.126  0.00  0.00    +0.180 A 
ATOM     32  N   UNL     1       2.671  -4.017   0.670  0.00  0.00    -0.224 NA
ENDBRANCH  22  23
ENDBRANCH  21  22
ENDBRANCH  19  21
ENDBRANCH   5  19
TORSDOF 7
