REMARK  Name = ZINC03340074
REMARK  7 active torsions:
REMARK  status: ('A' for Active; 'I' for Inactive)
REMARK    1  A    between atoms: C_1  and  C_2
REMARK    2  A    between atoms: C_5  and  N_9
REMARK    3  A    between atoms: C_7  and  C_8
REMARK    4  A    between atoms: C_10  and  C_24
REMARK    5  A    between atoms: C_13  and  S_14
REMARK    6  A    between atoms: S_14  and  C_15
REMARK    7  A    between atoms: C_15  and  C_16
REMARK                            x       y       z     vdW  Elec       q    Type
REMARK                         _______ _______ _______ _____ _____    ______ ____
ROOT
ATOM      1  N   UNL     1       0.041   1.116   4.084  0.00  0.00    -0.270 N 
ATOM      2  C   UNL     1       1.136   0.489   4.636  0.00  0.00    +0.169 A 
ATOM      3  N   UNL     1       1.786  -0.088   3.652  0.00  0.00    -0.128 NA
ATOM      4  N   UNL     1       1.181   0.127   2.539  0.00  0.00    -0.122 NA
ATOM      5  C   UNL     1       0.105   0.855   2.742  0.00  0.00    +0.197 A 
ENDROOT
BRANCH   1  10
ATOM      6  C   UNL     1      -3.914   4.140   6.808  0.00  0.00    +0.044 C 
ATOM      7  C   UNL     1      -2.865   3.337   6.084  0.00  0.00    -0.047 A 
ATOM      8  C   UNL     1      -2.776   1.972   6.290  0.00  0.00    +0.005 A 
ATOM      9  C   UNL     1      -1.815   1.234   5.629  0.00  0.00    +0.026 A 
ATOM     10  C   UNL     1      -0.937   1.863   4.756  0.00  0.00    +0.051 A 
ATOM     11  C   UNL     1      -1.025   3.233   4.555  0.00  0.00    +0.030 A 
ATOM     12  C   UNL     1      -1.992   3.966   5.215  0.00  0.00    -0.046 A 
ATOM     13  C   UNL     1      -2.092   5.453   4.994  0.00  0.00    +0.044 C 
ENDBRANCH   1  10
BRANCH   2  14
ATOM     14  C   UNL     1       1.512   0.473   6.065  0.00  0.00    +0.020 A 
ATOM     15  C   UNL     1       0.969   1.413   6.943  0.00  0.00    +0.011 A 
ATOM     16  C   UNL     1       1.319   1.389   8.277  0.00  0.00    +0.001 A 
ATOM     17  C   UNL     1       2.216   0.444   8.743  0.00  0.00    +0.000 A 
ATOM     18  C   UNL     1       2.762  -0.487   7.878  0.00  0.00    +0.001 A 
ATOM     19  C   UNL     1       2.416  -0.478   6.542  0.00  0.00    +0.011 A 
ENDBRANCH   2  14
BRANCH   5  20
ATOM     20  S   UNL     1      -1.036   1.399   1.515  0.00  0.00    -0.076 S 
BRANCH  20  21
ATOM     21  C   UNL     1      -0.279   0.676   0.039  0.00  0.00    +0.173 C 
BRANCH  21  22
ATOM     22  C   UNL     1      -1.109   1.021  -1.171  0.00  0.00    +0.233 C 
ATOM     23  O   UNL     1      -2.112   1.690  -1.048  0.00  0.00    -0.274 OA
ATOM     24  N   UNL     1      -0.735   0.586  -2.391  0.00  0.00    -0.224 N 
ATOM     25  C   UNL     1      -1.452   0.851  -3.647  0.00  0.00    +0.136 C 
ATOM     26  C   UNL     1      -0.604   0.133  -4.715  0.00  0.00    +0.125 C 
ATOM     27  N   UNL     1       0.501  -0.460  -3.947  0.00  0.00    -0.297 N 
ATOM     28  C   UNL     1       0.352  -0.152  -2.652  0.00  0.00    +0.309 C 
ATOM     29  O   UNL     1       1.131  -0.512  -1.791  0.00  0.00    -0.252 OA
ATOM     30  H   UNL     1       1.225  -0.988  -4.320  0.00  0.00    +0.150 HD
ENDBRANCH  21  22
ENDBRANCH  20  21
ENDBRANCH   5  20
TORSDOF 5
