REMARK  Name = ZINC13516092
REMARK  12 active torsions:
REMARK  status: ('A' for Active; 'I' for Inactive)
REMARK    1  A    between atoms: C_1  and  C_2
REMARK    2  A    between atoms: C_2  and  O_3
REMARK    3  A    between atoms: O_3  and  C_4
REMARK    4  A    between atoms: C_9  and  N_10
REMARK    5  A    between atoms: C_11  and  C_38
REMARK    6  A    between atoms: N_20  and  C_25
REMARK    7  A    between atoms: N_23  and  C_24
REMARK    8  A    between atoms: C_25  and  C_26
REMARK    9  A    between atoms: C_26  and  C_27
REMARK   10  A    between atoms: C_27  and  N_28
REMARK   11  A    between atoms: C_29  and  C_37
REMARK   12  A    between atoms: C_34  and  C_36
REMARK                            x       y       z     vdW  Elec       q    Type
REMARK                         _______ _______ _______ _____ _____    ______ ____
ROOT
ATOM      1  N   UNL     1       0.782  -1.552  -3.663  0.00  0.00    -0.279 N 
ATOM      2  C   UNL     1       2.091  -1.129  -3.522  0.00  0.00    +0.041 A 
ATOM      3  C   UNL     1       2.386  -0.343  -4.554  0.00  0.00    +0.116 A 
ATOM      4  N   UNL     1       1.271  -0.254  -5.368  0.00  0.00    -0.277 N 
ATOM      5  C   UNL     1       0.286  -1.004  -4.819  0.00  0.00    +0.223 A 
ATOM      6  N   UNL     1      -0.792  -0.940  -5.586  0.00  0.00    -0.193 NA
ATOM      7  C   UNL     1      -0.553  -0.165  -6.641  0.00  0.00    +0.170 A 
ATOM      8  C   UNL     1       0.757   0.299  -6.531  0.00  0.00    +0.157 A 
ATOM      9  C   UNL     1       1.269   1.147  -7.528  0.00  0.00    +0.283 A 
ATOM     10  O   UNL     1       2.416   1.554  -7.461  0.00  0.00    -0.265 OA
ATOM     11  N   UNL     1       0.478   1.505  -8.560  0.00  0.00    -0.259 N 
ATOM     12  C   UNL     1      -0.789   1.065  -8.649  0.00  0.00    +0.333 A 
ATOM     13  O   UNL     1      -1.471   1.410  -9.595  0.00  0.00    -0.246 OA
ATOM     14  N   UNL     1      -1.314   0.234  -7.729  0.00  0.00    -0.279 N 
ATOM     15  C   UNL     1      -2.697  -0.230  -7.865  0.00  0.00    +0.155 C 
ATOM     16  C   UNL     1       3.021  -1.494  -2.394  0.00  0.00    +0.065 C 
ENDROOT
BRANCH   1  22
ATOM     17  C   UNL     1      -0.642  -1.855  -1.728  0.00  0.00    +0.144 A 
ATOM     18  C   UNL     1      -1.332  -2.692  -0.866  0.00  0.00    +0.048 A 
ATOM     19  C   UNL     1      -1.291  -4.062  -1.053  0.00  0.00    +0.004 A 
ATOM     20  C   UNL     1      -0.563  -4.599  -2.098  0.00  0.00    +0.002 A 
ATOM     21  C   UNL     1       0.128  -3.770  -2.962  0.00  0.00    +0.030 A 
ATOM     22  C   UNL     1       0.087  -2.395  -2.785  0.00  0.00    +0.091 A 
BRANCH  17  23
ATOM     23  O   UNL     1      -0.682  -0.508  -1.546  0.00  0.00    -0.490 OA
BRANCH  23  25
ATOM     24  C   UNL     1      -1.376   1.503  -0.399  0.00  0.00    +0.048 C 
ATOM     25  C   UNL     1      -1.450  -0.025  -0.442  0.00  0.00    +0.226 C 
ENDBRANCH  23  25
ENDBRANCH  17  23
ENDBRANCH   1  22
BRANCH  11  26
ATOM     26  C   UNL     1       1.009   2.389  -9.601  0.00  0.00    +0.128 C 
BRANCH  26  27
ATOM     27  C   UNL     1       1.646   1.548 -10.709  0.00  0.00    +0.003 C 
BRANCH  27  28
ATOM     28  C   UNL     1       2.200   2.471 -11.796  0.00  0.00    -0.076 C 
BRANCH  28  29
ATOM     29  N   UNL     1       2.859   1.666 -12.832  0.00  0.00    +0.383 N 
ATOM     30  C   UNL     1       3.992   0.943 -12.242  0.00  0.00    -0.071 C 
ATOM     31  C   UNL     1       4.732   0.166 -13.333  0.00  0.00    -0.016 C 
ATOM     32  C   UNL     1       3.770  -0.833 -13.982  0.00  0.00    -0.003 C 
ATOM     33  C   UNL     1       2.556  -0.076 -14.530  0.00  0.00    -0.016 C 
ATOM     34  C   UNL     1       1.897   0.710 -13.394  0.00  0.00    -0.071 C 
ATOM     35  C   UNL     1       0.683   1.468 -13.936  0.00  0.00    -0.013 C 
ATOM     36  C   UNL     1       4.950   1.943 -11.591  0.00  0.00    -0.013 C 
ATOM     37  H   UNL     1       3.195   2.272 -13.565  0.00  0.00    -0.081 HD
ENDBRANCH  28  29
ENDBRANCH  27  28
ENDBRANCH  26  27
ENDBRANCH  11  26
TORSDOF 7
