REMARK  Name = ZINC12031139
REMARK  6 active torsions:
REMARK  status: ('A' for Active; 'I' for Inactive)
REMARK    1  A    between atoms: C_4  and  O_27
REMARK    2  A    between atoms: C_5  and  C_7
REMARK    3  A    between atoms: C_7  and  N_54
REMARK    4  A    between atoms: C_11  and  N_14
REMARK    5  A    between atoms: C_16  and  C_19
REMARK    6  A    between atoms: N_21  and  C_22
REMARK                            x       y       z     vdW  Elec       q    Type
REMARK                         _______ _______ _______ _____ _____    ______ ____
ROOT
ATOM      1  C   UNL     1      11.225   3.251  -3.334  0.00  0.00    -0.078 C 
ATOM      2  C   UNL     1      10.747   4.057  -2.124  0.00  0.00    -0.017 C 
ATOM      3  C   UNL     1       9.345   3.587  -1.725  0.00  0.00    +0.023 C 
ATOM      4  C   UNL     1       9.385   2.087  -1.423  0.00  0.00    +0.092 C 
ATOM      5  C   UNL     1       9.902   1.337  -2.652  0.00  0.00    -0.051 C 
ATOM      6  N   UNL     1      11.264   1.818  -2.970  0.00  0.00    +0.384 N 
ATOM      7  H   UNL     1      11.860   1.701  -2.142  0.00  0.00    -0.081 HD
ENDROOT
BRANCH   4   8
ATOM      8  N   UNL     1       8.036   1.618  -1.095  0.00  0.00    -0.250 N 
ATOM      9  C   UNL     1       6.881   2.055  -1.634  0.00  0.00    +0.143 A 
ATOM     10  C   UNL     1       5.874   1.349  -1.038  0.00  0.00    +0.167 A 
ATOM     11  N   UNL     1       6.419   0.492  -0.158  0.00  0.00    -0.125 NA
ATOM     12  N   UNL     1       7.700   0.624  -0.165  0.00  0.00    -0.065 NA
BRANCH  10  13
ATOM     13  C   UNL     1       4.434   1.498  -1.319  0.00  0.00    +0.266 C 
ATOM     14  O   UNL     1       4.055   2.309  -2.141  0.00  0.00    -0.268 OA
ATOM     15  N   UNL     1       3.537   0.734  -0.664  0.00  0.00    -0.307 N 
ATOM     16  H   UNL     1       3.839   0.086  -0.008  0.00  0.00    +0.149 HD
BRANCH  15  17
ATOM     17  C   UNL     1       2.107   0.881  -0.942  0.00  0.00    +0.073 C 
ATOM     18  C   UNL     1       1.477   1.939  -0.002  0.00  0.00    +0.022 C 
ATOM     19  C   UNL     1      -0.019   1.538   0.011  0.00  0.00    +0.002 C 
ATOM     20  C   UNL     1       0.002  -0.004   0.002  0.00  0.00    +0.002 C 
ATOM     21  C   UNL     1       1.353  -0.422  -0.604  0.00  0.00    +0.022 C 
ENDBRANCH  15  17
ENDBRANCH  10  13
ENDBRANCH   4   8
BRANCH   6  22
ATOM     22  C   UNL     1      11.830   1.030  -4.084  0.00  0.00    -0.039 C 
BRANCH  22  27
ATOM     23  C   UNL     1      15.022   2.581  -5.372  0.00  0.00    +0.000 A 
ATOM     24  C   UNL     1      15.963   2.035  -4.518  0.00  0.00    +0.004 A 
ATOM     25  C   UNL     1      15.569   1.163  -3.522  0.00  0.00    +0.045 A 
ATOM     26  C   UNL     1      14.228   0.839  -3.376  0.00  0.00    +0.118 A 
ATOM     27  C   UNL     1      13.287   1.384  -4.237  0.00  0.00    -0.022 A 
ATOM     28  C   UNL     1      13.686   2.256  -5.231  0.00  0.00    +0.005 A 
BRANCH  26  29
ATOM     29  O   UNL     1      13.838  -0.015  -2.393  0.00  0.00    -0.507 OA
ATOM     30  H   UNL     1      13.833  -0.945  -2.659  0.00  0.00    +0.292 HD
ENDBRANCH  26  29
ENDBRANCH  22  27
ENDBRANCH   6  22
TORSDOF 6
