REMARK  Name = ZINC39999626
REMARK  8 active torsions:
REMARK  status: ('A' for Active; 'I' for Inactive)
REMARK    1  A    between atoms: C_1  and  C_2
REMARK    2  A    between atoms: C_2  and  S_3
REMARK    3  A    between atoms: S_3  and  C_4
REMARK    4  A    between atoms: C_10  and  C_25
REMARK    5  A    between atoms: C_12  and  C_17
REMARK    6  A    between atoms: C_17  and  C_19
REMARK    7  A    between atoms: C_22  and  C_24
REMARK    8  A    between atoms: C_29  and  O_31
REMARK                            x       y       z     vdW  Elec       q    Type
REMARK                         _______ _______ _______ _____ _____    ______ ____
ROOT
ATOM      1  C   UNL     1       0.649  -2.307  -1.524  0.00  0.00    +0.160 A 
ATOM      2  N   UNL     1       0.153  -3.056  -0.549  0.00  0.00    -0.133 NA
ATOM      3  N   UNL     1       0.235  -4.315  -0.568  0.00  0.00    -0.125 NA
ATOM      4  C   UNL     1       0.821  -4.964  -1.562  0.00  0.00    +0.192 A 
ATOM      5  S   UNL     1       1.304  -3.584  -2.595  0.00  0.00    -0.024 S 
ATOM      6  N   UNL     1       1.004  -6.329  -1.752  0.00  0.00    -0.230 N 
ATOM      7  C   UNL     1       0.558  -7.395  -0.846  0.00  0.00    +0.152 C 
ATOM      8  C   UNL     1       0.989  -8.695  -1.484  0.00  0.00    +0.080 C 
ATOM      9  C   UNL     1       1.616  -8.374  -2.640  0.00  0.00    +0.250 C 
ATOM     10  C   UNL     1       1.617  -6.907  -2.801  0.00  0.00    +0.293 C 
ATOM     11  O   UNL     1       2.101  -6.310  -3.742  0.00  0.00    -0.266 OA
ATOM     12  O   UNL     1       2.154  -9.259  -3.512  0.00  0.00    -0.282 OA
ENDROOT
BRANCH   7  13
ATOM     13  C   UNL     1       1.212  -7.236   0.502  0.00  0.00    -0.019 A 
ATOM     14  C   UNL     1       2.563  -6.950   0.586  0.00  0.00    +0.006 A 
ATOM     15  C   UNL     1       3.165  -6.804   1.822  0.00  0.00    +0.004 A 
ATOM     16  C   UNL     1       2.419  -6.944   2.976  0.00  0.00    +0.045 A 
ATOM     17  C   UNL     1       1.065  -7.231   2.895  0.00  0.00    +0.117 A 
ATOM     18  C   UNL     1       0.461  -7.371   1.654  0.00  0.00    +0.051 A 
BRANCH  17  19
ATOM     19  O   UNL     1       0.329  -7.370   4.029  0.00  0.00    -0.507 OA
ATOM     20  H   UNL     1      -0.066  -6.545   4.345  0.00  0.00    +0.292 HD
ENDBRANCH  17  19
ENDBRANCH   7  13
BRANCH   8  21
ATOM     21  C   UNL     1       0.769 -10.045  -0.954  0.00  0.00    +0.230 C 
ATOM     22  O   UNL     1       1.718 -10.726  -0.607  0.00  0.00    -0.283 OA
BRANCH  21  23
ATOM     23  C   UNL     1      -0.594 -10.575  -0.840  0.00  0.00    +0.175 A 
ATOM     24  C   UNL     1      -0.952 -11.779  -0.274  0.00  0.00    +0.053 A 
ATOM     25  C   UNL     1      -2.346 -11.873  -0.383  0.00  0.00    +0.045 A 
ATOM     26  C   UNL     1      -2.776 -10.748  -0.999  0.00  0.00    +0.103 A 
ATOM     27  O   UNL     1      -1.721  -9.968  -1.266  0.00  0.00    -0.457 OA
ATOM     28  C   UNL     1      -4.210 -10.422  -1.325  0.00  0.00    +0.086 C 
ENDBRANCH  21  23
ENDBRANCH   8  21
BRANCH   1  29
ATOM     29  S   UNL     1       0.654  -0.555  -1.715  0.00  0.00    -0.097 S 
BRANCH  29  31
ATOM     30  C   UNL     1      -0.256   1.579  -0.267  0.00  0.00    +0.016 C 
ATOM     31  C   UNL     1      -0.190   0.051  -0.229  0.00  0.00    +0.073 C 
ENDBRANCH  29  31
ENDBRANCH   1  29
TORSDOF 6
