REMARK  Name = ZINC66665741
REMARK  7 active torsions:
REMARK  status: ('A' for Active; 'I' for Inactive)
REMARK    1  A    between atoms: C_1  and  C_2
REMARK    2  A    between atoms: C_2  and  C_4
REMARK    3  A    between atoms: C_2  and  N_15
REMARK    4  A    between atoms: C_6  and  C_9
REMARK    5  A    between atoms: C_21  and  C_23
REMARK    6  A    between atoms: C_23  and  C_24
REMARK    7  A    between atoms: C_23  and  C_25
REMARK                            x       y       z     vdW  Elec       q    Type
REMARK                         _______ _______ _______ _____ _____    ______ ____
ROOT
ATOM      1  C   UNL     1      -1.401  -0.377   0.010  0.00  0.00    -0.003 C 
ATOM      2  C   UNL     1       0.065   0.061   0.034  0.00  0.00    +0.020 C 
ENDROOT
BRANCH   2   3
ATOM      3  N   UNL     1       0.725  -0.500   1.220  0.00  0.00    +0.396 N 
ATOM      4  C   UNL     1      -0.053  -0.163   2.423  0.00  0.00    -0.058 C 
ATOM      5  C   UNL     1       0.768  -0.531   3.660  0.00  0.00    +0.085 C 
ATOM      6  N   UNL     1       1.247  -1.906   3.549  0.00  0.00    -0.318 N 
ATOM      7  C   UNL     1       1.278  -2.566   2.385  0.00  0.00    +0.200 C 
ATOM      8  O   UNL     1       1.712  -3.699   2.371  0.00  0.00    -0.278 OA
ATOM      9  C   UNL     1       0.799  -1.962   1.097  0.00  0.00    +0.023 C 
ATOM     10  H   UNL     1       1.554  -2.359   4.349  0.00  0.00    +0.149 HD
ATOM     11  H   UNL     1       1.656  -0.121   1.301  0.00  0.00    -0.080 HD
BRANCH   9  12
ATOM     12  C   UNL     1       1.770  -2.327  -0.028  0.00  0.00    -0.022 C 
ATOM     13  C   UNL     1       3.191  -1.928   0.376  0.00  0.00    +0.006 C 
ATOM     14  C   UNL     1       1.715  -3.835  -0.279  0.00  0.00    +0.006 C 
ENDBRANCH   9  12
ENDBRANCH   2   3
BRANCH   2  15
ATOM     15  C   UNL     1       0.139   1.566   0.083  0.00  0.00    +0.214 A 
ATOM     16  N   UNL     1       0.540   2.340  -0.884  0.00  0.00    -0.193 NA
ATOM     17  C   UNL     1       0.477   3.627  -0.500  0.00  0.00    +0.202 A 
ATOM     18  N   UNL     1       0.031   3.676   0.731  0.00  0.00    -0.056 NA
ATOM     19  O   UNL     1      -0.201   2.332   1.127  0.00  0.00    -0.339 OA
BRANCH  17  20
ATOM     20  C   UNL     1       0.853   4.798  -1.331  0.00  0.00    +0.022 A 
ATOM     21  C   UNL     1       1.312   4.613  -2.633  0.00  0.00    +0.012 A 
ATOM     22  C   UNL     1       1.660   5.705  -3.402  0.00  0.00    +0.001 A 
ATOM     23  C   UNL     1       1.554   6.982  -2.881  0.00  0.00    +0.000 A 
ATOM     24  C   UNL     1       1.099   7.172  -1.589  0.00  0.00    +0.001 A 
ATOM     25  C   UNL     1       0.742   6.087  -0.814  0.00  0.00    +0.012 A 
ENDBRANCH  17  20
ENDBRANCH   2  15
TORSDOF 4
