REMARK  Name = ZINC59282397
REMARK  8 active torsions:
REMARK  status: ('A' for Active; 'I' for Inactive)
REMARK    1  A    between atoms: C_1  and  C_2
REMARK    2  A    between atoms: C_5  and  C_8
REMARK    3  A    between atoms: C_8  and  C_35
REMARK    4  A    between atoms: N_11  and  C_15
REMARK    5  A    between atoms: C_15  and  C_16
REMARK    6  A    between atoms: N_18  and  C_19
REMARK    7  A    between atoms: N_23  and  C_24
REMARK    8  A    between atoms: C_24  and  C_25
REMARK                            x       y       z     vdW  Elec       q    Type
REMARK                         _______ _______ _______ _____ _____    ______ ____
ROOT
ATOM      1  C   UNL     1      -3.917  -5.345   1.650  0.00  0.00    +0.236 C 
ATOM      2  O   UNL     1      -3.906  -4.210   1.224  0.00  0.00    -0.274 OA
ATOM      3  N   UNL     1      -4.976  -5.791   2.354  0.00  0.00    -0.269 N 
ATOM      4  H   UNL     1      -4.984  -6.699   2.694  0.00  0.00    +0.156 HD
ENDROOT
BRANCH   3   5
ATOM      5  C   UNL     1      -6.059  -4.946   2.593  0.00  0.00    +0.124 A 
ATOM      6  C   UNL     1      -6.183  -3.658   2.172  0.00  0.00    +0.065 A 
ATOM      7  C   UNL     1      -7.415  -3.176   2.624  0.00  0.00    +0.136 A 
ATOM      8  N   UNL     1      -8.011  -4.132   3.289  0.00  0.00    -0.178 NA
ATOM      9  N   UNL     1      -7.181  -5.260   3.280  0.00  0.00    -0.246 N 
BRANCH   9  10
ATOM     10  C   UNL     1      -7.474  -6.551   3.908  0.00  0.00    +0.181 C 
BRANCH  10  11
ATOM     11  C   UNL     1      -6.963  -6.548   5.326  0.00  0.00    -0.018 A 
ATOM     12  C   UNL     1      -5.731  -7.053   5.610  0.00  0.00    +0.006 A 
ATOM     13  C   UNL     1      -5.241  -7.059   6.914  0.00  0.00    +0.001 A 
ATOM     14  C   UNL     1      -5.981  -6.561   7.942  0.00  0.00    +0.008 A 
ATOM     15  C   UNL     1      -7.257  -6.031   7.688  0.00  0.00    -0.018 A 
ATOM     16  C   UNL     1      -7.753  -6.020   6.360  0.00  0.00    -0.013 A 
ATOM     17  C   UNL     1      -9.027  -5.485   6.105  0.00  0.00    +0.009 A 
ATOM     18  C   UNL     1      -9.764  -4.981   7.133  0.00  0.00    +0.001 A 
ATOM     19  C   UNL     1      -9.274  -4.987   8.438  0.00  0.00    +0.001 A 
ATOM     20  C   UNL     1      -8.050  -5.508   8.724  0.00  0.00    +0.008 A 
ENDBRANCH  10  11
ENDBRANCH   9  10
ENDBRANCH   3   5
BRANCH   1  21
ATOM     21  C   UNL     1      -2.746  -6.258   1.391  0.00  0.00    +0.214 C 
BRANCH  21  25
ATOM     22  C   UNL     1       0.059  -4.275  -0.021  0.00  0.00    +0.135 C 
ATOM     23  C   UNL     1      -0.728  -4.825   1.151  0.00  0.00    +0.251 C 
ATOM     24  O   UNL     1      -0.502  -4.654   2.330  0.00  0.00    -0.272 OA
ATOM     25  N   UNL     1      -1.732  -5.543   0.611  0.00  0.00    -0.215 N 
ATOM     26  C   UNL     1      -1.689  -5.524  -0.726  0.00  0.00    +0.310 C 
ATOM     27  O   UNL     1      -2.490  -6.100  -1.437  0.00  0.00    -0.252 OA
ATOM     28  N   UNL     1      -0.660  -4.796  -1.197  0.00  0.00    -0.281 N 
ATOM     29  C   UNL     1       1.499  -4.794   0.002  0.00  0.00    +0.047 C 
ATOM     30  H   UNL     1      -0.435  -4.644  -2.128  0.00  0.00    +0.152 HD
BRANCH  22  35
ATOM     31  C   UNL     1      -0.018   1.503   0.010  0.00  0.00    +0.044 C 
ATOM     32  C   UNL     1       0.002  -0.004   0.002  0.00  0.00    -0.050 A 
ATOM     33  C   UNL     1       0.006  -0.689  -1.199  0.00  0.00    +0.004 A 
ATOM     34  C   UNL     1       0.025  -2.071  -1.206  0.00  0.00    +0.006 A 
ATOM     35  C   UNL     1       0.040  -2.768  -0.013  0.00  0.00    -0.015 A 
ATOM     36  C   UNL     1       0.037  -2.084   1.188  0.00  0.00    +0.006 A 
ATOM     37  C   UNL     1       0.023  -0.702   1.195  0.00  0.00    +0.004 A 
ENDBRANCH  22  35
ENDBRANCH  21  25
ENDBRANCH   1  21
TORSDOF 6
