REMARK  Name = ZINC37519247
REMARK  4 active torsions:
REMARK  status: ('A' for Active; 'I' for Inactive)
REMARK    1  A    between atoms: C_4  and  S_10
REMARK    2  A    between atoms: C_6  and  N_7
REMARK    3  A    between atoms: S_10  and  N_13
REMARK    4  A    between atoms: N_13  and  C_14
REMARK                            x       y       z     vdW  Elec       q    Type
REMARK                         _______ _______ _______ _____ _____    ______ ____
ROOT
ATOM      1  S   UNL     1       3.933  -0.837  -0.040  0.00  0.00    +0.094 S 
ATOM      2  O   UNL     1       4.736  -0.259   0.980  0.00  0.00    -0.148 OA
ATOM      3  O   UNL     1       3.621  -2.222  -0.072  0.00  0.00    -0.148 OA
ENDROOT
BRANCH   1   7
ATOM      4  C   UNL     1      -0.017   1.378   0.010  0.00  0.00    +0.035 A 
ATOM      5  C   UNL     1       1.171   2.086   0.002  0.00  0.00    +0.042 A 
ATOM      6  C   UNL     1       2.379   1.410  -0.013  0.00  0.00    +0.150 A 
ATOM      7  C   UNL     1       2.396   0.025  -0.021  0.00  0.00    +0.148 A 
ATOM      8  C   UNL     1       1.208  -0.680  -0.013  0.00  0.00    +0.064 A 
ATOM      9  C   UNL     1       0.002  -0.004   0.002  0.00  0.00    +0.128 A 
ATOM     10  F   UNL     1       3.540   2.101  -0.021  0.00  0.00    -0.203 F 
BRANCH   9  11
ATOM     11  N   UNL     1      -1.270  -0.761   0.011  0.00  0.00    +0.056 N 
ATOM     12  O   UNL     1      -2.325  -0.170   0.024  0.00  0.00    -0.126 OA
ATOM     13  O   UNL     1      -1.254  -1.970   0.004  0.00  0.00    -0.126 OA
ENDBRANCH   9  11
ENDBRANCH   1   7
BRANCH   1  14
ATOM     14  N   UNL     1       4.673  -0.485  -1.480  0.00  0.00    -0.096 NA
BRANCH  14  15
ATOM     15  C   UNL     1       5.925  -1.037  -1.776  0.00  0.00    +0.090 A 
ATOM     16  C   UNL     1       6.554  -1.888  -0.869  0.00  0.00    +0.031 A 
ATOM     17  C   UNL     1       7.790  -2.410  -1.203  0.00  0.00    +0.043 A 
ATOM     18  C   UNL     1       8.361  -2.072  -2.425  0.00  0.00    +0.094 A 
ATOM     19  N   UNL     1       7.735  -1.260  -3.263  0.00  0.00    -0.348 N 
ATOM     20  C   UNL     1       6.552  -0.749  -2.979  0.00  0.00    +0.110 A 
ATOM     21  N   UNL     1       9.606  -2.593  -2.772  0.00  0.00    -0.345 N 
ATOM     22  H   UNL     1      10.069  -3.188  -2.162  0.00  0.00    +0.144 HD
ATOM     23  H   UNL     1      10.009  -2.360  -3.623  0.00  0.00    +0.144 HD
ATOM     24  H   UNL     1       8.155  -1.039  -4.109  0.00  0.00    +0.167 HD
ENDBRANCH  14  15
ENDBRANCH   1  14
TORSDOF 4
