REMARK  Name = ZINC07829740
REMARK  5 active torsions:
REMARK  status: ('A' for Active; 'I' for Inactive)
REMARK    1  A    between atoms: C_1  and  C_2
REMARK    2  A    between atoms: C_2  and  C_4
REMARK    3  A    between atoms: C_2  and  N_14
REMARK    4  A    between atoms: C_15  and  C_17
REMARK    5  A    between atoms: C_17  and  N_18
REMARK                            x       y       z     vdW  Elec       q    Type
REMARK                         _______ _______ _______ _____ _____    ______ ____
ROOT
ATOM      1  N   UNL     1       1.362   1.593  -0.002  0.00  0.00    -0.307 N 
ATOM      2  C   UNL     1       2.331   0.926   0.654  0.00  0.00    +0.231 C 
ATOM      3  O   UNL     1       2.066  -0.095   1.254  0.00  0.00    -0.274 OA
ATOM      4  H   UNL     1       1.574   2.409  -0.482  0.00  0.00    +0.149 HD
ENDROOT
BRANCH   1   6
ATOM      5  C   UNL     1      -0.729   1.579   1.267  0.00  0.00    +0.033 C 
ATOM      6  C   UNL     1      -0.013   1.086   0.008  0.00  0.00    +0.100 C 
BRANCH   6   7
ATOM      7  C   UNL     1      -0.742   1.585  -1.213  0.00  0.00    -0.027 A 
ATOM      8  C   UNL     1      -0.549   2.881  -1.654  0.00  0.00    +0.006 A 
ATOM      9  C   UNL     1      -1.222   3.332  -2.771  0.00  0.00    +0.004 A 
ATOM     10  C   UNL     1      -2.092   2.493  -3.457  0.00  0.00    -0.044 A 
ATOM     11  C   UNL     1      -2.280   1.202  -3.020  0.00  0.00    -0.044 A 
ATOM     12  C   UNL     1      -1.599   0.749  -1.897  0.00  0.00    +0.009 A 
ATOM     13  C   UNL     1      -3.199   0.235  -3.720  0.00  0.00    +0.035 C 
ATOM     14  C   UNL     1      -4.170   0.982  -4.632  0.00  0.00    +0.005 C 
ATOM     15  C   UNL     1      -3.362   1.928  -5.527  0.00  0.00    +0.005 C 
ATOM     16  C   UNL     1      -2.804   3.054  -4.660  0.00  0.00    +0.035 C 
ENDBRANCH   6   7
ENDBRANCH   1   6
BRANCH   2  17
ATOM     17  C   UNL     1       3.745   1.447   0.644  0.00  0.00    +0.213 C 
BRANCH  17  18
ATOM     18  N   UNL     1       4.602   0.550   1.423  0.00  0.00    -0.215 N 
ATOM     19  C   UNL     1       5.259  -0.509   0.907  0.00  0.00    +0.247 C 
ATOM     20  O   UNL     1       5.253  -0.886  -0.245  0.00  0.00    -0.273 OA
ATOM     21  C   UNL     1       6.004  -1.127   2.068  0.00  0.00    +0.113 C 
ATOM     22  C   UNL     1       7.507  -1.092   1.813  0.00  0.00    +0.035 C 
ATOM     23  C   UNL     1       8.245  -1.696   3.011  0.00  0.00    +0.003 C 
ATOM     24  C   UNL     1       7.779  -3.138   3.221  0.00  0.00    +0.000 C 
ATOM     25  C   UNL     1       6.275  -3.154   3.500  0.00  0.00    +0.003 C 
ATOM     26  C   UNL     1       5.529  -2.556   2.304  0.00  0.00    +0.035 C 
ATOM     27  N   UNL     1       5.655  -0.273   3.210  0.00  0.00    -0.285 N 
ATOM     28  C   UNL     1       4.836   0.684   2.734  0.00  0.00    +0.310 C 
ATOM     29  O   UNL     1       4.360   1.568   3.419  0.00  0.00    -0.252 OA
ATOM     30  H   UNL     1       5.958  -0.375   4.126  0.00  0.00    +0.151 HD
ENDBRANCH  17  18
ENDBRANCH   2  17
TORSDOF 4
