REMARK  Name = ZINC63465137
REMARK  10 active torsions:
REMARK  status: ('A' for Active; 'I' for Inactive)
REMARK    1  A    between atoms: C_1  and  C_2
REMARK    2  A    between atoms: N_4  and  C_5
REMARK    3  A    between atoms: C_5  and  C_31
REMARK    4  A    between atoms: C_9  and  C_13
REMARK    5  A    between atoms: C_9  and  C_14
REMARK    6  A    between atoms: N_15  and  C_18
REMARK    7  A    between atoms: C_18  and  C_19
REMARK    8  A    between atoms: C_19  and  C_20
REMARK    9  A    between atoms: C_24  and  O_29
REMARK   10  A    between atoms: O_29  and  C_30
REMARK                            x       y       z     vdW  Elec       q    Type
REMARK                         _______ _______ _______ _____ _____    ______ ____
ROOT
ATOM      1  C   UNL     1       0.020  -2.136  -1.177  0.00  0.00    +0.237 C 
ATOM      2  C   UNL     1      -0.102  -2.661  -2.581  0.00  0.00    +0.053 C 
ATOM      3  C   UNL     1      -1.249  -3.392  -2.628  0.00  0.00    +0.023 C 
ATOM      4  C   UNL     1      -1.702  -4.073  -3.904  0.00  0.00    +0.058 C 
ATOM      5  C   UNL     1      -1.137  -3.284  -5.091  0.00  0.00    -0.023 C 
ATOM      6  C   UNL     1       0.384  -3.170  -4.978  0.00  0.00    +0.086 C 
ATOM      7  C   UNL     1       0.749  -2.481  -3.681  0.00  0.00    +0.164 C 
ATOM      8  O   UNL     1       1.747  -1.794  -3.595  0.00  0.00    -0.292 OA
ATOM      9  C   UNL     1      -1.496  -4.003  -6.393  0.00  0.00    +0.011 C 
ATOM     10  C   UNL     1      -1.751  -1.883  -5.105  0.00  0.00    +0.011 C 
ATOM     11  N   UNL     1      -1.876  -3.405  -1.423  0.00  0.00    -0.272 N 
ATOM     12  C   UNL     1      -1.214  -2.693  -0.489  0.00  0.00    +0.257 C 
ATOM     13  O   UNL     1      -1.539  -2.530   0.668  0.00  0.00    -0.272 OA
ENDROOT
BRANCH   1  17
ATOM     14  C   UNL     1      -0.018   1.503   0.010  0.00  0.00    +0.109 C 
ATOM     15  C   UNL     1       0.002  -0.004   0.002  0.00  0.00    +0.211 C 
ATOM     16  O   UNL     1       0.020  -0.616   1.049  0.00  0.00    -0.276 OA
ATOM     17  N   UNL     1       0.000  -0.672  -1.169  0.00  0.00    -0.291 N 
ATOM     18  H   UNL     1      -0.015  -0.182  -2.006  0.00  0.00    +0.150 HD
ENDBRANCH   1  17
BRANCH   1  19
ATOM     19  C   UNL     1       1.293  -2.661  -0.509  0.00  0.00    +0.424 C 
ATOM     20  F   UNL     1       1.351  -2.201   0.810  0.00  0.00    -0.167 F 
ATOM     21  F   UNL     1       1.280  -4.060  -0.516  0.00  0.00    -0.167 F 
ATOM     22  F   UNL     1       2.412  -2.202  -1.213  0.00  0.00    -0.167 F 
ENDBRANCH   1  19
BRANCH  11  23
ATOM     23  C   UNL     1      -3.132  -4.114  -1.167  0.00  0.00    +0.118 C 
BRANCH  23  24
ATOM     24  C   UNL     1      -2.828  -5.540  -0.705  0.00  0.00    +0.052 C 
BRANCH  24  25
ATOM     25  C   UNL     1      -4.120  -6.269  -0.441  0.00  0.00    -0.040 C 
ATOM     26  C   UNL     1      -4.784  -7.079  -1.296  0.00  0.00    -0.001 A 
ATOM     27  C   UNL     1      -4.511  -7.505  -2.674  0.00  0.00    +0.013 A 
ATOM     28  C   UNL     1      -5.377  -8.340  -3.287  0.00  0.00    +0.046 A 
ATOM     29  C   UNL     1      -6.534  -8.811  -2.637  0.00  0.00    +0.122 A 
ATOM     30  C   UNL     1      -6.850  -8.459  -1.365  0.00  0.00    +0.071 A 
ATOM     31  C   UNL     1      -6.007  -7.587  -0.633  0.00  0.00    +0.046 A 
ATOM     32  N   UNL     1      -6.094  -7.108   0.587  0.00  0.00    -0.380 N 
ATOM     33  C   UNL     1      -4.931  -6.248   0.835  0.00  0.00    +0.144 C 
ATOM     34  H   UNL     1      -6.805  -7.295   1.220  0.00  0.00    +0.160 HD
BRANCH  29  35
ATOM     35  O   UNL     1      -7.364  -9.647  -3.308  0.00  0.00    -0.495 OA
ATOM     36  C   UNL     1      -6.996  -9.992  -4.645  0.00  0.00    +0.277 C 
ENDBRANCH  29  35
ENDBRANCH  24  25
ENDBRANCH  23  24
ENDBRANCH  11  23
TORSDOF 6
