REMARK  Name = ZINC12108192
REMARK  6 active torsions:
REMARK  status: ('A' for Active; 'I' for Inactive)
REMARK    1  A    between atoms: C_1  and  C_2
REMARK    2  A    between atoms: C_14  and  C_16
REMARK    3  A    between atoms: C_16  and  S_17
REMARK    4  A    between atoms: S_17  and  C_18
REMARK    5  A    between atoms: N_22  and  C_23
REMARK    6  A    between atoms: C_23  and  C_24
REMARK                            x       y       z     vdW  Elec       q    Type
REMARK                         _______ _______ _______ _____ _____    ______ ____
ROOT
ATOM      1  C   UNL     1       0.051   1.032  -2.800  0.00  0.00    +0.193 A 
ATOM      2  N   UNL     1       1.131   0.294  -2.722  0.00  0.00    -0.121 NA
ATOM      3  N   UNL     1       1.555   0.008  -4.027  0.00  0.00    -0.112 NA
ATOM      4  C   UNL     1       0.720   0.581  -4.859  0.00  0.00    +0.220 A 
ATOM      5  N   UNL     1      -0.235   1.224  -4.123  0.00  0.00    -0.288 N 
ATOM      6  N   UNL     1       0.790   0.537  -6.245  0.00  0.00    -0.300 N 
ATOM      7  C   UNL     1       0.728  -0.847  -6.732  0.00  0.00    +0.108 C 
ATOM      8  C   UNL     1       0.661  -0.849  -8.261  0.00  0.00    +0.019 C 
ATOM      9  C   UNL     1       1.899  -0.145  -8.822  0.00  0.00    +0.003 C 
ATOM     10  C   UNL     1       1.966   1.278  -8.262  0.00  0.00    +0.019 C 
ATOM     11  C   UNL     1       1.996   1.218  -6.733  0.00  0.00    +0.108 C 
ENDROOT
BRANCH   1  12
ATOM     12  S   UNL     1      -0.875   1.659  -1.438  0.00  0.00    -0.077 S 
BRANCH  12  13
ATOM     13  C   UNL     1       0.016   1.046   0.018  0.00  0.00    +0.173 C 
BRANCH  13  26
ATOM     14  C   UNL     1       1.449   4.279   5.325  0.00  0.00    +0.019 C 
ATOM     15  C   UNL     1       1.126   2.946   4.648  0.00  0.00    +0.050 C 
ATOM     16  C   UNL     1      -0.317   2.960   4.170  0.00  0.00    +0.033 C 
ATOM     17  C   UNL     1      -0.856   1.637   3.711  0.00  0.00    +0.115 C 
ATOM     18  N   UNL     1      -0.193   1.181   2.479  0.00  0.00    -0.270 N 
ATOM     19  C   UNL     1       0.958   0.395   2.594  0.00  0.00    +0.050 A 
ATOM     20  C   UNL     1       0.892  -0.967   2.318  0.00  0.00    +0.024 A 
ATOM     21  C   UNL     1       2.017  -1.754   2.470  0.00  0.00    +0.002 A 
ATOM     22  C   UNL     1       3.213  -1.207   2.898  0.00  0.00    +0.001 A 
ATOM     23  C   UNL     1       3.295   0.151   3.162  0.00  0.00    +0.016 A 
ATOM     24  C   UNL     1       2.175   0.938   2.989  0.00  0.00    +0.030 A 
ATOM     25  S   UNL     1       2.249   2.696   3.242  0.00  0.00    -0.120 S 
ATOM     26  C   UNL     1      -0.681   1.518   1.268  0.00  0.00    +0.230 C 
ATOM     27  O   UNL     1      -1.680   2.200   1.185  0.00  0.00    -0.274 OA
ENDBRANCH  13  26
ENDBRANCH  12  13
ENDBRANCH   1  12
BRANCH   5  28
ATOM     28  C   UNL     1      -1.364   1.989  -4.657  0.00  0.00    +0.158 C 
BRANCH  28  29
ATOM     29  C   UNL     1      -0.913   3.417  -4.967  0.00  0.00    +0.138 C 
ATOM     30  C   UNL     1      -2.079   4.228  -5.585  0.00  0.00    +0.035 C 
ATOM     31  C   UNL     1      -1.660   5.677  -5.216  0.00  0.00    +0.031 C 
ATOM     32  C   UNL     1      -0.976   5.481  -3.846  0.00  0.00    +0.160 C 
ATOM     33  O   UNL     1      -0.577   4.108  -3.753  0.00  0.00    -0.375 OA
ENDBRANCH  28  29
ENDBRANCH   5  28
TORSDOF 5
