REMARK  Name = ZINC15289701
REMARK  7 active torsions:
REMARK  status: ('A' for Active; 'I' for Inactive)
REMARK    1  A    between atoms: C_1  and  O_2
REMARK    2  A    between atoms: O_2  and  C_3
REMARK    3  A    between atoms: C_5  and  N_21
REMARK    4  A    between atoms: C_8  and  N_9
REMARK    5  A    between atoms: C_10  and  C_12
REMARK    6  A    between atoms: C_12  and  N_13
REMARK    7  A    between atoms: N_13  and  C_14
REMARK                            x       y       z     vdW  Elec       q    Type
REMARK                         _______ _______ _______ _____ _____    ______ ____
ROOT
ATOM      1  N   UNL     1      -4.942   3.981   0.048  0.00  0.00    -0.281 N 
ATOM      2  C   UNL     1      -4.958   5.325   0.158  0.00  0.00    +0.234 C 
ATOM      3  O   UNL     1      -3.917   5.946   0.157  0.00  0.00    -0.274 OA
ATOM      4  H   UNL     1      -5.775   3.491  -0.032  0.00  0.00    +0.155 HD
ENDROOT
BRANCH   1  10
ATOM      5  C   UNL     1      -3.623   2.043  -0.557  0.00  0.00    +0.143 A 
ATOM      6  C   UNL     1      -2.414   1.367  -0.552  0.00  0.00    +0.080 A 
ATOM      7  C   UNL     1      -1.308   1.934   0.053  0.00  0.00    +0.130 A 
ATOM      8  C   UNL     1      -1.405   3.173   0.659  0.00  0.00    +0.035 A 
ATOM      9  C   UNL     1      -2.607   3.855   0.655  0.00  0.00    +0.029 A 
ATOM     10  C   UNL     1      -3.721   3.293   0.050  0.00  0.00    +0.076 A 
BRANCH   7  11
ATOM     11  N   UNL     1      -0.017   1.210   0.057  0.00  0.00    +0.057 N 
ATOM     12  O   UNL     1       0.070   0.117  -0.473  0.00  0.00    -0.126 OA
ATOM     13  O   UNL     1       0.961   1.710   0.585  0.00  0.00    -0.126 OA
ENDBRANCH   7  11
BRANCH   5  15
ATOM     14  C   UNL     1      -4.538   0.203  -1.754  0.00  0.00    +0.277 C 
ATOM     15  O   UNL     1      -4.712   1.487  -1.152  0.00  0.00    -0.493 OA
ENDBRANCH   5  15
ENDBRANCH   1  10
BRANCH   2  16
ATOM     16  C   UNL     1      -6.271   6.054   0.281  0.00  0.00    +0.198 C 
BRANCH  16  17
ATOM     17  N   UNL     1      -6.021   7.494   0.386  0.00  0.00    -0.335 N 
ATOM     18  H   UNL     1      -5.112   7.831   0.368  0.00  0.00    +0.147 HD
BRANCH  17  19
ATOM     19  C   UNL     1      -7.093   8.382   0.510  0.00  0.00    +0.041 A 
ATOM     20  C   UNL     1      -8.396   7.901   0.530  0.00  0.00    +0.024 A 
ATOM     21  C   UNL     1      -9.453   8.781   0.658  0.00  0.00    +0.002 A 
ATOM     22  C   UNL     1      -9.216  10.140   0.757  0.00  0.00    +0.001 A 
ATOM     23  C   UNL     1      -7.920  10.623   0.732  0.00  0.00    +0.016 A 
ATOM     24  C   UNL     1      -6.858   9.748   0.609  0.00  0.00    +0.034 A 
ATOM     25  I   UNL     1      -4.895  10.480   0.571  0.00  0.00    -0.042 I 
ENDBRANCH  17  19
ENDBRANCH  16  17
ENDBRANCH   2  16
TORSDOF 6
