REMARK  Name = ZINC39040695
REMARK  4 active torsions:
REMARK  status: ('A' for Active; 'I' for Inactive)
REMARK    1  A    between atoms: C_3  and  O_19
REMARK    2  A    between atoms: C_6  and  N_7
REMARK    3  A    between atoms: N_7  and  C_8
REMARK    4  A    between atoms: O_19  and  C_20
REMARK                            x       y       z     vdW  Elec       q    Type
REMARK                         _______ _______ _______ _____ _____    ______ ____
ROOT
ATOM      1  N   UNL     1      -1.200  -0.721   0.010  0.00  0.00    -0.318 N 
ATOM      2  H   UNL     1      -2.046  -0.246   0.043  0.00  0.00    +0.148 HD
ENDROOT
BRANCH   1   3
ATOM      3  C   UNL     1      -1.183  -2.181  -0.108  0.00  0.00    +0.245 C 
ATOM      4  C   UNL     1      -2.102  -2.573  -1.240  0.00  0.00    +0.129 C 
ATOM      5  N   UNL     1      -2.203  -2.328  -2.506  0.00  0.00    -0.233 NA
ATOM      6  C   UNL     1      -3.267  -2.987  -3.004  0.00  0.00    +0.224 C 
ATOM      7  N   UNL     1      -3.884  -3.676  -2.077  0.00  0.00    -0.215 NA
ATOM      8  C   UNL     1      -3.227  -3.488  -0.901  0.00  0.00    +0.183 C 
ATOM      9  N   UNL     1      -3.364  -3.898   0.328  0.00  0.00    -0.194 NA
ATOM     10  C   UNL     1      -2.537  -3.542   1.334  0.00  0.00    +0.212 C 
ATOM     11  N   UNL     1      -1.514  -2.755   1.210  0.00  0.00    -0.223 NA
ATOM     12  N   UNL     1      -2.803  -4.053   2.589  0.00  0.00    -0.328 N 
ATOM     13  H   UNL     1      -3.560  -4.645   2.722  0.00  0.00    +0.145 HD
ATOM     14  H   UNL     1      -2.232  -3.821   3.338  0.00  0.00    +0.145 HD
ENDBRANCH   1   3
BRANCH   1  20
ATOM     15  C   UNL     1       1.208  -0.692   0.193  0.00  0.00    +0.026 A 
ATOM     16  C   UNL     1       2.395   0.010   0.257  0.00  0.00    +0.048 A 
ATOM     17  C   UNL     1       2.386   1.396   0.203  0.00  0.00    +0.130 A 
ATOM     18  C   UNL     1       1.184   2.078   0.086  0.00  0.00    +0.048 A 
ATOM     19  C   UNL     1      -0.005   1.378   0.022  0.00  0.00    +0.026 A 
ATOM     20  C   UNL     1       0.004  -0.010   0.075  0.00  0.00    +0.029 A 
BRANCH  17  21
ATOM     21  O   UNL     1       3.556   2.087   0.267  0.00  0.00    -0.406 OA
BRANCH  21  22
ATOM     22  C   UNL     1       3.472   3.512   0.206  0.00  0.00    +0.575 C 
ATOM     23  F   UNL     1       2.701   3.979   1.276  0.00  0.00    -0.133 F 
ATOM     24  F   UNL     1       4.757   4.058   0.284  0.00  0.00    -0.133 F 
ATOM     25  F   UNL     1       2.875   3.893  -1.000  0.00  0.00    -0.133 F 
ENDBRANCH  21  22
ENDBRANCH  17  21
ENDBRANCH   1  20
TORSDOF 4
