REMARK  Name = ZINC09264078
REMARK  11 active torsions:
REMARK  status: ('A' for Active; 'I' for Inactive)
REMARK    1  A    between atoms: C_1  and  C_2
REMARK    2  A    between atoms: C_5  and  N_9
REMARK    3  A    between atoms: C_7  and  C_8
REMARK    4  A    between atoms: C_10  and  C_12
REMARK    5  A    between atoms: C_12  and  C_13
REMARK    6  A    between atoms: C_16  and  S_19
REMARK    7  A    between atoms: N_17  and  C_18
REMARK    8  A    between atoms: S_19  and  C_20
REMARK    9  A    between atoms: C_20  and  C_22
REMARK   10  A    between atoms: C_20  and  C_23
REMARK   11  A    between atoms: C_28  and  C_31
REMARK                            x       y       z     vdW  Elec       q    Type
REMARK                         _______ _______ _______ _____ _____    ______ ____
ROOT
ATOM      1  C   UNL     1      -0.278  -2.301  -0.036  0.00  0.00    +0.143 A 
ATOM      2  N   UNL     1       1.022  -2.380   0.000  0.00  0.00    -0.133 NA
ATOM      3  N   UNL     1       1.536  -1.202  -0.031  0.00  0.00    -0.122 NA
ATOM      4  C   UNL     1       0.584  -0.301  -0.081  0.00  0.00    +0.192 A 
ATOM      5  N   UNL     1      -0.604  -0.974  -0.089  0.00  0.00    -0.309 N 
ATOM      6  C   UNL     1      -1.949  -0.395  -0.144  0.00  0.00    +0.152 C 
ENDROOT
BRANCH   1   7
ATOM      7  C   UNL     1      -1.244  -3.458  -0.022  0.00  0.00    +0.172 C 
BRANCH   7   9
ATOM      8  N   UNL     1      -2.371  -4.917  -1.671  0.00  0.00    -0.285 N 
ATOM      9  C   UNL     1      -1.529  -3.892  -1.437  0.00  0.00    +0.225 C 
ATOM     10  O   UNL     1      -1.000  -3.318  -2.365  0.00  0.00    -0.275 OA
ATOM     11  H   UNL     1      -2.735  -5.425  -0.928  0.00  0.00    +0.155 HD
BRANCH   8  16
ATOM     12  C   UNL     1      -3.792  -6.263  -6.995  0.00  0.00    +0.044 C 
ATOM     13  C   UNL     1      -3.416  -5.906  -5.581  0.00  0.00    -0.047 A 
ATOM     14  C   UNL     1      -3.173  -4.586  -5.244  0.00  0.00    +0.005 A 
ATOM     15  C   UNL     1      -2.833  -4.255  -3.947  0.00  0.00    +0.023 A 
ATOM     16  C   UNL     1      -2.722  -5.249  -2.984  0.00  0.00    +0.034 A 
ATOM     17  C   UNL     1      -2.966  -6.573  -3.325  0.00  0.00    +0.027 A 
ATOM     18  C   UNL     1      -3.312  -6.897  -4.623  0.00  0.00    -0.046 A 
ATOM     19  C   UNL     1      -3.577  -8.333  -4.994  0.00  0.00    +0.044 C 
ENDBRANCH   8  16
ENDBRANCH   7   9
ENDBRANCH   1   7
BRANCH   4  20
ATOM     20  S   UNL     1       0.797   1.447  -0.136  0.00  0.00    -0.074 S 
BRANCH  20  21
ATOM     21  C   UNL     1       2.604   1.545  -0.092  0.00  0.00    +0.137 C 
ATOM     22  C   UNL     1       3.111   1.008   1.248  0.00  0.00    +0.029 C 
BRANCH  21  23
ATOM     23  C   UNL     1       3.034   2.980  -0.254  0.00  0.00    +0.232 C 
ATOM     24  O   UNL     1       2.282   3.877   0.061  0.00  0.00    -0.274 OA
ATOM     25  N   UNL     1       4.255   3.266  -0.748  0.00  0.00    -0.264 N 
ATOM     26  C   UNL     1       4.652   4.590  -0.897  0.00  0.00    +0.165 A 
ATOM     27  N   UNL     1       5.794   5.066  -1.353  0.00  0.00    -0.230 NA
ATOM     28  C   UNL     1       6.009   6.365  -1.434  0.00  0.00    +0.047 A 
ATOM     29  C   UNL     1       5.029   7.208  -1.027  0.00  0.00    +0.071 A 
ATOM     30  S   UNL     1       3.773   6.040  -0.526  0.00  0.00    -0.060 S 
ATOM     31  C   UNL     1       7.316   6.898  -1.962  0.00  0.00    +0.066 C 
ATOM     32  H   UNL     1       4.857   2.548  -1.000  0.00  0.00    +0.157 HD
ENDBRANCH  21  23
ENDBRANCH  20  21
ENDBRANCH   4  20
TORSDOF 6
