REMARK  Name = ZINC51096162
REMARK  8 active torsions:
REMARK  status: ('A' for Active; 'I' for Inactive)
REMARK    1  A    between atoms: C_1  and  C_2
REMARK    2  A    between atoms: C_2  and  C_3
REMARK    3  A    between atoms: C_2  and  N_4
REMARK    4  A    between atoms: N_4  and  C_5
REMARK    5  A    between atoms: C_6  and  C_8
REMARK    6  A    between atoms: C_11  and  N_17
REMARK    7  A    between atoms: C_12  and  N_14
REMARK    8  A    between atoms: N_17  and  N_18
REMARK                            x       y       z     vdW  Elec       q    Type
REMARK                         _______ _______ _______ _____ _____    ______ ____
ROOT
ATOM      1  C   UNL     1       2.539  -1.552  -2.219  0.00  0.00    +0.039 A 
ATOM      2  C   UNL     1       2.174  -1.058  -3.475  0.00  0.00    +0.015 A 
ATOM      3  C   UNL     1       2.896  -1.417  -4.590  0.00  0.00    +0.027 A 
ATOM      4  C   UNL     1       3.988  -2.272  -4.469  0.00  0.00    +0.071 A 
ATOM      5  C   UNL     1       4.354  -2.766  -3.220  0.00  0.00    +0.149 A 
ATOM      6  C   UNL     1       3.640  -2.405  -2.100  0.00  0.00    +0.047 A 
ENDROOT
BRANCH   1   9
ATOM      7  N   UNL     1       0.435  -0.989  -1.107  0.00  0.00    -0.298 N 
ATOM      8  C   UNL     1      -0.267  -1.302  -2.354  0.00  0.00    +0.132 C 
ATOM      9  C   UNL     1       1.768  -1.168  -1.022  0.00  0.00    +0.247 C 
ATOM     10  O   UNL     1       2.335  -1.013   0.043  0.00  0.00    -0.270 OA
BRANCH   7  12
ATOM     11  C   UNL     1      -1.000   0.831  -0.328  0.00  0.00    +0.028 C 
ATOM     12  C   UNL     1      -0.311  -0.482   0.047  0.00  0.00    +0.070 C 
ATOM     13  C   UNL     1      -1.365  -1.510   0.464  0.00  0.00    +0.028 C 
ENDBRANCH   7  12
ENDBRANCH   1   9
BRANCH   5  14
ATOM     14  N   UNL     1       5.515  -3.676  -3.096  0.00  0.00    +0.058 N 
ATOM     15  O   UNL     1       5.498  -4.569  -2.281  0.00  0.00    -0.126 OA
ATOM     16  O   UNL     1       6.479  -3.525  -3.808  0.00  0.00    -0.126 OA
ENDBRANCH   5  14
BRANCH   4  17
ATOM     17  N   UNL     1       4.715  -2.634  -5.598  0.00  0.00    -0.281 N 
ATOM     18  H   UNL     1       5.517  -3.171  -5.507  0.00  0.00    +0.166 HD
BRANCH  17  19
ATOM     19  N   UNL     1       4.298  -2.233  -6.836  0.00  0.00    -0.256 NA
ATOM     20  H   UNL     1       4.206  -1.229  -6.878  0.00  0.00    +0.140 HD
ATOM     21  H   UNL     1       4.923  -2.569  -7.554  0.00  0.00    +0.140 HD
ENDBRANCH  17  19
ENDBRANCH   4  17
TORSDOF 5
