REMARK  Name = ZINC63991373
REMARK  8 active torsions:
REMARK  status: ('A' for Active; 'I' for Inactive)
REMARK    1  A    between atoms: C_1  and  N_2
REMARK    2  A    between atoms: C_6  and  S_9
REMARK    3  A    between atoms: S_9  and  N_12
REMARK    4  A    between atoms: N_12  and  C_13
REMARK    5  A    between atoms: C_13  and  C_14
REMARK    6  A    between atoms: C_14  and  C_16
REMARK    7  A    between atoms: C_14  and  C_22
REMARK    8  A    between atoms: N_33  and  C_36
REMARK                            x       y       z     vdW  Elec       q    Type
REMARK                         _______ _______ _______ _____ _____    ______ ____
ROOT
ATOM      1  N   UNL     1      -5.487  -3.233   1.593  0.00  0.00    -0.189 NA
ATOM      2  H   UNL     1      -5.537  -4.135   1.947  0.00  0.00    +0.148 HD
ENDROOT
BRANCH   1   3
ATOM      3  S   UNL     1      -5.066  -2.985   0.011  0.00  0.00    +0.060 S 
ATOM      4  O   UNL     1      -6.029  -2.090  -0.530  0.00  0.00    -0.153 OA
ATOM      5  O   UNL     1      -4.820  -4.268  -0.549  0.00  0.00    -0.153 OA
BRANCH   3  11
ATOM      6  C   UNL     1      -0.018   1.461   0.010  0.00  0.00    +0.155 C 
ATOM      7  N   UNL     1       0.002  -0.004   0.002  0.00  0.00    -0.281 N 
ATOM      8  C   UNL     1      -1.192  -0.704   0.004  0.00  0.00    +0.150 A 
ATOM      9  C   UNL     1      -1.145  -2.110  -0.004  0.00  0.00    +0.084 A 
ATOM     10  C   UNL     1      -2.334  -2.837  -0.002  0.00  0.00    +0.047 A 
ATOM     11  C   UNL     1      -3.526  -2.130   0.008  0.00  0.00    +0.124 A 
ATOM     12  C   UNL     1      -3.496  -0.746   0.016  0.00  0.00    +0.141 A 
ATOM     13  N   UNL     1      -2.357  -0.080   0.014  0.00  0.00    -0.235 NA
ATOM     14  C   UNL     1       0.171  -2.770  -0.015  0.00  0.00    +0.266 A 
ATOM     15  O   UNL     1       0.262  -3.982  -0.023  0.00  0.00    -0.267 OA
ATOM     16  N   UNL     1       1.275  -1.991  -0.016  0.00  0.00    -0.263 N 
ATOM     17  C   UNL     1       1.179  -0.652  -0.013  0.00  0.00    +0.333 A 
ATOM     18  O   UNL     1       2.203   0.004  -0.019  0.00  0.00    -0.246 OA
ATOM     19  C   UNL     1       2.599  -2.618  -0.026  0.00  0.00    +0.157 C 
ENDBRANCH   3  11
ENDBRANCH   1   3
BRANCH   1  20
ATOM     20  C   UNL     1      -5.782  -2.089   2.460  0.00  0.00    +0.118 C 
BRANCH  20  21
ATOM     21  C   UNL     1      -6.490  -2.577   3.725  0.00  0.00    +0.063 C 
BRANCH  21  22
ATOM     22  C   UNL     1      -6.903  -1.392   4.559  0.00  0.00    -0.033 C 
ATOM     23  C   UNL     1      -8.159  -1.059   4.934  0.00  0.00    -0.000 A 
ATOM     24  C   UNL     1      -9.467  -1.677   4.685  0.00  0.00    +0.010 A 
ATOM     25  C   UNL     1     -10.575  -1.099   5.203  0.00  0.00    +0.001 A 
ATOM     26  C   UNL     1     -10.505   0.073   5.968  0.00  0.00    +0.002 A 
ATOM     27  C   UNL     1      -9.340   0.699   6.240  0.00  0.00    +0.026 A 
ATOM     28  C   UNL     1      -8.113   0.178   5.746  0.00  0.00    +0.043 A 
ATOM     29  N   UNL     1      -6.875   0.593   5.869  0.00  0.00    -0.380 N 
ATOM     30  C   UNL     1      -5.996  -0.337   5.152  0.00  0.00    +0.145 C 
ATOM     31  H   UNL     1      -6.589   1.382   6.355  0.00  0.00    +0.160 HD
ENDBRANCH  21  22
BRANCH  21  32
ATOM     32  C   UNL     1      -5.553  -3.449   4.521  0.00  0.00    -0.039 A 
ATOM     33  C   UNL     1      -4.360  -2.933   4.990  0.00  0.00    +0.004 A 
ATOM     34  C   UNL     1      -3.500  -3.733   5.720  0.00  0.00    +0.000 A 
ATOM     35  C   UNL     1      -3.834  -5.049   5.981  0.00  0.00    +0.000 A 
ATOM     36  C   UNL     1      -5.028  -5.564   5.512  0.00  0.00    +0.000 A 
ATOM     37  C   UNL     1      -5.890  -4.763   4.786  0.00  0.00    +0.004 A 
ENDBRANCH  21  32
ENDBRANCH  20  21
ENDBRANCH   1  20
TORSDOF 6
