REMARK  Name = ZINC49505128
REMARK  6 active torsions:
REMARK  status: ('A' for Active; 'I' for Inactive)
REMARK    1  A    between atoms: C_3  and  C_6
REMARK    2  A    between atoms: C_11  and  C_14
REMARK    3  A    between atoms: C_14  and  C_15
REMARK    4  A    between atoms: C_15  and  N_16
REMARK    5  A    between atoms: C_17  and  C_19
REMARK    6  A    between atoms: N_21  and  C_22
REMARK                            x       y       z     vdW  Elec       q    Type
REMARK                         _______ _______ _______ _____ _____    ______ ____
ROOT
ATOM      1  N   UNL     1       8.727  -1.365   1.324  0.00  0.00    -0.307 N 
ATOM      2  C   UNL     1       8.942  -2.028   2.478  0.00  0.00    +0.299 C 
ATOM      3  O   UNL     1       8.617  -1.528   3.534  0.00  0.00    -0.265 OA
ATOM      4  H   UNL     1       8.986  -1.765   0.479  0.00  0.00    +0.149 HD
ENDROOT
BRANCH   2   5
ATOM      5  C   UNL     1       9.579  -3.378   2.455  0.00  0.00    +0.303 C 
ATOM      6  O   UNL     1       9.904  -3.879   1.398  0.00  0.00    -0.265 OA
ATOM      7  N   UNL     1       9.794  -4.041   3.609  0.00  0.00    -0.278 N 
ATOM      8  H   UNL     1       9.597  -3.614   4.458  0.00  0.00    +0.155 HD
BRANCH   7   9
ATOM      9  C   UNL     1      10.301  -5.344   3.583  0.00  0.00    +0.034 A 
ATOM     10  C   UNL     1      11.226  -5.710   2.615  0.00  0.00    +0.028 A 
ATOM     11  C   UNL     1      11.737  -6.996   2.591  0.00  0.00    -0.024 A 
ATOM     12  C   UNL     1      11.327  -7.920   3.542  0.00  0.00    +0.043 A 
ATOM     13  C   UNL     1      10.386  -7.558   4.500  0.00  0.00    -0.023 A 
ATOM     14  C   UNL     1       9.885  -6.272   4.528  0.00  0.00    +0.028 A 
ATOM     15  C   UNL     1       9.894  -8.568   5.503  0.00  0.00    +0.046 C 
ATOM     16  C   UNL     1      11.013  -9.547   5.851  0.00  0.00    +0.101 C 
ATOM     17  C   UNL     1      11.668 -10.041   4.590  0.00  0.00    +0.220 C 
ATOM     18  O   UNL     1      12.042 -11.193   4.520  0.00  0.00    -0.275 OA
ATOM     19  N   UNL     1      11.843  -9.222   3.539  0.00  0.00    -0.271 N 
ATOM     20  C   UNL     1      12.587  -9.694   2.363  0.00  0.00    +0.114 C 
ATOM     21  C   UNL     1      13.551  -8.579   1.940  0.00  0.00    +0.024 C 
ATOM     22  C   UNL     1      12.734  -7.357   1.521  0.00  0.00    +0.038 C 
ENDBRANCH   7   9
ENDBRANCH   2   5
BRANCH   1  23
ATOM     23  C   UNL     1       8.102  -0.040   1.346  0.00  0.00    +0.111 C 
BRANCH  23  24
ATOM     24  C   UNL     1       7.974   0.487  -0.085  0.00  0.00    +0.075 C 
BRANCH  24  30
ATOM     25  C   UNL     1       3.755   1.853  -0.004  0.00  0.00    +0.189 A 
ATOM     26  N   UNL     1       4.130   3.140   0.001  0.00  0.00    -0.200 NA
ATOM     27  C   UNL     1       5.432   3.208  -0.019  0.00  0.00    +0.196 A 
ATOM     28  N   UNL     1       5.961   1.954  -0.039  0.00  0.00    -0.210 N 
ATOM     29  N   UNL     1       4.830   1.095  -0.023  0.00  0.00    -0.144 NA
ATOM     30  C   UNL     1       7.331   1.850  -0.062  0.00  0.00    +0.054 A 
ATOM     31  C   UNL     1       8.098   2.941  -0.065  0.00  0.00    +0.072 A 
ATOM     32  S   UNL     1       6.876   4.244  -0.034  0.00  0.00    -0.056 S 
BRANCH  25  35
ATOM     33  C   UNL     1      -0.003   1.403   0.048  0.00  0.00    +0.008 A 
ATOM     34  C   UNL     1       1.195   2.084   0.033  0.00  0.00    +0.019 A 
ATOM     35  C   UNL     1       2.360   1.365   0.014  0.00  0.00    +0.058 A 
ATOM     36  S   UNL     1       1.756  -0.315   0.016  0.00  0.00    -0.093 S 
ATOM     37  C   UNL     1       0.008   0.045   0.043  0.00  0.00    +0.046 A 
ENDBRANCH  25  35
ENDBRANCH  24  30
ENDBRANCH  23  24
ENDBRANCH   1  23
TORSDOF 6
