REMARK  Name = ZINC63426798
REMARK  10 active torsions:
REMARK  status: ('A' for Active; 'I' for Inactive)
REMARK    1  A    between atoms: C_1  and  O_2
REMARK    2  A    between atoms: O_2  and  C_3
REMARK    3  A    between atoms: C_8  and  N_9
REMARK    4  A    between atoms: C_13  and  N_14
REMARK    5  A    between atoms: N_14  and  C_15
REMARK    6  A    between atoms: C_15  and  C_17
REMARK    7  A    between atoms: C_15  and  C_27
REMARK    8  A    between atoms: C_17  and  C_18
REMARK    9  A    between atoms: C_27  and  O_29
REMARK   10  A    between atoms: O_29  and  C_30
REMARK                            x       y       z     vdW  Elec       q    Type
REMARK                         _______ _______ _______ _____ _____    ______ ____
ROOT
ATOM      1  N   UNL     1      -0.042  -2.457  -0.131  0.00  0.00    -0.186 N 
ATOM      2  C   UNL     1       0.760  -2.989  -1.076  0.00  0.00    +0.265 C 
ATOM      3  O   UNL     1       1.966  -2.837  -1.030  0.00  0.00    -0.269 OA
ATOM      4  C   UNL     1       0.136  -3.759  -2.166  0.00  0.00    +0.113 C 
ATOM      5  C   UNL     1       0.893  -4.333  -3.170  0.00  0.00    +0.086 C 
ATOM      6  C   UNL     1      -1.332  -3.891  -2.139  0.00  0.00    +0.258 C 
ATOM      7  O   UNL     1      -1.919  -4.513  -3.005  0.00  0.00    -0.270 OA
ATOM      8  N   UNL     1      -2.006  -3.305  -1.129  0.00  0.00    -0.235 N 
ATOM      9  C   UNL     1      -1.371  -2.622  -0.166  0.00  0.00    +0.320 C 
ATOM     10  O   UNL     1      -2.037  -2.121   0.719  0.00  0.00    -0.251 OA
ATOM     11  H   UNL     1      -2.973  -3.382  -1.096  0.00  0.00    +0.159 HD
ENDROOT
BRANCH   1  17
ATOM     12  C   UNL     1       0.707  -0.344   0.788  0.00  0.00    +0.142 A 
ATOM     13  C   UNL     1       1.267   0.380   1.828  0.00  0.00    +0.047 A 
ATOM     14  C   UNL     1       1.653  -0.264   2.989  0.00  0.00    +0.004 A 
ATOM     15  C   UNL     1       1.483  -1.630   3.116  0.00  0.00    +0.002 A 
ATOM     16  C   UNL     1       0.926  -2.360   2.083  0.00  0.00    +0.028 A 
ATOM     17  C   UNL     1       0.530  -1.720   0.917  0.00  0.00    +0.087 A 
BRANCH  12  19
ATOM     18  C   UNL     1       0.538   1.699  -0.416  0.00  0.00    +0.277 C 
ATOM     19  O   UNL     1       0.326   0.287  -0.354  0.00  0.00    -0.493 OA
ENDBRANCH  12  19
ENDBRANCH   1  17
BRANCH   5  20
ATOM     20  N   UNL     1       0.313  -5.157  -4.066  0.00  0.00    -0.336 N 
ATOM     21  H   UNL     1      -0.616  -5.413  -3.958  0.00  0.00    +0.146 HD
BRANCH  20  22
ATOM     22  C   UNL     1       1.085  -5.664  -5.203  0.00  0.00    +0.184 C 
BRANCH  22  23
ATOM     23  C   UNL     1       1.051  -4.656  -6.323  0.00  0.00    +0.328 C 
ATOM     24  O   UNL     1       0.443  -3.621  -6.185  0.00  0.00    -0.249 OA
BRANCH  23  25
ATOM     25  O   UNL     1       1.695  -4.909  -7.473  0.00  0.00    -0.467 OA
ATOM     26  C   UNL     1       1.620  -3.909  -8.492  0.00  0.00    +0.280 C 
ENDBRANCH  23  25
ENDBRANCH  22  23
BRANCH  22  27
ATOM     27  C   UNL     1       0.477  -6.983  -5.684  0.00  0.00    +0.066 C 
BRANCH  27  28
ATOM     28  C   UNL     1       0.623  -8.026  -4.607  0.00  0.00    -0.039 C 
ATOM     29  C   UNL     1      -0.297  -8.366  -3.675  0.00  0.00    -0.001 A 
ATOM     30  C   UNL     1      -1.655  -7.884  -3.396  0.00  0.00    +0.010 A 
ATOM     31  C   UNL     1      -2.346  -8.430  -2.370  0.00  0.00    +0.001 A 
ATOM     32  C   UNL     1      -1.800  -9.442  -1.568  0.00  0.00    +0.002 A 
ATOM     33  C   UNL     1      -0.559  -9.936  -1.763  0.00  0.00    +0.026 A 
ATOM     34  C   UNL     1       0.257  -9.435  -2.814  0.00  0.00    +0.043 A 
ATOM     35  N   UNL     1       1.472  -9.745  -3.199  0.00  0.00    -0.380 N 
ATOM     36  C   UNL     1       1.824  -8.909  -4.352  0.00  0.00    +0.144 C 
ATOM     37  H   UNL     1       2.041 -10.416  -2.791  0.00  0.00    +0.160 HD
ENDBRANCH  27  28
ENDBRANCH  22  27
ENDBRANCH  20  22
ENDBRANCH   5  20
TORSDOF 8
