REMARK  Name = ZINC00942048
REMARK  6 active torsions:
REMARK  status: ('A' for Active; 'I' for Inactive)
REMARK    1  A    between atoms: C_1  and  O_2
REMARK    2  A    between atoms: O_2  and  C_3
REMARK    3  A    between atoms: C_3  and  C_5
REMARK    4  A    between atoms: C_10  and  N_11
REMARK    5  A    between atoms: C_12  and  C_14
REMARK    6  A    between atoms: C_17  and  N_20
REMARK                            x       y       z     vdW  Elec       q    Type
REMARK                         _______ _______ _______ _____ _____    ______ ____
ROOT
ATOM      1  N   UNL     1       0.780   0.314   4.818  0.00  0.00    -0.281 N 
ATOM      2  C   UNL     1       1.216  -0.229   5.972  0.00  0.00    +0.248 C 
ATOM      3  O   UNL     1       0.604  -0.037   7.004  0.00  0.00    -0.270 OA
ATOM      4  H   UNL     1       1.222   0.097   3.982  0.00  0.00    +0.155 HD
ENDROOT
BRANCH   1  10
ATOM      5  C   UNL     1      -0.270   2.361   4.059  0.00  0.00    +0.081 A 
ATOM      6  C   UNL     1      -1.368   3.226   4.071  0.00  0.00    +0.032 A 
ATOM      7  C   UNL     1      -2.472   2.924   4.838  0.00  0.00    +0.019 A 
ATOM      8  C   UNL     1      -2.500   1.766   5.600  0.00  0.00    +0.017 A 
ATOM      9  C   UNL     1      -1.423   0.902   5.598  0.00  0.00    +0.025 A 
ATOM     10  C   UNL     1      -0.304   1.187   4.826  0.00  0.00    +0.048 A 
ATOM     11 BR   UNL     1      -3.956   4.096   4.853  0.00  0.00    -0.050 Br
BRANCH   5  12
ATOM     12  C   UNL     1       0.914   2.678   3.240  0.00  0.00    +0.341 C 
ATOM     13  O   UNL     1       1.878   1.938   3.255  0.00  0.00    -0.245 OA
BRANCH  12  15
ATOM     14  C   UNL     1       2.128   4.036   1.697  0.00  0.00    +0.280 C 
ATOM     15  O   UNL     1       0.928   3.788   2.477  0.00  0.00    -0.464 OA
ENDBRANCH  12  15
ENDBRANCH   5  12
ENDBRANCH   1  10
BRANCH   2  16
ATOM     16  C   UNL     1       2.439  -1.059   5.982  0.00  0.00    +0.037 A 
ATOM     17  C   UNL     1       3.141  -1.287   4.797  0.00  0.00    +0.015 A 
ATOM     18  C   UNL     1       4.285  -2.058   4.815  0.00  0.00    +0.033 A 
ATOM     19  C   UNL     1       4.730  -2.615   6.001  0.00  0.00    +0.126 A 
ATOM     20  C   UNL     1       4.035  -2.397   7.178  0.00  0.00    +0.033 A 
ATOM     21  C   UNL     1       2.893  -1.624   7.175  0.00  0.00    +0.015 A 
BRANCH  19  22
ATOM     22  N   UNL     1       5.954  -3.446   6.011  0.00  0.00    +0.056 N 
ATOM     23  O   UNL     1       6.348  -3.937   7.053  0.00  0.00    -0.126 OA
ATOM     24  O   UNL     1       6.568  -3.639   4.976  0.00  0.00    -0.126 OA
ENDBRANCH  19  22
ENDBRANCH   2  16
TORSDOF 5
