REMARK  Name = ZINC20510194
REMARK  9 active torsions:
REMARK  status: ('A' for Active; 'I' for Inactive)
REMARK    1  A    between atoms: C_1  and  C_2
REMARK    2  A    between atoms: C_2  and  O_3
REMARK    3  A    between atoms: O_3  and  C_4
REMARK    4  A    between atoms: C_4  and  C_6
REMARK    5  A    between atoms: C_9  and  N_12
REMARK    6  A    between atoms: C_13  and  C_15
REMARK    7  A    between atoms: C_15  and  C_16
REMARK    8  A    between atoms: C_16  and  S_17
REMARK    9  A    between atoms: S_17  and  C_20
REMARK                            x       y       z     vdW  Elec       q    Type
REMARK                         _______ _______ _______ _____ _____    ______ ____
ROOT
ATOM      1  C   UNL     1       3.540   6.568  -0.147  0.00  0.00    +0.181 C 
ENDROOT
BRANCH   1   2
ATOM      2  S   UNL     1       3.150   5.376  -1.458  0.00  0.00    -0.001 S 
ATOM      3  O   UNL     1       4.202   5.335  -2.412  0.00  0.00    -0.169 OA
ATOM      4  O   UNL     1       1.800   5.530  -1.874  0.00  0.00    -0.169 OA
BRANCH   2   5
ATOM      5  C   UNL     1       3.200   3.802  -0.666  0.00  0.00    +0.110 A 
ATOM      6  C   UNL     1       2.045   3.048  -0.560  0.00  0.00    +0.076 A 
ATOM      7  C   UNL     1       2.083   1.812   0.061  0.00  0.00    +0.144 A 
ATOM      8  C   UNL     1       3.286   1.331   0.577  0.00  0.00    +0.077 A 
ATOM      9  C   UNL     1       4.439   2.089   0.466  0.00  0.00    +0.049 A 
ATOM     10  C   UNL     1       4.393   3.325  -0.155  0.00  0.00    +0.068 A 
ATOM     11 CL   UNL     1       5.837   4.278  -0.294  0.00  0.00    -0.082 Cl
ATOM     12  N   UNL     1       3.310   0.077   1.205  0.00  0.00    -0.280 N 
ATOM     13  C   UNL     1       2.269  -0.765   1.024  0.00  0.00    +0.255 C 
ATOM     14  O   UNL     1       2.254  -1.842   1.582  0.00  0.00    -0.272 OA
ATOM     15  C   UNL     1       1.127  -0.362   0.127  0.00  0.00    +0.325 C 
ATOM     16  O   UNL     1       0.957   1.057   0.174  0.00  0.00    -0.481 OA
ATOM     17  H   UNL     1       4.167  -0.207   1.833  0.00  0.00    +0.155 HD
ENDBRANCH   2   5
ENDBRANCH   1   2
BRANCH   1  18
ATOM     18  C   UNL     1       3.525   7.984  -0.726  0.00  0.00    +0.119 C 
BRANCH  18  20
ATOM     19  N   UNL     1       3.893  10.293   0.083  0.00  0.00    -0.285 N 
ATOM     20  C   UNL     1       3.849   8.975   0.362  0.00  0.00    +0.219 C 
ATOM     21  O   UNL     1       4.070   8.587   1.490  0.00  0.00    -0.275 OA
ATOM     22  H   UNL     1       3.779  10.639  -0.955  0.00  0.00    +0.155 HD
BRANCH  19  26
ATOM     23  C   UNL     1       4.462  13.055   3.148  0.00  0.00    +0.059 A 
ATOM     24  C   UNL     1       4.985  13.303   1.875  0.00  0.00    +0.017 A 
ATOM     25  C   UNL     1       4.795  12.388   0.865  0.00  0.00    +0.024 A 
ATOM     26  C   UNL     1       4.084  11.217   1.109  0.00  0.00    +0.033 A 
ATOM     27  C   UNL     1       3.557  10.970   2.373  0.00  0.00    +0.024 A 
ATOM     28  C   UNL     1       3.748  11.878   3.389  0.00  0.00    +0.017 A 
BRANCH  23  29
ATOM     29  C   UNL     1       4.663  14.033   4.233  0.00  0.00    +0.339 C 
ATOM     30  O   UNL     1       5.284  15.056   4.022  0.00  0.00    -0.245 OA
BRANCH  29  31
ATOM     31  O   UNL     1       4.158  13.792   5.459  0.00  0.00    -0.461 OA
BRANCH  31  33
ATOM     32  C   UNL     1       3.752  14.353   7.794  0.00  0.00    +0.048 C 
ATOM     33  C   UNL     1       4.395  14.798   6.479  0.00  0.00    +0.229 C 
ENDBRANCH  31  33
ENDBRANCH  29  31
ENDBRANCH  23  29
ENDBRANCH  19  26
ENDBRANCH  18  20
ENDBRANCH   1  18
TORSDOF 8
