REMARK  Name = ZINC40098248
REMARK  5 active torsions:
REMARK  status: ('A' for Active; 'I' for Inactive)
REMARK    1  A    between atoms: C_1  and  C_2
REMARK    2  A    between atoms: C_2  and  C_4
REMARK    3  A    between atoms: C_2  and  O_17
REMARK    4  A    between atoms: C_4  and  N_5
REMARK    5  A    between atoms: N_8  and  C_9
REMARK                            x       y       z     vdW  Elec       q    Type
REMARK                         _______ _______ _______ _____ _____    ______ ____
ROOT
ATOM      1  N   UNL     1       0.648  -1.959  -1.318  0.00  0.00    -0.297 N 
ATOM      2  C   UNL     1       1.204  -2.619  -2.354  0.00  0.00    +0.304 C 
ATOM      3  O   UNL     1       1.779  -2.001  -3.229  0.00  0.00    -0.253 OA
ATOM      4  N   UNL     1       1.121  -3.962  -2.420  0.00  0.00    -0.268 N 
ATOM      5  H   UNL     1       0.189  -2.452  -0.620  0.00  0.00    +0.150 HD
ATOM      6  H   UNL     1       0.720  -4.460  -1.690  0.00  0.00    +0.156 HD
ENDROOT
BRANCH   4   7
ATOM      7  C   UNL     1       1.615  -4.640  -3.541  0.00  0.00    +0.049 A 
ATOM      8  C   UNL     1       2.743  -4.168  -4.198  0.00  0.00    +0.025 A 
ATOM      9  C   UNL     1       3.229  -4.838  -5.303  0.00  0.00    +0.017 A 
ATOM     10  C   UNL     1       2.592  -5.980  -5.757  0.00  0.00    +0.019 A 
ATOM     11  C   UNL     1       1.467  -6.453  -5.105  0.00  0.00    +0.032 A 
ATOM     12  C   UNL     1       0.980  -5.789  -3.995  0.00  0.00    +0.040 A 
ATOM     13 BR   UNL     1      -0.553  -6.440  -3.100  0.00  0.00    -0.048 Br
ATOM     14 BR   UNL     1       3.259  -6.895  -7.272  0.00  0.00    -0.050 Br
ENDBRANCH   4   7
BRANCH   1  15
ATOM     15  C   UNL     1       0.738  -0.499  -1.246  0.00  0.00    +0.136 C 
BRANCH  15  17
ATOM     16  C   UNL     1       0.016   1.524   0.030  0.00  0.00    +0.039 C 
ATOM     17  C   UNL     1       0.032  -0.006   0.018  0.00  0.00    +0.129 C 
BRANCH  17  18
ATOM     18  O   UNL     1       0.728  -0.484   1.170  0.00  0.00    -0.391 OA
ATOM     19  H   UNL     1       0.335  -0.209   2.010  0.00  0.00    +0.210 HD
ENDBRANCH  17  18
ENDBRANCH  15  17
ENDBRANCH   1  15
TORSDOF 4
