REMARK  Name = ZINC34981713
REMARK  2 active torsions:
REMARK  status: ('A' for Active; 'I' for Inactive)
REMARK    1  A    between atoms: C_4  and  C_7
REMARK    2  A    between atoms: C_9  and  C_18
REMARK                            x       y       z     vdW  Elec       q    Type
REMARK                         _______ _______ _______ _____ _____    ______ ____
ROOT
ATOM      1  C   UNL     1       3.589  -0.112  -2.314  0.00  0.00    +0.028 C 
ATOM      2  C   UNL     1       2.980   1.052  -1.941  0.00  0.00    +0.079 C 
ATOM      3  C   UNL     1       2.788   1.631  -0.594  0.00  0.00    +0.276 C 
ATOM      4  O   UNL     1       3.196   1.070   0.411  0.00  0.00    -0.267 OA
ATOM      5  N   UNL     1       2.155   2.783  -0.538  0.00  0.00    -0.154 NA
ATOM      6  C   UNL     1       1.708   3.401  -1.619  0.00  0.00    +0.154 C 
ATOM      7  S   UNL     1       2.197   2.308  -2.945  0.00  0.00    -0.052 S 
ATOM      8  N   UNL     1       1.039   4.593  -1.703  0.00  0.00    -0.308 N 
ATOM      9  C   UNL     1       0.710   5.177  -3.011  0.00  0.00    +0.126 C 
ATOM     10  C   UNL     1      -0.801   5.430  -3.069  0.00  0.00    +0.128 C 
ATOM     11  N   UNL     1      -1.204   6.149  -1.852  0.00  0.00    -0.283 N 
ATOM     12  C   UNL     1      -0.875   5.566  -0.543  0.00  0.00    +0.128 C 
ATOM     13  C   UNL     1       0.632   5.310  -0.486  0.00  0.00    +0.126 C 
ATOM     14  C   UNL     1      -1.862   7.322  -1.934  0.00  0.00    +0.300 C 
ATOM     15  O   UNL     1      -2.216   7.746  -3.017  0.00  0.00    -0.253 OA
ATOM     16  N   UNL     1      -2.128   8.025  -0.815  0.00  0.00    -0.313 N 
ATOM     17  H   UNL     1      -1.779   7.727   0.040  0.00  0.00    +0.146 HD
ATOM     18  H   UNL     1      -2.667   8.830  -0.865  0.00  0.00    +0.146 HD
ENDROOT
BRANCH   1  20
ATOM     19  C   UNL     1       5.474  -1.455  -1.304  0.00  0.00    +0.234 C 
ATOM     20  C   UNL     1       4.032  -1.020  -1.334  0.00  0.00    -0.001 C 
ATOM     21  C   UNL     1       3.159  -1.506  -0.411  0.00  0.00    +0.019 C 
ATOM     22  C   UNL     1       3.679  -2.405   0.627  0.00  0.00    +0.017 A 
ATOM     23  C   UNL     1       2.822  -3.150   1.439  0.00  0.00    +0.011 A 
ATOM     24  C   UNL     1       3.352  -4.000   2.387  0.00  0.00    +0.001 A 
ATOM     25  C   UNL     1       4.726  -4.116   2.533  0.00  0.00    +0.004 A 
ATOM     26  C   UNL     1       5.584  -3.376   1.741  0.00  0.00    +0.046 A 
ATOM     27  C   UNL     1       5.071  -2.510   0.792  0.00  0.00    +0.129 A 
ATOM     28  O   UNL     1       5.887  -1.738   0.032  0.00  0.00    -0.479 OA
BRANCH  19  32
ATOM     29  C   UNL     1       7.916   1.664  -2.902  0.00  0.00    +0.000 A 
ATOM     30  C   UNL     1       7.557   0.592  -3.696  0.00  0.00    +0.000 A 
ATOM     31  C   UNL     1       6.767  -0.418  -3.179  0.00  0.00    +0.007 A 
ATOM     32  C   UNL     1       6.336  -0.355  -1.867  0.00  0.00    -0.003 A 
ATOM     33  C   UNL     1       6.696   0.717  -1.072  0.00  0.00    +0.007 A 
ATOM     34  C   UNL     1       7.485   1.727  -1.590  0.00  0.00    +0.000 A 
ENDBRANCH  19  32
ENDBRANCH   1  20
TORSDOF 2
