REMARK  Name = ZINC00355832
REMARK  7 active torsions:
REMARK  status: ('A' for Active; 'I' for Inactive)
REMARK    1  A    between atoms: C_1  and  C_2
REMARK    2  A    between atoms: N_6  and  C_7
REMARK    3  A    between atoms: C_7  and  C_8
REMARK    4  A    between atoms: N_10  and  N_11
REMARK    5  A    between atoms: C_12  and  C_13
REMARK    6  A    between atoms: C_16  and  O_20
REMARK    7  A    between atoms: C_18  and  O_19
REMARK                            x       y       z     vdW  Elec       q    Type
REMARK                         _______ _______ _______ _____ _____    ______ ____
ROOT
ATOM      1  N   UNL     1       3.551   3.319  -0.013  0.00  0.00    -0.188 NA
ATOM      2  C   UNL     1       2.414   3.947   0.001  0.00  0.00    +0.142 C 
ENDROOT
BRANCH   2   3
ATOM      3  C   UNL     1       1.153   3.186   0.008  0.00  0.00    +0.036 A 
ATOM      4  C   UNL     1      -0.072   3.858   0.024  0.00  0.00    +0.016 A 
ATOM      5  C   UNL     1      -1.249   3.142   0.031  0.00  0.00    +0.046 A 
ATOM      6  C   UNL     1      -1.224   1.752   0.017  0.00  0.00    +0.120 A 
ATOM      7  C   UNL     1      -0.013   1.076   0.008  0.00  0.00    +0.091 A 
ATOM      8  C   UNL     1       1.177   1.784   0.000  0.00  0.00    +0.129 A 
BRANCH   8   9
ATOM      9  O   UNL     1       2.363   1.122  -0.014  0.00  0.00    -0.506 OA
ATOM     10  H   UNL     1       2.698   0.935  -0.902  0.00  0.00    +0.292 HD
ENDBRANCH   8   9
BRANCH   6  11
ATOM     11  O   UNL     1      -2.389   1.054   0.019  0.00  0.00    -0.507 OA
ATOM     12  H   UNL     1      -2.722   0.847   0.902  0.00  0.00    +0.292 HD
ENDBRANCH   6  11
ENDBRANCH   2   3
BRANCH   1  15
ATOM     13  C   UNL     1       5.930   3.392  -0.035  0.00  0.00    +0.254 C 
ATOM     14  O   UNL     1       5.954   2.179  -0.041  0.00  0.00    -0.272 OA
ATOM     15  N   UNL     1       4.750   4.043  -0.020  0.00  0.00    -0.205 N 
ATOM     16  H   UNL     1       4.731   5.013  -0.015  0.00  0.00    +0.177 HD
BRANCH  13  17
ATOM     17  C   UNL     1       7.220   4.171  -0.042  0.00  0.00    +0.241 C 
BRANCH  17  23
ATOM     18  C   UNL     1       8.640   3.026   2.465  0.00  0.00    +0.065 C 
ATOM     19  C   UNL     1       8.979   2.735   1.025  0.00  0.00    +0.037 A 
ATOM     20  C   UNL     1       9.964   1.917   0.587  0.00  0.00    +0.044 A 
ATOM     21  C   UNL     1       9.944   1.931  -0.811  0.00  0.00    +0.134 A 
ATOM     22  N   UNL     1       8.979   2.724  -1.199  0.00  0.00    -0.179 NA
ATOM     23  N   UNL     1       8.352   3.241  -0.058  0.00  0.00    -0.260 N 
ENDBRANCH  17  23
ENDBRANCH  13  17
ENDBRANCH   1  15
TORSDOF 6
