REMARK  Name = ZINC14562691
REMARK  9 active torsions:
REMARK  status: ('A' for Active; 'I' for Inactive)
REMARK    1  A    between atoms: C_1  and  C_2
REMARK    2  A    between atoms: C_4  and  N_7
REMARK    3  A    between atoms: C_8  and  C_10
REMARK    4  A    between atoms: C_10  and  C_12
REMARK    5  A    between atoms: C_10  and  S_13
REMARK    6  A    between atoms: S_13  and  C_14
REMARK    7  A    between atoms: C_22  and  C_26
REMARK    8  A    between atoms: N_29  and  C_30
REMARK    9  A    between atoms: C_30  and  C_31
REMARK                            x       y       z     vdW  Elec       q    Type
REMARK                         _______ _______ _______ _____ _____    ______ ____
ROOT
ATOM      1  C   UNL     1       0.002  -0.004   0.002  0.00  0.00    +0.174 A 
ATOM      2  N   UNL     1       1.142  -0.665  -0.012  0.00  0.00    -0.216 NA
ATOM      3  C   UNL     1       2.302  -0.020  -0.020  0.00  0.00    +0.117 A 
ATOM      4  C   UNL     1       2.377   1.383  -0.013  0.00  0.00    +0.076 A 
ATOM      5  C   UNL     1       3.727   1.951  -0.022  0.00  0.00    -0.023 A 
ATOM      6  C   UNL     1       4.757   1.082  -0.035  0.00  0.00    -0.004 A 
ATOM      7  S   UNL     1       4.004  -0.523  -0.038  0.00  0.00    -0.073 S 
ATOM      8  C   UNL     1       6.219   1.407  -0.047  0.00  0.00    +0.046 C 
ATOM      9  C   UNL     1       6.383   2.889  -0.414  0.00  0.00    -0.009 C 
ATOM     10  C   UNL     1       5.415   3.716   0.436  0.00  0.00    +0.008 C 
ATOM     11  C   UNL     1       3.977   3.457  -0.015  0.00  0.00    +0.037 C 
ATOM     12  C   UNL     1       7.820   3.334  -0.135  0.00  0.00    +0.008 C 
ATOM     13  C   UNL     1       1.124   2.074   0.003  0.00  0.00    +0.264 A 
ATOM     14  O   UNL     1       1.091   3.293   0.009  0.00  0.00    -0.267 OA
ATOM     15  N   UNL     1      -0.016   1.361   0.009  0.00  0.00    -0.280 N 
ENDROOT
BRANCH   1  16
ATOM     16  S   UNL     1      -1.519  -0.894   0.012  0.00  0.00    -0.075 S 
BRANCH  16  17
ATOM     17  C   UNL     1      -0.890  -2.591  -0.003  0.00  0.00    +0.137 C 
ATOM     18  C   UNL     1      -0.154  -2.850  -1.319  0.00  0.00    +0.029 C 
BRANCH  17  20
ATOM     19  N   UNL     1      -1.835  -4.786   0.634  0.00  0.00    -0.253 N 
ATOM     20  C   UNL     1      -2.041  -3.555   0.127  0.00  0.00    +0.233 C 
ATOM     21  O   UNL     1      -3.153  -3.222  -0.225  0.00  0.00    -0.274 OA
ATOM     22  H   UNL     1      -0.946  -5.052   0.916  0.00  0.00    +0.158 HD
BRANCH  19  26
ATOM     23  C   UNL     1      -4.703  -8.752   1.552  0.00  0.00    +0.069 C 
ATOM     24  C   UNL     1      -4.178  -7.399   1.146  0.00  0.00    +0.082 A 
ATOM     25  C   UNL     1      -2.847  -6.946   1.245  0.00  0.00    +0.092 A 
ATOM     26  C   UNL     1      -2.895  -5.673   0.754  0.00  0.00    +0.224 A 
ATOM     27  O   UNL     1      -4.175  -5.449   0.416  0.00  0.00    -0.339 OA
ATOM     28  N   UNL     1      -4.867  -6.417   0.635  0.00  0.00    -0.081 NA
ENDBRANCH  19  26
ENDBRANCH  17  20
ENDBRANCH  16  17
ENDBRANCH   1  16
BRANCH  15  29
ATOM     29  C   UNL     1      -1.303   2.062   0.019  0.00  0.00    +0.201 C 
BRANCH  29  30
ATOM     30  C   UNL     1      -1.737   2.295   1.444  0.00  0.00    +0.125 A 
ATOM     31  C   UNL     1      -1.437   3.372   2.192  0.00  0.00    +0.046 A 
ATOM     32  C   UNL     1      -2.046   3.177   3.452  0.00  0.00    +0.041 A 
ATOM     33  C   UNL     1      -2.675   1.989   3.402  0.00  0.00    +0.195 A 
ATOM     34  O   UNL     1      -2.485   1.459   2.183  0.00  0.00    -0.466 OA
ENDBRANCH  29  30
ENDBRANCH  15  29
TORSDOF 6
