REMARK  Name = ZINC45633126
REMARK  10 active torsions:
REMARK  status: ('A' for Active; 'I' for Inactive)
REMARK    1  A    between atoms: C_1  and  C_2
REMARK    2  A    between atoms: C_5  and  C_8
REMARK    3  A    between atoms: C_8  and  N_9
REMARK    4  A    between atoms: C_11  and  C_15
REMARK    5  A    between atoms: C_12  and  C_14
REMARK    6  A    between atoms: C_15  and  O_17
REMARK    7  A    between atoms: O_17  and  C_18
REMARK    8  A    between atoms: C_18  and  C_20
REMARK    9  A    between atoms: C_18  and  C_21
REMARK   10  A    between atoms: N_26  and  C_27
REMARK                            x       y       z     vdW  Elec       q    Type
REMARK                         _______ _______ _______ _____ _____    ______ ____
ROOT
ATOM      1  C   UNL     1       4.560  -5.790  -1.571  0.00  0.00    +0.345 C 
ATOM      2  O   UNL     1       5.364  -4.949  -1.924  0.00  0.00    -0.245 OA
ENDROOT
BRANCH   1   5
ATOM      3  N   UNL     1       1.444  -4.744  -0.041  0.00  0.00    -0.248 N 
ATOM      4  C   UNL     1       2.179  -4.990  -1.138  0.00  0.00    +0.142 A 
ATOM      5  C   UNL     1       3.427  -5.409  -0.713  0.00  0.00    +0.118 A 
ATOM      6  C   UNL     1       3.408  -5.404   0.701  0.00  0.00    +0.075 A 
ATOM      7  N   UNL     1       2.229  -5.004   1.087  0.00  0.00    -0.174 NA
ATOM      8  C   UNL     1       4.552  -5.790   1.603  0.00  0.00    +0.068 C 
ATOM      9 CL   UNL     1       1.659  -4.814  -2.785  0.00  0.00    -0.061 Cl
BRANCH   3  10
ATOM     10  C   UNL     1       0.055  -4.277  -0.029  0.00  0.00    +0.180 C 
BRANCH  10  15
ATOM     11  C   UNL     1      -0.038   1.500  -0.031  0.00  0.00    +0.044 C 
ATOM     12  C   UNL     1      -0.013  -0.006  -0.030  0.00  0.00    -0.050 A 
ATOM     13  C   UNL     1      -0.013  -0.698  -1.227  0.00  0.00    +0.004 A 
ATOM     14  C   UNL     1       0.010  -2.080  -1.226  0.00  0.00    +0.006 A 
ATOM     15  C   UNL     1       0.032  -2.771  -0.029  0.00  0.00    -0.026 A 
ATOM     16  C   UNL     1       0.032  -2.079   1.168  0.00  0.00    +0.006 A 
ATOM     17  C   UNL     1       0.014  -0.697   1.167  0.00  0.00    +0.004 A 
ENDBRANCH  10  15
ENDBRANCH   3  10
ENDBRANCH   1   5
BRANCH   1  18
ATOM     18  O   UNL     1       4.708  -7.070  -1.965  0.00  0.00    -0.449 OA
BRANCH  18  19
ATOM     19  C   UNL     1       5.831  -7.368  -2.797  0.00  0.00    +0.259 C 
ATOM     20  C   UNL     1       5.435  -7.205  -4.266  0.00  0.00    +0.062 C 
BRANCH  19  21
ATOM     21  C   UNL     1       6.276  -8.786  -2.550  0.00  0.00    +0.261 C 
ATOM     22  O   UNL     1       5.636  -9.503  -1.811  0.00  0.00    -0.271 OA
ATOM     23  N   UNL     1       7.386  -9.258  -3.152  0.00  0.00    -0.237 N 
ATOM     24  C   UNL     1       7.784 -10.527  -2.932  0.00  0.00    +0.310 C 
ATOM     25  O   UNL     1       7.142 -11.245  -2.191  0.00  0.00    -0.252 OA
ATOM     26  N   UNL     1       8.894 -10.999  -3.534  0.00  0.00    -0.269 N 
ATOM     27  H   UNL     1       7.898  -8.685  -3.744  0.00  0.00    +0.159 HD
ATOM     28  H   UNL     1       9.368 -10.449  -4.177  0.00  0.00    +0.156 HD
BRANCH  26  29
ATOM     29  C   UNL     1       9.361 -12.283  -3.231  0.00  0.00    +0.035 A 
ATOM     30  C   UNL     1      10.726 -12.535  -3.196  0.00  0.00    +0.023 A 
ATOM     31  C   UNL     1      11.185 -13.803  -2.897  0.00  0.00    +0.002 A 
ATOM     32  C   UNL     1      10.287 -14.821  -2.633  0.00  0.00    +0.000 A 
ATOM     33  C   UNL     1       8.927 -14.572  -2.668  0.00  0.00    +0.002 A 
ATOM     34  C   UNL     1       8.462 -13.305  -2.960  0.00  0.00    +0.023 A 
ENDBRANCH  26  29
ENDBRANCH  19  21
ENDBRANCH  18  19
ENDBRANCH   1  18
TORSDOF 7
