REMARK  Name = ZINC36158573
REMARK  3 active torsions:
REMARK  status: ('A' for Active; 'I' for Inactive)
REMARK    1  A    between atoms: C_1  and  C_2
REMARK    2  A    between atoms: C_4  and  C_9
REMARK    3  A    between atoms: C_9  and  C_15
REMARK                            x       y       z     vdW  Elec       q    Type
REMARK                         _______ _______ _______ _____ _____    ______ ____
ROOT
ATOM      1  C   UNL     1      -0.018   1.503   0.010  0.00  0.00    +0.047 C 
ATOM      2  C   UNL     1       0.002  -0.004   0.002  0.00  0.00    -0.015 A 
ATOM      3  C   UNL     1       0.006  -0.689  -1.199  0.00  0.00    +0.013 A 
ATOM      4  C   UNL     1       0.025  -2.071  -1.206  0.00  0.00    -0.003 A 
ATOM      5  C   UNL     1       0.040  -2.770  -0.014  0.00  0.00    +0.010 A 
ATOM      6  C   UNL     1       0.036  -2.088   1.188  0.00  0.00    +0.039 A 
ATOM      7  C   UNL     1       0.023  -0.703   1.197  0.00  0.00    +0.126 A 
ATOM      8  F   UNL     1       0.025  -0.035   2.371  0.00  0.00    -0.205 F 
ENDROOT
BRANCH   4   9
ATOM      9  C   UNL     1       0.028  -2.816  -2.516  0.00  0.00    +0.153 C 
ATOM     10  C   UNL     1      -0.801  -4.118  -2.413  0.00  0.00    +0.160 C 
ATOM     11  N   UNL     1      -1.453  -4.179  -3.736  0.00  0.00    -0.277 N 
ATOM     12  C   UNL     1      -1.323  -2.970  -4.314  0.00  0.00    +0.401 C 
ATOM     13  O   UNL     1      -1.735  -2.708  -5.426  0.00  0.00    -0.226 OA
ATOM     14  O   UNL     1      -0.689  -2.083  -3.528  0.00  0.00    -0.438 OA
ATOM     15  C   UNL     1       1.459  -3.114  -2.969  0.00  0.00    +0.063 C 
ATOM     16  H   UNL     1      -1.895  -4.952  -4.121  0.00  0.00    +0.152 HD
ENDBRANCH   4   9
TORSDOF 1
