REMARK  Name = ZINC00039883
REMARK  4 active torsions:
REMARK  status: ('A' for Active; 'I' for Inactive)
REMARK    1  A    between atoms: C_1  and  C_2
REMARK    2  A    between atoms: C_3  and  C_13
REMARK    3  A    between atoms: C_7  and  N_11
REMARK    4  A    between atoms: N_11  and  C_12
REMARK                            x       y       z     vdW  Elec       q    Type
REMARK                         _______ _______ _______ _____ _____    ______ ____
ROOT
ATOM      1  C   UNL     1       4.961  -0.281  -0.004  0.00  0.00    +0.045 C 
ATOM      2  C   UNL     1       3.576  -0.875   0.001  0.00  0.00    -0.028 A 
ATOM      3  C   UNL     1       3.397  -2.175   0.276  0.00  0.00    -0.008 A 
ATOM      4  S   UNL     1       1.630  -2.386   0.161  0.00  0.00    -0.074 S 
ATOM      5  C   UNL     1       1.180  -0.722  -0.253  0.00  0.00    +0.114 A 
ATOM      6  C   UNL     1       2.419  -0.046  -0.291  0.00  0.00    +0.051 A 
ATOM      7  C   UNL     1       2.349   1.339  -0.607  0.00  0.00    +0.130 A 
ATOM      8  N   UNL     1       1.168   1.889  -0.838  0.00  0.00    -0.220 NA
ATOM      9  C   UNL     1       0.046   1.194  -0.786  0.00  0.00    +0.224 A 
ATOM     10  N   UNL     1       0.047  -0.094  -0.498  0.00  0.00    -0.228 NA
ATOM     11  C   UNL     1       4.440  -3.212   0.604  0.00  0.00    +0.052 C 
ENDROOT
BRANCH   7  12
ATOM     12  N   UNL     1       3.501   2.102  -0.671  0.00  0.00    -0.332 N 
ATOM     13  C   UNL     1       3.411   3.550  -0.871  0.00  0.00    +0.127 C 
ATOM     14  H   UNL     1       4.369   1.677  -0.585  0.00  0.00    +0.147 HD
ENDBRANCH   7  12
TORSDOF 1
