REMARK  Name = ZINC63384872
REMARK  3 active torsions:
REMARK  status: ('A' for Active; 'I' for Inactive)
REMARK    1  A    between atoms: C_1  and  C_2
REMARK    2  A    between atoms: C_2  and  N_3
REMARK    3  A    between atoms: N_26  and  C_29
REMARK                            x       y       z     vdW  Elec       q    Type
REMARK                         _______ _______ _______ _____ _____    ______ ____
ROOT
ATOM      1  N   UNL     1       0.740  -0.490   1.168  0.00  0.00    -0.299 N 
ATOM      2  C   UNL     1       0.854  -1.814   1.394  0.00  0.00    +0.303 C 
ATOM      3  O   UNL     1       0.291  -2.606   0.663  0.00  0.00    -0.253 OA
ATOM      4  N   UNL     1       1.591  -2.260   2.430  0.00  0.00    -0.265 N 
ATOM      5  C   UNL     1       2.137  -1.299   3.396  0.00  0.00    +0.115 C 
ATOM      6  C   UNL     1       3.666  -1.465   3.477  0.00  0.00    +0.052 C 
ATOM      7  C   UNL     1       3.938  -2.945   3.576  0.00  0.00    -0.034 C 
ATOM      8  C   UNL     1       4.651  -3.653   4.442  0.00  0.00    -0.001 A 
ATOM      9  C   UNL     1       5.528  -3.248   5.552  0.00  0.00    +0.010 A 
ATOM     10  C   UNL     1       6.098  -4.255   6.266  0.00  0.00    +0.001 A 
ATOM     11  C   UNL     1       5.885  -5.609   5.989  0.00  0.00    +0.002 A 
ATOM     12  C   UNL     1       5.103  -6.072   4.981  0.00  0.00    +0.026 A 
ATOM     13  C   UNL     1       4.457  -5.107   4.155  0.00  0.00    +0.043 A 
ATOM     14  N   UNL     1       3.683  -5.268   3.123  0.00  0.00    -0.375 N 
ATOM     15  C   UNL     1       3.342  -3.947   2.592  0.00  0.00    +0.144 C 
ATOM     16  C   UNL     1       1.831  -3.697   2.580  0.00  0.00    +0.166 C 
ATOM     17  C   UNL     1       1.178  -4.231   3.814  0.00  0.00    +0.010 A 
ATOM     18  C   UNL     1       1.354  -3.929   5.147  0.00  0.00    +0.023 A 
ATOM     19  C   UNL     1       0.570  -4.626   6.061  0.00  0.00    +0.018 A 
ATOM     20  C   UNL     1      -0.342  -5.577   5.648  0.00  0.00    +0.017 A 
ATOM     21  C   UNL     1      -0.523  -5.886   4.309  0.00  0.00    +0.025 A 
ATOM     22  C   UNL     1       0.257  -5.194   3.382  0.00  0.00    +0.042 A 
ATOM     23  N   UNL     1       0.282  -5.299   2.002  0.00  0.00    -0.272 N 
ATOM     24  C   UNL     1       1.179  -4.456   1.447  0.00  0.00    +0.250 C 
ATOM     25  O   UNL     1       1.416  -4.332   0.264  0.00  0.00    -0.272 OA
ATOM     26  C   UNL     1      -0.563  -6.217   1.235  0.00  0.00    +0.138 C 
ATOM     27 BR   UNL     1       0.757  -4.263   7.908  0.00  0.00    -0.050 Br
ATOM     28  H   UNL     1       1.128   0.144   1.792  0.00  0.00    +0.150 HD
ATOM     29  H   UNL     1       3.383  -6.118   2.765  0.00  0.00    +0.160 HD
ENDROOT
BRANCH   1  31
ATOM     30  C   UNL     1       0.047   1.522  -0.038  0.00  0.00    +0.024 C 
ATOM     31  C   UNL     1       0.031  -0.008  -0.020  0.00  0.00    +0.102 C 
ENDBRANCH   1  31
TORSDOF 1
