REMARK  Name = ZINC13500687
REMARK  9 active torsions:
REMARK  status: ('A' for Active; 'I' for Inactive)
REMARK    1  A    between atoms: C_1  and  C_2
REMARK    2  A    between atoms: C_2  and  C_3
REMARK    3  A    between atoms: C_2  and  C_4
REMARK    4  A    between atoms: C_4  and  C_6
REMARK    5  A    between atoms: C_4  and  N_72
REMARK    6  A    between atoms: N_10  and  C_11
REMARK    7  A    between atoms: C_17  and  C_18
REMARK    8  A    between atoms: C_17  and  N_72
REMARK    9  A    between atoms: C_33  and  N_72
REMARK                            x       y       z     vdW  Elec       q    Type
REMARK                         _______ _______ _______ _____ _____    ______ ____
ROOT
ATOM      1  N   UNL     1      -1.055  -0.444   0.828  0.00  0.00    +0.391 N 
ATOM      2  H   UNL     1      -1.069   0.248   1.586  0.00  0.00    -0.080 HD
ENDROOT
BRANCH   1   3
ATOM      3  C   UNL     1      -2.157  -0.148  -0.112  0.00  0.00    -0.067 C 
ATOM      4  C   UNL     1      -1.854   1.159  -0.873  0.00  0.00    -0.015 C 
ATOM      5  C   UNL     1      -3.232   1.859  -0.987  0.00  0.00    -0.002 C 
ATOM      6  C   UNL     1      -3.892   1.541   0.378  0.00  0.00    -0.002 C 
ATOM      7  C   UNL     1      -3.452   0.094   0.683  0.00  0.00    -0.015 C 
ENDBRANCH   1   3
BRANCH   1   8
ATOM      8  C   UNL     1       0.243  -0.360   0.126  0.00  0.00    +0.006 C 
BRANCH   8   9
ATOM      9  C   UNL     1       0.355  -1.450  -0.909  0.00  0.00    +0.139 A 
ATOM     10  N   UNL     1       0.016  -2.707  -0.761  0.00  0.00    -0.115 NA
ATOM     11  N   UNL     1       0.261  -3.318  -1.869  0.00  0.00    -0.023 NA
ATOM     12  N   UNL     1       0.755  -2.485  -2.717  0.00  0.00    -0.044 NA
ATOM     13  N   UNL     1       0.829  -1.322  -2.162  0.00  0.00    -0.228 N 
BRANCH  13  14
ATOM     14  C   UNL     1       1.334  -0.094  -2.781  0.00  0.00    +0.111 C 
ATOM     15  C   UNL     1       0.492   0.240  -4.014  0.00  0.00    +0.027 C 
ATOM     16  C   UNL     1       1.019   1.523  -4.660  0.00  0.00    +0.002 C 
ATOM     17  C   UNL     1       2.477   1.322  -5.077  0.00  0.00    +0.000 C 
ATOM     18  C   UNL     1       3.319   0.988  -3.844  0.00  0.00    +0.002 C 
ATOM     19  C   UNL     1       2.792  -0.295  -3.198  0.00  0.00    +0.027 C 
ENDBRANCH  13  14
ENDBRANCH   8   9
BRANCH   8  21
ATOM     20  C   UNL     1       2.721  -0.407   0.441  0.00  0.00    +0.006 C 
ATOM     21  C   UNL     1       1.370  -0.512   1.150  0.00  0.00    -0.024 C 
ATOM     22  C   UNL     1       1.257   0.596   2.200  0.00  0.00    +0.006 C 
ENDBRANCH   8  21
ENDBRANCH   1   8
BRANCH   1  23
ATOM     23  C   UNL     1      -1.231  -1.793   1.405  0.00  0.00    -0.036 C 
BRANCH  23  24
ATOM     24  C   UNL     1      -2.332  -1.739   2.433  0.00  0.00    +0.001 A 
ATOM     25  C   UNL     1      -3.558  -2.241   2.138  0.00  0.00    +0.017 A 
ATOM     26  C   UNL     1      -4.603  -2.179   3.159  0.00  0.00    +0.002 A 
ATOM     27  C   UNL     1      -5.885  -2.686   2.912  0.00  0.00    +0.059 A 
ATOM     28  C   UNL     1      -6.850  -2.611   3.892  0.00  0.00    +0.167 A 
ATOM     29  C   UNL     1      -6.553  -2.030   5.131  0.00  0.00    +0.168 A 
ATOM     30  C   UNL     1      -5.290  -1.525   5.383  0.00  0.00    +0.075 A 
ATOM     31  C   UNL     1      -4.306  -1.593   4.405  0.00  0.00    +0.053 A 
ATOM     32  N   UNL     1      -3.041  -1.095   4.639  0.00  0.00    -0.322 N 
ATOM     33  H   UNL     1      -2.837  -0.691   5.497  0.00  0.00    +0.169 HD
ATOM     34  C   UNL     1      -2.086  -1.161   3.695  0.00  0.00    +0.251 A 
ATOM     35  O   UNL     1      -0.979  -0.710   3.937  0.00  0.00    -0.268 OA
ATOM     36  O   UNL     1      -7.671  -2.082   5.912  0.00  0.00    -0.453 OA
ATOM     37  C   UNL     1      -8.526  -3.062   5.296  0.00  0.00    +0.466 C 
ATOM     38  O   UNL     1      -8.152  -3.022   3.906  0.00  0.00    -0.453 OA
ENDBRANCH  23  24
ENDBRANCH   1  23
TORSDOF 7
