REMARK  Name = ZINC63140230
REMARK  12 active torsions:
REMARK  status: ('A' for Active; 'I' for Inactive)
REMARK    1  A    between atoms: C_1  and  C_2
REMARK    2  A    between atoms: C_2  and  C_3
REMARK    3  A    between atoms: C_2  and  C_4
REMARK    4  A    between atoms: C_4  and  C_5
REMARK    5  A    between atoms: C_5  and  N_6
REMARK    6  A    between atoms: C_26  and  C_28
REMARK    7  A    between atoms: C_30  and  O_38
REMARK    8  A    between atoms: C_31  and  O_36
REMARK    9  A    between atoms: C_32  and  O_34
REMARK   10  A    between atoms: O_34  and  C_35
REMARK   11  A    between atoms: O_36  and  C_37
REMARK   12  A    between atoms: O_38  and  C_39
REMARK                            x       y       z     vdW  Elec       q    Type
REMARK                         _______ _______ _______ _____ _____    ______ ____
ROOT
ATOM      1  N   UNL     1      -2.910  -2.317  -0.471  0.00  0.00    -0.291 N 
ATOM      2  C   UNL     1      -3.361  -2.701   0.856  0.00  0.00    +0.203 C 
ATOM      3  C   UNL     1      -4.728  -3.300   0.836  0.00  0.00    +0.234 C 
ATOM      4  O   UNL     1      -5.201  -3.658   1.894  0.00  0.00    -0.274 OA
ATOM      5  N   UNL     1      -5.469  -3.470  -0.265  0.00  0.00    -0.279 N 
ATOM      6  C   UNL     1      -5.015  -3.063  -1.591  0.00  0.00    +0.167 C 
ATOM      7  C   UNL     1      -3.645  -2.470  -1.572  0.00  0.00    +0.237 C 
ATOM      8  O   UNL     1      -3.169  -2.107  -2.627  0.00  0.00    -0.274 OA
ATOM      9  C   UNL     1      -6.005  -2.051  -2.196  0.00  0.00    +0.065 C 
ATOM     10  C   UNL     1      -7.387  -2.611  -1.966  0.00  0.00    -0.034 C 
ATOM     11  C   UNL     1      -8.403  -2.814  -2.794  0.00  0.00    -0.001 A 
ATOM     12  C   UNL     1      -8.598  -2.468  -4.211  0.00  0.00    +0.010 A 
ATOM     13  C   UNL     1      -9.777  -2.854  -4.766  0.00  0.00    +0.001 A 
ATOM     14  C   UNL     1     -10.771  -3.540  -4.062  0.00  0.00    +0.002 A 
ATOM     15  C   UNL     1     -10.681  -3.890  -2.754  0.00  0.00    +0.026 A 
ATOM     16  C   UNL     1      -9.489  -3.532  -2.059  0.00  0.00    +0.043 A 
ATOM     17  N   UNL     1      -9.152  -3.718  -0.817  0.00  0.00    -0.375 N 
ATOM     18  C   UNL     1      -7.847  -3.093  -0.595  0.00  0.00    +0.131 C 
ATOM     19  C   UNL     1      -6.800  -4.100  -0.112  0.00  0.00    +0.134 C 
ATOM     20  H   UNL     1      -9.676  -4.190  -0.151  0.00  0.00    +0.160 HD
ENDROOT
BRANCH  19  21
ATOM     21  C   UNL     1      -6.872  -5.353  -0.947  0.00  0.00    -0.018 A 
ATOM     22  C   UNL     1      -6.662  -5.285  -2.312  0.00  0.00    +0.055 A 
ATOM     23  C   UNL     1      -6.728  -6.435  -3.083  0.00  0.00    +0.165 A 
ATOM     24  C   UNL     1      -7.005  -7.657  -2.483  0.00  0.00    +0.204 A 
ATOM     25  C   UNL     1      -7.215  -7.721  -1.111  0.00  0.00    +0.165 A 
ATOM     26  C   UNL     1      -7.142  -6.567  -0.345  0.00  0.00    +0.055 A 
BRANCH  25  27
ATOM     27  O   UNL     1      -7.486  -8.915  -0.519  0.00  0.00    -0.491 OA
ATOM     28  C   UNL     1      -7.691  -8.906   0.895  0.00  0.00    +0.277 C 
ENDBRANCH  25  27
BRANCH  24  29
ATOM     29  O   UNL     1      -7.071  -8.788  -3.237  0.00  0.00    -0.488 OA
ATOM     30  C   UNL     1      -5.856  -9.521  -3.416  0.00  0.00    +0.277 C 
ENDBRANCH  24  29
BRANCH  23  31
ATOM     31  O   UNL     1      -6.522  -6.367  -4.426  0.00  0.00    -0.491 OA
ATOM     32  C   UNL     1      -6.242  -5.077  -4.975  0.00  0.00    +0.277 C 
ENDBRANCH  23  31
ENDBRANCH  19  21
BRANCH   1  33
ATOM     33  C   UNL     1      -1.577  -1.726  -0.606  0.00  0.00    +0.108 C 
BRANCH  33  34
ATOM     34  C   UNL     1      -1.676  -0.206  -0.458  0.00  0.00    +0.022 C 
BRANCH  34  36
ATOM     35  C   UNL     1      -0.398   1.938  -0.575  0.00  0.00    +0.007 C 
ATOM     36  C   UNL     1      -0.284   0.412  -0.598  0.00  0.00    -0.016 C 
ATOM     37  C   UNL     1       0.599  -0.051   0.563  0.00  0.00    +0.007 C 
ENDBRANCH  34  36
ENDBRANCH  33  34
ENDBRANCH   1  33
TORSDOF 7
