REMARK  Name = ZINC03248584
REMARK  6 active torsions:
REMARK  status: ('A' for Active; 'I' for Inactive)
REMARK    1  A    between atoms: C_1  and  C_2
REMARK    2  A    between atoms: C_2  and  C_4
REMARK    3  A    between atoms: C_2  and  O_15
REMARK    4  A    between atoms: N_6  and  C_7
REMARK    5  A    between atoms: O_15  and  C_16
REMARK    6  A    between atoms: C_16  and  C_18
REMARK                            x       y       z     vdW  Elec       q    Type
REMARK                         _______ _______ _______ _____ _____    ______ ____
ROOT
ATOM      1  C   UNL     1       3.072   9.348  -1.690  0.00  0.00    +0.340 C 
ATOM      2  O   UNL     1       2.115  10.095  -1.719  0.00  0.00    -0.245 OA
ENDROOT
BRANCH   1   3
ATOM      3  C   UNL     1       2.902   7.945  -1.253  0.00  0.00    +0.061 A 
ATOM      4  C   UNL     1       4.000   7.083  -1.219  0.00  0.00    +0.016 A 
ATOM      5  C   UNL     1       3.840   5.779  -0.811  0.00  0.00    +0.014 A 
ATOM      6  C   UNL     1       2.577   5.307  -0.428  0.00  0.00    +0.048 A 
ATOM      7  C   UNL     1       1.483   6.170  -0.464  0.00  0.00    +0.105 A 
ATOM      8  C   UNL     1       1.643   7.478  -0.872  0.00  0.00    +0.043 A 
ATOM      9  S   UNL     1      -0.115   5.599   0.010  0.00  0.00    +0.026 S 
ATOM     10  O   UNL     1      -0.305   5.999   1.361  0.00  0.00    -0.164 OA
ATOM     11  O   UNL     1      -1.007   5.978  -1.029  0.00  0.00    -0.164 OA
ATOM     12  C   UNL     1      -0.059   3.838   0.009  0.00  0.00    +0.104 A 
ATOM     13  C   UNL     1      -1.236   3.118   0.012  0.00  0.00    +0.028 A 
ATOM     14  C   UNL     1      -1.208   1.735   0.003  0.00  0.00    +0.002 A 
ATOM     15  C   UNL     1       0.004   1.066   0.003  0.00  0.00    +0.001 A 
ATOM     16  C   UNL     1       1.186   1.773   0.000  0.00  0.00    +0.013 A 
ATOM     17  C   UNL     1       1.167   3.174   0.004  0.00  0.00    +0.047 A 
ATOM     18  C   UNL     1       2.441   3.907   0.006  0.00  0.00    +0.197 C 
ATOM     19  O   UNL     1       3.437   3.324   0.386  0.00  0.00    -0.287 OA
ENDBRANCH   1   3
BRANCH   1  20
ATOM     20  O   UNL     1       4.288   9.796  -2.057  0.00  0.00    -0.449 OA
BRANCH  20  22
ATOM     21  C   UNL     1       4.679  12.063  -1.259  0.00  0.00    +0.062 C 
ATOM     22  C   UNL     1       4.381  11.183  -2.475  0.00  0.00    +0.259 C 
BRANCH  22  23
ATOM     23  C   UNL     1       5.489  11.330  -3.485  0.00  0.00    +0.258 C 
ATOM     24  O   UNL     1       6.136  10.361  -3.821  0.00  0.00    -0.271 OA
ATOM     25  N   UNL     1       5.760  12.539  -4.017  0.00  0.00    -0.282 N 
ATOM     26  H   UNL     1       5.200  13.301  -3.800  0.00  0.00    +0.155 HD
BRANCH  25  27
ATOM     27  C   UNL     1       6.849  12.695  -4.881  0.00  0.00    +0.036 A 
ATOM     28  C   UNL     1       7.580  13.875  -4.873  0.00  0.00    +0.043 A 
ATOM     29  C   UNL     1       8.660  14.024  -5.723  0.00  0.00    +0.044 A 
ATOM     30  C   UNL     1       9.005  13.003  -6.591  0.00  0.00    +0.040 A 
ATOM     31  C   UNL     1       8.274  11.828  -6.605  0.00  0.00    +0.044 A 
ATOM     32  C   UNL     1       7.198  11.671  -5.753  0.00  0.00    +0.043 A 
ATOM     33 CL   UNL     1       8.711  10.548  -7.695  0.00  0.00    -0.083 Cl
ATOM     34 CL   UNL     1       9.578  15.497  -5.709  0.00  0.00    -0.083 Cl
ENDBRANCH  25  27
ENDBRANCH  22  23
ENDBRANCH  20  22
ENDBRANCH   1  20
TORSDOF 5
