REMARK  Name = ZINC27647154
REMARK  6 active torsions:
REMARK  status: ('A' for Active; 'I' for Inactive)
REMARK    1  A    between atoms: C_1  and  C_2
REMARK    2  A    between atoms: C_2  and  C_3
REMARK    3  A    between atoms: C_13  and  C_15
REMARK    4  A    between atoms: C_13  and  O_22
REMARK    5  A    between atoms: C_27  and  C_34
REMARK    6  A    between atoms: C_34  and  C_35
REMARK                            x       y       z     vdW  Elec       q    Type
REMARK                         _______ _______ _______ _____ _____    ______ ____
ROOT
ATOM      1  C   UNL     1       4.064   2.739   0.547  0.00  0.00    +0.012 C 
ATOM      2  C   UNL     1       3.747   4.028   1.303  0.00  0.00    +0.010 C 
ATOM      3  C   UNL     1       5.022   4.864   1.437  0.00  0.00    +0.032 C 
ATOM      4  C   UNL     1       4.760   6.042   2.381  0.00  0.00    +0.125 C 
ATOM      5  C   UNL     1       3.355   6.600   2.125  0.00  0.00    +0.076 C 
ATOM      6  C   UNL     1       2.501   6.412   3.381  0.00  0.00    +0.184 C 
ATOM      7  C   UNL     1       3.170   7.124   4.559  0.00  0.00    +0.111 C 
ATOM      8  C   UNL     1       4.607   6.620   4.704  0.00  0.00    +0.190 C 
ATOM      9  O   UNL     1       4.853   5.598   3.736  0.00  0.00    -0.344 OA
ATOM     10  O   UNL     1       1.181   6.938   3.168  0.00  0.00    -0.458 OA
ATOM     11  C   UNL     1       0.103   6.187   3.201  0.00  0.00    +0.332 C 
ATOM     12  O   UNL     1      -0.479   6.135   4.266  0.00  0.00    -0.246 OA
ATOM     13  C   UNL     1      -0.476   5.414   2.120  0.00  0.00    +0.091 C 
ATOM     14  C   UNL     1      -1.422   4.506   2.357  0.00  0.00    -0.063 C 
ATOM     15  C   UNL     1      -2.023   3.718   1.219  0.00  0.00    +0.035 C 
ATOM     16  C   UNL     1      -0.923   3.276   0.254  0.00  0.00    +0.031 C 
ATOM     17  C   UNL     1      -0.711   1.791   0.376  0.00  0.00    -0.027 C 
ATOM     18  C   UNL     1       0.529   1.304   0.409  0.00  0.00    -0.005 C 
ATOM     19  C   UNL     1       1.671   2.221   0.310  0.00  0.00    -0.004 C 
ATOM     20  C   UNL     1       2.886   1.798   0.639  0.00  0.00    -0.023 C 
ENDROOT
BRANCH   8  21
ATOM     21  C   UNL     1       4.809   6.051   6.109  0.00  0.00    +0.143 C 
ATOM     22  C   UNL     1       6.293   5.669   6.281  0.00  0.00    +0.106 C 
ATOM     23  S   UNL     1       6.148   3.879   6.654  0.00  0.00    -0.066 S 
ATOM     24  C   UNL     1       4.376   3.714   6.581  0.00  0.00    +0.272 C 
ATOM     25  O   UNL     1       3.726   2.701   6.757  0.00  0.00    -0.263 OA
ATOM     26  N   UNL     1       3.908   4.936   6.292  0.00  0.00    -0.298 N 
ATOM     27  H   UNL     1       2.822   5.085   6.194  0.00  0.00    +0.150 HD
ENDBRANCH   8  21
BRANCH   1  29
ATOM     28  C   UNL     1       5.667   0.832   0.354  0.00  0.00    +0.004 C 
ATOM     29  C   UNL     1       5.296   2.075   1.165  0.00  0.00    +0.004 C 
ENDBRANCH   1  29
BRANCH   8  30
ATOM     30  O   UNL     1       5.516   7.703   4.494  0.00  0.00    -0.363 OA
ATOM     31  H   UNL     1       6.600   7.532   4.558  0.00  0.00    +0.213 HD
ENDBRANCH   8  30
BRANCH  14  32
ATOM     32  C   UNL     1      -1.892   4.262   3.768  0.00  0.00    +0.027 C 
ATOM     33  C   UNL     1      -3.070   5.188   4.079  0.00  0.00    +0.008 C 
ENDBRANCH  14  32
TORSDOF 4
