REMARK  Name = ZINC38605119
REMARK  7 active torsions:
REMARK  status: ('A' for Active; 'I' for Inactive)
REMARK    1  A    between atoms: C_1  and  C_2
REMARK    2  A    between atoms: C_2  and  C_4
REMARK    3  A    between atoms: C_2  and  N_22
REMARK    4  A    between atoms: N_6  and  C_7
REMARK    5  A    between atoms: C_15  and  C_17
REMARK    6  A    between atoms: C_17  and  O_19
REMARK    7  A    between atoms: O_19  and  C_20
REMARK                            x       y       z     vdW  Elec       q    Type
REMARK                         _______ _______ _______ _____ _____    ______ ____
ROOT
ATOM      1  C   UNL     1      -0.197  -0.715   1.878  0.00  0.00    +0.203 C 
ATOM      2  O   UNL     1       0.718  -1.258   1.296  0.00  0.00    -0.277 OA
ATOM      3  N   UNL     1      -0.232  -0.714   3.225  0.00  0.00    -0.288 N 
ATOM      4  H   UNL     1      -0.988  -0.322   3.690  0.00  0.00    +0.155 HD
ENDROOT
BRANCH   3   5
ATOM      5  C   UNL     1       0.794  -1.263   3.934  0.00  0.00    +0.053 C 
ATOM      6  C   UNL     1       0.975  -1.227   5.306  0.00  0.00    +0.019 A 
ATOM      7  C   UNL     1       0.216  -0.653   6.354  0.00  0.00    +0.026 A 
ATOM      8  C   UNL     1       0.642  -0.775   7.636  0.00  0.00    +0.019 A 
ATOM      9  C   UNL     1       1.820  -1.458   7.955  0.00  0.00    +0.017 A 
ATOM     10  C   UNL     1       2.595  -2.031   7.004  0.00  0.00    +0.027 A 
ATOM     11  C   UNL     1       2.216  -1.946   5.639  0.00  0.00    +0.045 A 
ATOM     12  N   UNL     1       2.787  -2.410   4.545  0.00  0.00    -0.367 N 
ATOM     13  C   UNL     1       1.968  -2.043   3.385  0.00  0.00    +0.234 C 
ATOM     14 BR   UNL     1      -0.382  -0.003   9.026  0.00  0.00    -0.050 Br
ATOM     15  H   UNL     1       3.613  -2.916   4.513  0.00  0.00    +0.161 HD
BRANCH  13  16
ATOM     16  C   UNL     1       1.482  -3.281   2.676  0.00  0.00    +0.335 C 
ATOM     17  O   UNL     1       1.055  -4.214   3.313  0.00  0.00    -0.248 OA
BRANCH  16  18
ATOM     18  O   UNL     1       1.525  -3.347   1.336  0.00  0.00    -0.466 OA
ATOM     19  C   UNL     1       1.048  -4.550   0.730  0.00  0.00    +0.280 C 
ENDBRANCH  16  18
ENDBRANCH  13  16
ENDBRANCH   3   5
BRANCH   1  21
ATOM     20  C   UNL     1      -1.346   1.443   1.462  0.00  0.00    -0.004 C 
ATOM     21  C   UNL     1      -1.294  -0.041   1.095  0.00  0.00    +0.017 C 
BRANCH  21  22
ATOM     22  N   UNL     1      -1.027  -0.181  -0.343  0.00  0.00    +0.390 N 
ATOM     23  C   UNL     1       0.178   0.585  -0.696  0.00  0.00    -0.073 C 
ATOM     24  C   UNL     1       0.614   0.186  -2.107  0.00  0.00    +0.017 C 
ATOM     25  C   UNL     1      -0.559   0.282  -3.049  0.00  0.00    -0.048 A 
ATOM     26  C   UNL     1      -0.316   0.302  -4.413  0.00  0.00    +0.004 A 
ATOM     27  C   UNL     1      -1.365   0.385  -5.307  0.00  0.00    +0.000 A 
ATOM     28  C   UNL     1      -2.664   0.449  -4.838  0.00  0.00    +0.000 A 
ATOM     29  C   UNL     1      -2.907   0.431  -3.479  0.00  0.00    +0.002 A 
ATOM     30  C   UNL     1      -1.854   0.348  -2.580  0.00  0.00    -0.061 A 
ATOM     31  C   UNL     1      -2.164   0.340  -1.107  0.00  0.00    -0.042 C 
ATOM     32  H   UNL     1      -0.887  -1.155  -0.567  0.00  0.00    -0.080 HD
ENDBRANCH  21  22
ENDBRANCH   1  21
TORSDOF 5
