REMARK  Name = ZINC61404919
REMARK  3 active torsions:
REMARK  status: ('A' for Active; 'I' for Inactive)
REMARK    1  A    between atoms: N_5  and  C_8
REMARK    2  A    between atoms: C_8  and  C_9
REMARK    3  A    between atoms: N_18  and  N_19
REMARK                            x       y       z     vdW  Elec       q    Type
REMARK                         _______ _______ _______ _____ _____    ______ ____
ROOT
ATOM      1  C   UNL     1       3.934  -1.128   1.379  0.00  0.00    +0.154 A 
ATOM      2  N   UNL     1       4.743  -0.279   1.987  0.00  0.00    -0.214 NA
ATOM      3  C   UNL     1       5.161  -0.469   3.228  0.00  0.00    +0.144 A 
ATOM      4  C   UNL     1       4.728  -1.624   3.936  0.00  0.00    +0.049 A 
ATOM      5  C   UNL     1       5.038  -2.055   5.288  0.00  0.00    +0.021 A 
ATOM      6  C   UNL     1       4.505  -3.196   5.750  0.00  0.00    +0.048 A 
ATOM      7  S   UNL     1       3.531  -3.786   4.378  0.00  0.00    -0.077 S 
ATOM      8  C   UNL     1       3.865  -2.483   3.222  0.00  0.00    +0.114 A 
ATOM      9  N   UNL     1       3.494  -2.213   1.986  0.00  0.00    -0.223 NA
ATOM     10  N   UNL     1       6.009   0.444   3.829  0.00  0.00    -0.267 N 
ATOM     11  H   UNL     1       6.311   0.299   4.739  0.00  0.00    +0.167 HD
ENDROOT
BRANCH  10  12
ATOM     12  N   UNL     1       6.420   1.550   3.141  0.00  0.00    -0.255 NA
ATOM     13  H   UNL     1       5.630   2.084   2.810  0.00  0.00    +0.140 HD
ATOM     14  H   UNL     1       7.032   2.120   3.705  0.00  0.00    +0.140 HD
ENDBRANCH  10  12
BRANCH   1  15
ATOM     15  C   UNL     1       3.499  -0.847  -0.036  0.00  0.00    +0.223 C 
BRANCH  15  20
ATOM     16  C   UNL     1      -0.017   1.401   0.010  0.00  0.00    +0.027 A 
ATOM     17  C   UNL     1       1.177   2.065   0.002  0.00  0.00    +0.073 A 
ATOM     18  C   UNL     1       2.359   1.294  -0.013  0.00  0.00    +0.268 A 
ATOM     19  O   UNL     1       3.451   1.839  -0.021  0.00  0.00    -0.266 OA
ATOM     20  N   UNL     1       2.270  -0.050  -0.020  0.00  0.00    -0.222 N 
ATOM     21  N   UNL     1       1.135  -0.650  -0.013  0.00  0.00    -0.176 NA
ATOM     22  C   UNL     1       0.002  -0.004   0.002  0.00  0.00    +0.133 A 
ENDBRANCH  15  20
ENDBRANCH   1  15
TORSDOF 3
