REMARK  Name = ZINC06320975
REMARK  9 active torsions:
REMARK  status: ('A' for Active; 'I' for Inactive)
REMARK    1  A    between atoms: C_1  and  C_2
REMARK    2  A    between atoms: C_6  and  C_15
REMARK    3  A    between atoms: C_13  and  C_14
REMARK    4  A    between atoms: C_15  and  C_17
REMARK    5  A    between atoms: C_15  and  N_63
REMARK    6  A    between atoms: N_21  and  C_22
REMARK    7  A    between atoms: C_22  and  C_23
REMARK    8  A    between atoms: C_22  and  C_24
REMARK    9  A    between atoms: C_22  and  C_25
REMARK                            x       y       z     vdW  Elec       q    Type
REMARK                         _______ _______ _______ _____ _____    ______ ____
ROOT
ATOM      1  C   UNL     1      -4.768   3.738  -0.117  0.00  0.00    +0.039 C 
ENDROOT
BRANCH   1   7
ATOM      2  C   UNL     1       2.637   3.574  -0.987  0.00  0.00    +0.044 C 
ATOM      3  C   UNL     1       1.313   2.865  -0.855  0.00  0.00    -0.047 A 
ATOM      4  C   UNL     1       0.169   3.594  -0.691  0.00  0.00    +0.013 A 
ATOM      5  C   UNL     1      -1.060   2.937  -0.569  0.00  0.00    -0.001 A 
ATOM      6  C   UNL     1      -2.305   3.687  -0.392  0.00  0.00    +0.017 A 
ATOM      7  C   UNL     1      -3.468   2.997  -0.295  0.00  0.00    +0.011 A 
ATOM      8  C   UNL     1      -3.464   1.587  -0.348  0.00  0.00    +0.251 A 
ATOM      9  O   UNL     1      -4.520   0.986  -0.249  0.00  0.00    -0.268 OA
ATOM     10  N   UNL     1      -2.326   0.889  -0.506  0.00  0.00    -0.322 N 
ATOM     11  H   UNL     1      -2.359  -0.080  -0.538  0.00  0.00    +0.169 HD
ATOM     12  C   UNL     1      -1.111   1.531  -0.621  0.00  0.00    +0.049 A 
ATOM     13  C   UNL     1       0.067   0.811  -0.784  0.00  0.00    +0.030 A 
ATOM     14  C   UNL     1       1.267   1.479  -0.902  0.00  0.00    -0.046 A 
ATOM     15  C   UNL     1       2.542   0.696  -1.083  0.00  0.00    +0.044 C 
ENDBRANCH   1   7
BRANCH   1  25
ATOM     16  C   UNL     1      -6.668   4.027   1.359  0.00  0.00    -0.072 C 
ATOM     17  C   UNL     1      -7.520   3.263   2.373  0.00  0.00    +0.017 C 
ATOM     18  C   UNL     1      -6.675   2.858   3.554  0.00  0.00    -0.048 A 
ATOM     19  C   UNL     1      -7.314   2.475   4.724  0.00  0.00    +0.004 A 
ATOM     20  C   UNL     1      -6.578   2.093   5.827  0.00  0.00    +0.000 A 
ATOM     21  C   UNL     1      -5.196   2.094   5.766  0.00  0.00    +0.000 A 
ATOM     22  C   UNL     1      -4.560   2.477   4.603  0.00  0.00    +0.002 A 
ATOM     23  C   UNL     1      -5.298   2.861   3.493  0.00  0.00    -0.061 A 
ATOM     24  C   UNL     1      -4.558   3.275   2.248  0.00  0.00    -0.041 C 
ATOM     25  N   UNL     1      -5.460   3.223   1.086  0.00  0.00    +0.392 N 
ATOM     26  H   UNL     1      -5.737   2.248   0.920  0.00  0.00    -0.080 HD
ENDBRANCH   1  25
BRANCH   1  27
ATOM     27  C   UNL     1      -5.644   3.511  -1.321  0.00  0.00    +0.143 A 
ATOM     28  N   UNL     1      -6.216   2.385  -1.672  0.00  0.00    -0.115 NA
ATOM     29  N   UNL     1      -6.883   2.597  -2.754  0.00  0.00    -0.023 NA
ATOM     30  N   UNL     1      -6.744   3.828  -3.107  0.00  0.00    -0.043 NA
ATOM     31  N   UNL     1      -5.987   4.424  -2.249  0.00  0.00    -0.225 N 
BRANCH  31  32
ATOM     32  C   UNL     1      -5.579   5.830  -2.279  0.00  0.00    +0.059 C 
ATOM     33  C   UNL     1      -4.051   5.917  -2.298  0.00  0.00    +0.036 C 
ATOM     34  C   UNL     1      -6.143   6.499  -3.534  0.00  0.00    +0.036 C 
ATOM     35  C   UNL     1      -6.115   6.543  -1.036  0.00  0.00    +0.036 C 
ENDBRANCH  31  32
ENDBRANCH   1  27
TORSDOF 4
