REMARK  Name = ZINC09392918
REMARK  6 active torsions:
REMARK  status: ('A' for Active; 'I' for Inactive)
REMARK    1  A    between atoms: N_9  and  C_12
REMARK    2  A    between atoms: C_15  and  C_18
REMARK    3  A    between atoms: C_18  and  O_20
REMARK    4  A    between atoms: O_20  and  C_21
REMARK    5  A    between atoms: C_21  and  C_22
REMARK    6  A    between atoms: N_24  and  C_25
REMARK                            x       y       z     vdW  Elec       q    Type
REMARK                         _______ _______ _______ _____ _____    ______ ____
ROOT
ATOM      1  C   UNL     1      -9.372  -0.936  -0.674  0.00  0.00    +0.045 A 
ATOM      2  C   UNL     1      -9.568   0.441  -0.680  0.00  0.00    +0.025 A 
ATOM      3  C   UNL     1      -8.490   1.292  -0.585  0.00  0.00    +0.017 A 
ATOM      4  C   UNL     1      -7.197   0.770  -0.482  0.00  0.00    +0.059 A 
ATOM      5  C   UNL     1      -7.004  -0.614  -0.480  0.00  0.00    +0.017 A 
ATOM      6  C   UNL     1      -8.087  -1.459  -0.571  0.00  0.00    +0.025 A 
ENDROOT
BRANCH   1  15
ATOM      7  C   UNL     1     -13.637  -5.162  -1.054  0.00  0.00    +0.001 A 
ATOM      8  C   UNL     1     -14.487  -4.073  -1.117  0.00  0.00    +0.001 A 
ATOM      9  C   UNL     1     -13.981  -2.784  -1.066  0.00  0.00    +0.014 A 
ATOM     10  C   UNL     1     -12.614  -2.586  -0.953  0.00  0.00    +0.050 A 
ATOM     11  C   UNL     1     -11.748  -3.696  -0.889  0.00  0.00    +0.050 A 
ATOM     12  C   UNL     1     -12.268  -4.980  -0.941  0.00  0.00    +0.014 A 
ATOM     13  C   UNL     1     -10.384  -3.139  -0.773  0.00  0.00    +0.258 C 
ATOM     14  O   UNL     1      -9.359  -3.785  -0.693  0.00  0.00    -0.269 OA
ATOM     15  N   UNL     1     -10.468  -1.797  -0.771  0.00  0.00    -0.202 N 
ATOM     16  C   UNL     1     -11.747  -1.392  -0.868  0.00  0.00    +0.258 C 
ATOM     17  O   UNL     1     -12.126  -0.238  -0.886  0.00  0.00    -0.269 OA
ENDBRANCH   1  15
BRANCH   4  18
ATOM     18  C   UNL     1      -6.040   1.679  -0.380  0.00  0.00    +0.340 C 
ATOM     19  O   UNL     1      -6.209   2.882  -0.387  0.00  0.00    -0.245 OA
BRANCH  18  20
ATOM     20  O   UNL     1      -4.794   1.175  -0.280  0.00  0.00    -0.452 OA
BRANCH  20  21
ATOM     21  C   UNL     1      -3.703   2.127  -0.184  0.00  0.00    +0.328 C 
BRANCH  21  22
ATOM     22  C   UNL     1      -2.396   1.385  -0.081  0.00  0.00    +0.255 C 
ATOM     23  O   UNL     1      -2.385   0.172  -0.088  0.00  0.00    -0.272 OA
ATOM     24  N   UNL     1      -1.238   2.069   0.019  0.00  0.00    -0.280 N 
ATOM     25  H   UNL     1      -1.252   3.035   0.105  0.00  0.00    +0.155 HD
BRANCH  24  26
ATOM     26  C   UNL     1      -0.016   1.385  -0.002  0.00  0.00    +0.069 A 
ATOM     27  C   UNL     1       0.075   0.144  -0.616  0.00  0.00    +0.027 A 
ATOM     28  C   UNL     1       1.283  -0.527  -0.641  0.00  0.00    +0.017 A 
ATOM     29  C   UNL     1       2.402   0.037  -0.053  0.00  0.00    +0.021 A 
ATOM     30  C   UNL     1       2.315   1.274   0.561  0.00  0.00    +0.055 A 
ATOM     31  C   UNL     1       1.109   1.950   0.589  0.00  0.00    +0.146 A 
ATOM     32  F   UNL     1       1.024   3.158   1.188  0.00  0.00    -0.204 F 
ATOM     33 BR   UNL     1       4.052  -0.884  -0.089  0.00  0.00    -0.050 Br
ENDBRANCH  24  26
ENDBRANCH  21  22
ENDBRANCH  20  21
ENDBRANCH  18  20
ENDBRANCH   4  18
TORSDOF 6
