REMARK  Name = ZINC12715474
REMARK  5 active torsions:
REMARK  status: ('A' for Active; 'I' for Inactive)
REMARK    1  A    between atoms: C_1  and  C_2
REMARK    2  A    between atoms: C_3  and  C_24
REMARK    3  A    between atoms: C_5  and  C_7
REMARK    4  A    between atoms: C_7  and  N_8
REMARK    5  A    between atoms: N_18  and  C_19
REMARK                            x       y       z     vdW  Elec       q    Type
REMARK                         _______ _______ _______ _____ _____    ______ ____
ROOT
ATOM      1  N   UNL     1      -2.481   1.365   0.021  0.00  0.00    -0.320 N 
ATOM      2  C   UNL     1      -1.303   2.086   0.020  0.00  0.00    +0.162 A 
ATOM      3  C   UNL     1      -0.017   1.377   0.010  0.00  0.00    +0.162 A 
ATOM      4  N   UNL     1       1.118   2.043   0.002  0.00  0.00    -0.204 NA
ATOM      5  C   UNL     1       1.098   3.383   0.010  0.00  0.00    +0.244 A 
ATOM      6  C   UNL     1      -0.200   4.099   0.026  0.00  0.00    +0.244 A 
ATOM      7  N   UNL     1      -1.344   3.401   0.033  0.00  0.00    -0.204 NA
ATOM      8  N   UNL     1       0.164   5.359   0.030  0.00  0.00    -0.027 NA
ATOM      9  O   UNL     1       1.376   5.422   0.019  0.00  0.00    -0.238 OA
ATOM     10  N   UNL     1       1.969   4.363   0.007  0.00  0.00    -0.027 NA
ATOM     11  N   UNL     1       0.002  -0.004   0.002  0.00  0.00    -0.323 N 
ATOM     12  H   UNL     1      -2.456   0.396   0.015  0.00  0.00    +0.148 HD
ATOM     13  H   UNL     1      -0.831  -0.500   0.007  0.00  0.00    +0.148 HD
ENDROOT
BRANCH  11  14
ATOM     14  C   UNL     1       1.281  -0.719  -0.014  0.00  0.00    +0.072 C 
ATOM     15  C   UNL     1       1.764  -0.905  -1.467  0.00  0.00    +0.022 C 
ATOM     16  C   UNL     1       2.416  -2.311  -1.473  0.00  0.00    +0.002 C 
ATOM     17  C   UNL     1       1.484  -3.124  -0.540  0.00  0.00    +0.002 C 
ATOM     18  C   UNL     1       1.103  -2.130   0.575  0.00  0.00    +0.022 C 
ENDBRANCH  11  14
BRANCH   1  19
ATOM     19  C   UNL     1      -3.767   2.065   0.031  0.00  0.00    +0.166 C 
BRANCH  19  24
ATOM     20  C   UNL     1      -7.156  -1.004   2.062  0.00  0.00    +0.066 C 
ATOM     21  C   UNL     1      -6.467  -0.373   0.880  0.00  0.00    +0.049 A 
ATOM     22  C   UNL     1      -6.833  -0.690  -0.389  0.00  0.00    +0.009 A 
ATOM     23  S   UNL     1      -5.705   0.335  -1.321  0.00  0.00    -0.076 S 
ATOM     24  C   UNL     1      -4.888   1.057   0.030  0.00  0.00    +0.096 A 
ATOM     25  N   UNL     1      -5.492   0.495   1.051  0.00  0.00    -0.247 NA
ATOM     26  C   UNL     1      -7.896  -1.641  -0.875  0.00  0.00    +0.053 C 
ENDBRANCH  19  24
ENDBRANCH   1  19
TORSDOF 3
