REMARK  Name = ZINC06160251
REMARK  9 active torsions:
REMARK  status: ('A' for Active; 'I' for Inactive)
REMARK    1  A    between atoms: C_1  and  C_2
REMARK    2  A    between atoms: C_2  and  O_3
REMARK    3  A    between atoms: O_3  and  C_4
REMARK    4  A    between atoms: C_4  and  C_6
REMARK    5  A    between atoms: C_11  and  N_12
REMARK    6  A    between atoms: C_13  and  C_14
REMARK    7  A    between atoms: C_13  and  C_15
REMARK    8  A    between atoms: C_16  and  C_30
REMARK    9  A    between atoms: C_19  and  O_20
REMARK                            x       y       z     vdW  Elec       q    Type
REMARK                         _______ _______ _______ _____ _____    ______ ____
ROOT
ATOM      1  C   UNL     1       0.747  -7.172  -1.881  0.00  0.00    +0.080 A 
ATOM      2  C   UNL     1       1.329  -8.021  -0.909  0.00  0.00    +0.073 A 
ATOM      3  N   UNL     1       0.437  -8.898  -0.543  0.00  0.00    -0.166 NA
ATOM      4  N   UNL     1      -0.751  -8.668  -1.246  0.00  0.00    -0.175 N 
ATOM      5  C   UNL     1      -0.563  -7.602  -2.066  0.00  0.00    +0.227 A 
ATOM      6  C   UNL     1      -1.924  -9.402  -1.122  0.00  0.00    +0.198 A 
ATOM      7  N   UNL     1      -3.064  -9.244  -1.752  0.00  0.00    -0.221 NA
ATOM      8  C   UNL     1      -4.133 -10.039  -1.532  0.00  0.00    +0.081 A 
ATOM      9  C   UNL     1      -5.409  -9.976  -2.138  0.00  0.00    +0.029 A 
ATOM     10  C   UNL     1      -6.391 -10.868  -1.796  0.00  0.00    +0.002 A 
ATOM     11  C   UNL     1      -6.174 -11.858  -0.849  0.00  0.00    +0.001 A 
ATOM     12  C   UNL     1      -4.938 -11.950  -0.236  0.00  0.00    +0.017 A 
ATOM     13  C   UNL     1      -3.947 -11.061  -0.572  0.00  0.00    +0.041 A 
ATOM     14  S   UNL     1      -2.262 -10.807  -0.070  0.00  0.00    -0.048 S 
ATOM     15  C   UNL     1       2.740  -7.927  -0.387  0.00  0.00    +0.068 C 
ENDROOT
BRANCH   1  17
ATOM     16  N   UNL     1       1.345  -4.850  -2.039  0.00  0.00    -0.230 NA
ATOM     17  C   UNL     1       1.399  -6.048  -2.559  0.00  0.00    +0.055 C 
ATOM     18  C   UNL     1       2.133  -6.273  -3.856  0.00  0.00    +0.066 C 
BRANCH  16  24
ATOM     19  C   UNL     1       1.094  -2.853  -3.577  0.00  0.00    +0.122 A 
ATOM     20  C   UNL     1       2.008  -1.937  -4.059  0.00  0.00    +0.122 A 
ATOM     21  N   UNL     1       3.213  -2.259  -3.569  0.00  0.00    -0.282 N 
ATOM     22  H   UNL     1       4.036  -1.778  -3.750  0.00  0.00    +0.188 HD
ATOM     23  N   UNL     1       3.106  -3.393  -2.759  0.00  0.00    -0.154 NA
ATOM     24  C   UNL     1       1.849  -3.782  -2.728  0.00  0.00    +0.188 A 
BRANCH  19  25
ATOM     25  C   UNL     1      -0.350  -2.888  -3.854  0.00  0.00    +0.344 C 
ATOM     26  O   UNL     1      -1.044  -3.753  -3.357  0.00  0.00    -0.245 OA
BRANCH  25  27
ATOM     27  O   UNL     1      -0.903  -1.960  -4.660  0.00  0.00    -0.461 OA
BRANCH  27  29
ATOM     28  C   UNL     1      -2.755  -0.925  -5.818  0.00  0.00    +0.048 C 
ATOM     29  C   UNL     1      -2.312  -2.054  -4.886  0.00  0.00    +0.229 C 
ENDBRANCH  27  29
ENDBRANCH  25  27
ENDBRANCH  19  25
ENDBRANCH  16  24
ENDBRANCH   1  17
BRANCH   5  30
ATOM     30  O   UNL     1      -1.476  -7.062  -2.907  0.00  0.00    -0.492 OA
ATOM     31  H   UNL     1      -1.472  -7.449  -3.793  0.00  0.00    +0.294 HD
ENDBRANCH   5  30
TORSDOF 6
