REMARK  Name = ZINC16097449
REMARK  11 active torsions:
REMARK  status: ('A' for Active; 'I' for Inactive)
REMARK    1  A    between atoms: C_1  and  C_2
REMARK    2  A    between atoms: C_2  and  O_3
REMARK    3  A    between atoms: O_3  and  C_4
REMARK    4  A    between atoms: C_4  and  C_6
REMARK    5  A    between atoms: C_10  and  N_11
REMARK    6  A    between atoms: C_12  and  C_14
REMARK    7  A    between atoms: C_14  and  O_15
REMARK    8  A    between atoms: O_15  and  C_16
REMARK    9  A    between atoms: C_16  and  C_18
REMARK   10  A    between atoms: C_19  and  C_30
REMARK   11  A    between atoms: C_25  and  C_29
REMARK                            x       y       z     vdW  Elec       q    Type
REMARK                         _______ _______ _______ _____ _____    ______ ____
ROOT
ATOM      1  N   UNL     1      -0.603  -2.454  -3.921  0.00  0.00    -0.277 N 
ATOM      2  C   UNL     1      -1.118  -2.781  -5.122  0.00  0.00    +0.255 C 
ATOM      3  O   UNL     1      -0.397  -3.224  -5.991  0.00  0.00    -0.272 OA
ATOM      4  H   UNL     1      -1.180  -2.100  -3.226  0.00  0.00    +0.155 HD
ENDROOT
BRANCH   1   9
ATOM      5  C   UNL     1       1.449  -2.344  -2.516  0.00  0.00    +0.091 A 
ATOM      6  C   UNL     1       2.885  -2.621  -2.515  0.00  0.00    -0.021 A 
ATOM      7  C   UNL     1       3.349  -3.116  -3.676  0.00  0.00    -0.004 A 
ATOM      8  S   UNL     1       1.922  -3.210  -4.726  0.00  0.00    -0.077 S 
ATOM      9  C   UNL     1       0.751  -2.623  -3.678  0.00  0.00    +0.086 A 
ATOM     10  C   UNL     1       4.830  -3.378  -3.621  0.00  0.00    +0.043 C 
ATOM     11  C   UNL     1       5.324  -2.577  -2.396  0.00  0.00    +0.010 C 
ATOM     12  C   UNL     1       4.048  -2.505  -1.532  0.00  0.00    +0.037 C 
BRANCH   5  13
ATOM     13  C   UNL     1       0.776  -1.800  -1.335  0.00  0.00    +0.342 C 
ATOM     14  O   UNL     1       0.312  -2.552  -0.499  0.00  0.00    -0.245 OA
BRANCH  13  15
ATOM     15  O   UNL     1       0.671  -0.465  -1.174  0.00  0.00    -0.461 OA
BRANCH  15  17
ATOM     16  C   UNL     1      -0.019   1.526   0.010  0.00  0.00    +0.048 C 
ATOM     17  C   UNL     1       0.002  -0.004   0.002  0.00  0.00    +0.229 C 
ENDBRANCH  15  17
ENDBRANCH  13  15
ENDBRANCH   5  13
ENDBRANCH   1   9
BRANCH   2  18
ATOM     18  C   UNL     1      -2.590  -2.597  -5.387  0.00  0.00    +0.328 C 
BRANCH  18  19
ATOM     19  O   UNL     1      -2.890  -3.012  -6.721  0.00  0.00    -0.451 OA
BRANCH  19  20
ATOM     20  C   UNL     1      -4.175  -2.911  -7.119  0.00  0.00    +0.347 C 
ATOM     21  O   UNL     1      -5.017  -2.482  -6.354  0.00  0.00    -0.244 OA
BRANCH  20  22
ATOM     22  C   UNL     1      -4.556  -3.317  -8.473  0.00  0.00    +0.102 A 
ATOM     23  C   UNL     1      -5.789  -3.285  -9.057  0.00  0.00    -0.015 A 
ATOM     24  C   UNL     1      -5.946  -3.722 -10.374  0.00  0.00    +0.076 A 
ATOM     25  C   UNL     1      -7.173  -3.778 -11.202  0.00  0.00    +0.260 A 
ATOM     26  O   UNL     1      -8.245  -3.412 -10.755  0.00  0.00    -0.267 OA
ATOM     27  N   UNL     1      -7.072  -4.245 -12.462  0.00  0.00    -0.311 N 
ATOM     28  H   UNL     1      -7.866  -4.288 -13.017  0.00  0.00    +0.170 HD
ATOM     29  C   UNL     1      -5.883  -4.655 -12.970  0.00  0.00    +0.108 A 
ATOM     30  N   UNL     1      -4.784  -4.619 -12.267  0.00  0.00    -0.227 NA
ATOM     31  C   UNL     1      -4.771  -4.177 -11.016  0.00  0.00    +0.116 A 
ATOM     32  S   UNL     1      -3.521  -3.970  -9.773  0.00  0.00    -0.062 S 
ATOM     33  C   UNL     1      -5.831  -5.168 -14.386  0.00  0.00    +0.086 C 
ATOM     34  C   UNL     1      -6.979  -2.780  -8.283  0.00  0.00    +0.046 C 
ENDBRANCH  20  22
ENDBRANCH  19  20
ENDBRANCH  18  19
ENDBRANCH   2  18
TORSDOF 8
