REMARK  Name = ZINC09325537
REMARK  9 active torsions:
REMARK  status: ('A' for Active; 'I' for Inactive)
REMARK    1  A    between atoms: C_1  and  O_2
REMARK    2  A    between atoms: O_2  and  C_3
REMARK    3  A    between atoms: C_6  and  C_8
REMARK    4  A    between atoms: C_12  and  N_13
REMARK    5  A    between atoms: C_14  and  C_16
REMARK    6  A    between atoms: C_16  and  S_17
REMARK    7  A    between atoms: S_17  and  C_18
REMARK    8  A    between atoms: C_29  and  O_31
REMARK    9  A    between atoms: O_31  and  C_32
REMARK                            x       y       z     vdW  Elec       q    Type
REMARK                         _______ _______ _______ _____ _____    ______ ____
ROOT
ATOM      1  C   UNL     1      -1.295   2.059   0.019  0.00  0.00    +0.069 A 
ATOM      2  C   UNL     1      -1.958   2.433  -1.219  0.00  0.00    -0.020 A 
ATOM      3  C   UNL     1      -3.131   3.085  -1.065  0.00  0.00    +0.013 A 
ATOM      4  S   UNL     1      -3.358   3.209   0.686  0.00  0.00    -0.076 S 
ATOM      5  C   UNL     1      -1.920   2.398   1.212  0.00  0.00    +0.084 A 
ATOM      6  C   UNL     1      -4.032   3.585  -2.155  0.00  0.00    +0.153 C 
ATOM      7  N   UNL     1      -3.294   3.448  -3.426  0.00  0.00    -0.262 N 
ATOM      8  C   UNL     1      -2.522   2.213  -3.633  0.00  0.00    +0.116 C 
ATOM      9  C   UNL     1      -1.395   2.134  -2.602  0.00  0.00    +0.056 C 
ATOM     10  C   UNL     1      -3.326   4.418  -4.361  0.00  0.00    +0.403 C 
ATOM     11  O   UNL     1      -2.710   4.281  -5.399  0.00  0.00    -0.226 OA
ENDROOT
BRANCH   1  15
ATOM     12  C   UNL     1       1.178  -0.662  -0.013  0.00  0.00    +0.407 C 
ATOM     13  O   UNL     1       2.222  -0.040  -0.019  0.00  0.00    -0.226 OA
ATOM     14  N   UNL     1       0.002  -0.004   0.002  0.00  0.00    -0.217 N 
ATOM     15  C   UNL     1      -0.016   1.344   0.009  0.00  0.00    +0.255 C 
ATOM     16  O   UNL     1       1.029   1.966   0.003  0.00  0.00    -0.270 OA
ATOM     17  H   UNL     1      -0.831  -0.500   0.007  0.00  0.00    +0.161 HD
BRANCH  12  19
ATOM     18  C   UNL     1       2.499  -2.649  -0.036  0.00  0.00    +0.282 C 
ATOM     19  O   UNL     1       1.196  -2.008  -0.020  0.00  0.00    -0.453 OA
ENDBRANCH  12  19
ENDBRANCH   1  15
BRANCH   5  20
ATOM     20  N   UNL     1      -1.496   2.151   2.508  0.00  0.00    -0.279 N 
ATOM     21  C   UNL     1      -2.244   2.561   3.551  0.00  0.00    +0.228 C 
ATOM     22  O   UNL     1      -3.288   3.146   3.357  0.00  0.00    -0.275 OA
ATOM     23  H   UNL     1      -0.661   1.683   2.664  0.00  0.00    +0.155 HD
BRANCH  21  24
ATOM     24  C   UNL     1      -1.783   2.291   4.961  0.00  0.00    +0.170 C 
BRANCH  24  25
ATOM     25  S   UNL     1      -2.996   2.960   6.132  0.00  0.00    -0.116 S 
BRANCH  25  26
ATOM     26  C   UNL     1      -2.322   2.570   7.713  0.00  0.00    +0.008 A 
ATOM     27  C   UNL     1      -1.115   1.888   7.806  0.00  0.00    +0.016 A 
ATOM     28  C   UNL     1      -0.586   1.589   9.046  0.00  0.00    +0.021 A 
ATOM     29  C   UNL     1      -1.263   1.958  10.195  0.00  0.00    +0.041 A 
ATOM     30  C   UNL     1      -2.468   2.632  10.106  0.00  0.00    +0.021 A 
ATOM     31  C   UNL     1      -2.999   2.939   8.868  0.00  0.00    +0.016 A 
ATOM     32 CL   UNL     1      -0.599   1.575  11.753  0.00  0.00    -0.084 Cl
ENDBRANCH  25  26
ENDBRANCH  24  25
ENDBRANCH  21  24
ENDBRANCH   5  20
BRANCH  10  33
ATOM     33  O   UNL     1      -4.040   5.538  -4.145  0.00  0.00    -0.454 OA
ATOM     34  C   UNL     1      -4.029   6.540  -5.195  0.00  0.00    +0.282 C 
ENDBRANCH  10  33
TORSDOF 7
