REMARK  Name = ZINC22935512
REMARK  10 active torsions:
REMARK  status: ('A' for Active; 'I' for Inactive)
REMARK    1  A    between atoms: C_1  and  C_2
REMARK    2  A    between atoms: C_2  and  N_3
REMARK    3  A    between atoms: C_5  and  C_14
REMARK    4  A    between atoms: C_10  and  O_12
REMARK    5  A    between atoms: O_12  and  C_13
REMARK    6  A    between atoms: C_21  and  O_34
REMARK    7  A    between atoms: C_22  and  C_25
REMARK    8  A    between atoms: C_25  and  N_26
REMARK    9  A    between atoms: N_29  and  C_32
REMARK   10  A    between atoms: C_32  and  C_33
REMARK                            x       y       z     vdW  Elec       q    Type
REMARK                         _______ _______ _______ _____ _____    ______ ____
ROOT
ATOM      1  C   UNL     1       3.680  -1.671   2.951  0.00  0.00    +0.060 C 
ATOM      2  C   UNL     1       4.705  -1.792   2.062  0.00  0.00    +0.176 C 
ATOM      3  C   UNL     1       4.661  -1.425   0.691  0.00  0.00    +0.231 C 
ATOM      4  O   UNL     1       3.719  -0.948   0.081  0.00  0.00    -0.283 OA
ATOM      5  C   UNL     1       6.000  -1.744   0.164  0.00  0.00    +0.068 A 
ATOM      6  C   UNL     1       6.590  -1.622  -1.094  0.00  0.00    +0.019 A 
ATOM      7  C   UNL     1       7.886  -2.014  -1.278  0.00  0.00    +0.046 A 
ATOM      8  C   UNL     1       8.618  -2.536  -0.214  0.00  0.00    +0.125 A 
ATOM      9  C   UNL     1       8.044  -2.663   1.040  0.00  0.00    +0.051 A 
ATOM     10  C   UNL     1       6.729  -2.268   1.243  0.00  0.00    +0.147 A 
ATOM     11  O   UNL     1       5.939  -2.276   2.338  0.00  0.00    -0.451 OA
ENDROOT
BRANCH   1  14
ATOM     12  N   UNL     1       0.501  -1.132   1.242  0.00  0.00    -0.346 N 
ATOM     13  C   UNL     1       1.727  -1.704   1.327  0.00  0.00    +0.094 A 
ATOM     14  C   UNL     1       2.349  -1.288   2.485  0.00  0.00    +0.004 A 
ATOM     15  C   UNL     1       1.403  -0.377   3.159  0.00  0.00    +0.011 A 
ATOM     16  C   UNL     1       0.270  -0.316   2.333  0.00  0.00    +0.050 A 
ATOM     17  C   UNL     1      -0.807   0.480   2.708  0.00  0.00    +0.030 A 
ATOM     18  C   UNL     1      -0.755   1.202   3.880  0.00  0.00    +0.047 A 
ATOM     19  C   UNL     1       0.369   1.145   4.698  0.00  0.00    +0.121 A 
ATOM     20  C   UNL     1       1.445   0.352   4.344  0.00  0.00    +0.056 A 
BRANCH  12  22
ATOM     21  C   UNL     1      -0.282  -0.232  -0.893  0.00  0.00    +0.027 C 
ATOM     22  C   UNL     1      -0.445  -1.345   0.144  0.00  0.00    +0.118 C 
ENDBRANCH  12  22
BRANCH  19  23
ATOM     23  O   UNL     1       0.406   1.863   5.852  0.00  0.00    -0.495 OA
ATOM     24  C   UNL     1      -0.744   2.654   6.161  0.00  0.00    +0.277 C 
ENDBRANCH  19  23
ENDBRANCH   1  14
BRANCH   8  25
ATOM     25  O   UNL     1       9.905  -2.924  -0.408  0.00  0.00    -0.506 OA
ATOM     26  H   UNL     1      10.554  -2.224  -0.256  0.00  0.00    +0.292 HD
ENDBRANCH   8  25
BRANCH   9  27
ATOM     27  C   UNL     1       8.847  -3.230   2.183  0.00  0.00    +0.126 C 
BRANCH  27  28
ATOM     28  N   UNL     1       9.541  -2.140   2.882  0.00  0.00    -0.301 NA
ATOM     29  C   UNL     1      10.559  -1.525   2.018  0.00  0.00    +0.066 C 
ATOM     30  C   UNL     1      11.215  -0.359   2.760  0.00  0.00    -0.063 C 
ATOM     31  N   UNL     1      11.832  -0.852   3.999  0.00  0.00    +0.381 N 
ATOM     32  C   UNL     1      10.800  -1.441   4.861  0.00  0.00    -0.063 C 
ATOM     33  C   UNL     1      10.140  -2.616   4.137  0.00  0.00    +0.066 C 
ATOM     34  H   UNL     1      12.523  -1.552   3.775  0.00  0.00    -0.082 HD
BRANCH  31  35
ATOM     35  C   UNL     1      12.478   0.265   4.702  0.00  0.00    -0.082 C 
ATOM     36  C   UNL     1      13.226  -0.268   5.926  0.00  0.00    -0.017 C 
ENDBRANCH  31  35
ENDBRANCH  27  28
ENDBRANCH   9  27
TORSDOF 7
