REMARK  Name = ZINC14304231
REMARK  10 active torsions:
REMARK  status: ('A' for Active; 'I' for Inactive)
REMARK    1  A    between atoms: C_1  and  C_2
REMARK    2  A    between atoms: C_5  and  C_7
REMARK    3  A    between atoms: C_9  and  C_19
REMARK    4  A    between atoms: N_13  and  C_16
REMARK    5  A    between atoms: C_16  and  C_17
REMARK    6  A    between atoms: C_16  and  C_18
REMARK    7  A    between atoms: N_21  and  N_22
REMARK    8  A    between atoms: C_23  and  C_25
REMARK    9  A    between atoms: C_27  and  C_31
REMARK   10  A    between atoms: C_29  and  C_30
REMARK                            x       y       z     vdW  Elec       q    Type
REMARK                         _______ _______ _______ _____ _____    ______ ____
ROOT
ATOM      1  C   UNL     1       1.038  -4.032  -0.027  0.00  0.00    +0.081 A 
ATOM      2  C   UNL     1       2.424  -4.237  -0.029  0.00  0.00    +0.042 A 
ATOM      3  C   UNL     1       2.918  -5.535  -0.038  0.00  0.00    +0.052 A 
ATOM      4  C   UNL     1       1.986  -6.600  -0.045  0.00  0.00    +0.051 A 
ATOM      5  C   UNL     1       2.112  -8.005  -0.056  0.00  0.00    +0.145 A 
ATOM      6  N   UNL     1       0.919  -8.529  -0.059  0.00  0.00    -0.177 NA
ATOM      7  N   UNL     1      -0.044  -7.513  -0.051  0.00  0.00    -0.244 N 
ATOM      8  C   UNL     1       0.607  -6.307  -0.043  0.00  0.00    +0.160 A 
ATOM      9  N   UNL     1       0.190  -5.050  -0.029  0.00  0.00    -0.227 NA
ENDROOT
BRANCH   1  14
ATOM     10  C   UNL     1      -0.018   1.503   0.010  0.00  0.00    +0.051 C 
ATOM     11  C   UNL     1       0.002  -0.004   0.002  0.00  0.00    -0.013 A 
ATOM     12  C   UNL     1      -1.043  -0.873   0.002  0.00  0.00    +0.011 A 
ATOM     13  C   UNL     1      -0.791  -2.225  -0.007  0.00  0.00    +0.018 A 
ATOM     14  C   UNL     1       0.511  -2.653  -0.016  0.00  0.00    +0.038 A 
ATOM     15  S   UNL     1       1.405  -1.107  -0.018  0.00  0.00    -0.092 S 
ENDBRANCH   1  14
BRANCH   3  16
ATOM     16  C   UNL     1       4.373  -5.796  -0.041  0.00  0.00    +0.261 C 
ATOM     17  O   UNL     1       4.785  -6.940  -0.049  0.00  0.00    -0.269 OA
ATOM     18  N   UNL     1       5.243  -4.767  -0.034  0.00  0.00    -0.230 N 
ATOM     19  H   UNL     1       4.914  -3.854  -0.027  0.00  0.00    +0.173 HD
BRANCH  18  20
ATOM     20  N   UNL     1       6.622  -5.014  -0.037  0.00  0.00    -0.230 N 
ATOM     21  C   UNL     1       7.491  -3.984  -0.030  0.00  0.00    +0.263 C 
ATOM     22  O   UNL     1       7.079  -2.840  -0.022  0.00  0.00    -0.269 OA
ATOM     23  H   UNL     1       6.951  -5.927  -0.043  0.00  0.00    +0.173 HD
BRANCH  21  24
ATOM     24  C   UNL     1       8.942  -4.245  -0.033  0.00  0.00    +0.079 A 
ATOM     25  C   UNL     1       9.610  -5.554  -0.049  0.00  0.00    +0.057 A 
ATOM     26  C   UNL     1      10.927  -5.297  -0.045  0.00  0.00    +0.103 A 
ATOM     27  O   UNL     1      11.115  -3.968  -0.029  0.00  0.00    -0.464 OA
ATOM     28  C   UNL     1       9.945  -3.321  -0.027  0.00  0.00    +0.114 A 
ATOM     29  C   UNL     1       9.766  -1.825  -0.017  0.00  0.00    +0.087 C 
ATOM     30  C   UNL     1      12.020  -6.335  -0.057  0.00  0.00    +0.086 C 
ENDBRANCH  21  24
ENDBRANCH  18  20
ENDBRANCH   3  16
BRANCH   7  31
ATOM     31  C   UNL     1      -1.496  -7.706  -0.053  0.00  0.00    +0.103 C 
ATOM     32  C   UNL     1      -1.907  -8.479  -1.308  0.00  0.00    +0.032 C 
ATOM     33  C   UNL     1      -1.907  -8.497   1.191  0.00  0.00    +0.032 C 
ENDBRANCH   7  31
TORSDOF 5
