REMARK  Name = ZINC51054961
REMARK  11 active torsions:
REMARK  status: ('A' for Active; 'I' for Inactive)
REMARK    1  A    between atoms: C_1  and  C_2
REMARK    2  A    between atoms: C_2  and  C_3
REMARK    3  A    between atoms: C_3  and  C_4
REMARK    4  A    between atoms: C_4  and  C_6
REMARK    5  A    between atoms: C_4  and  N_7
REMARK    6  A    between atoms: C_8  and  C_10
REMARK    7  A    between atoms: N_15  and  C_17
REMARK    8  A    between atoms: C_17  and  C_18
REMARK    9  A    between atoms: N_20  and  C_21
REMARK   10  A    between atoms: C_25  and  N_28
REMARK   11  A    between atoms: C_26  and  C_27
REMARK                            x       y       z     vdW  Elec       q    Type
REMARK                         _______ _______ _______ _____ _____    ______ ____
ROOT
ATOM      1  C   UNL     1      -2.545  -4.092  -1.055  0.00  0.00    +0.058 C 
ATOM      2  C   UNL     1      -2.955  -4.156  -2.530  0.00  0.00    +0.009 C 
ATOM      3  C   UNL     1      -4.336  -4.808  -2.638  0.00  0.00    -0.018 C 
ATOM      4  C   UNL     1      -4.294  -6.192  -1.986  0.00  0.00    -0.078 C 
ATOM      5  N   UNL     1      -3.922  -6.060  -0.572  0.00  0.00    +0.386 N 
ATOM      6  C   UNL     1      -2.569  -5.502  -0.462  0.00  0.00    -0.065 C 
ATOM      7  H   UNL     1      -4.576  -5.447  -0.110  0.00  0.00    -0.081 HD
ENDROOT
BRANCH   1   9
ATOM      8  N   UNL     1      -0.894  -2.284  -1.407  0.00  0.00    -0.313 N 
ATOM      9  C   UNL     1      -1.154  -3.522  -0.944  0.00  0.00    +0.215 C 
ATOM     10  O   UNL     1      -0.269  -4.179  -0.438  0.00  0.00    -0.276 OA
ATOM     11  H   UNL     1      -1.602  -1.758  -1.811  0.00  0.00    +0.149 HD
BRANCH   8  12
ATOM     12  C   UNL     1       0.458  -1.730  -1.298  0.00  0.00    +0.070 C 
ATOM     13  C   UNL     1       1.296  -2.193  -2.492  0.00  0.00    +0.028 C 
BRANCH  12  14
ATOM     14  C   UNL     1       0.384  -0.202  -1.289  0.00  0.00    +0.022 C 
BRANCH  14  16
ATOM     15  C   UNL     1      -0.421   1.794  -0.019  0.00  0.00    +0.004 C 
ATOM     16  C   UNL     1      -0.347   0.266  -0.029  0.00  0.00    -0.002 C 
ENDBRANCH  14  16
ENDBRANCH  12  14
ENDBRANCH   8  12
ENDBRANCH   1   9
BRANCH   5  17
ATOM     17  C   UNL     1      -3.959  -7.382   0.067  0.00  0.00    +0.019 C 
BRANCH  17  18
ATOM     18  C   UNL     1      -5.374  -7.899   0.072  0.00  0.00    +0.201 C 
ATOM     19  O   UNL     1      -6.265  -7.231  -0.409  0.00  0.00    -0.278 OA
ATOM     20  N   UNL     1      -5.650  -9.102   0.613  0.00  0.00    -0.287 N 
ATOM     21  H   UNL     1      -4.929  -9.672   0.923  0.00  0.00    +0.155 HD
BRANCH  20  22
ATOM     22  C   UNL     1      -6.978  -9.531   0.725  0.00  0.00    +0.038 A 
ATOM     23  C   UNL     1      -8.007  -8.600   0.784  0.00  0.00    +0.024 A 
ATOM     24  C   UNL     1      -9.316  -9.026   0.895  0.00  0.00    +0.004 A 
ATOM     25  C   UNL     1      -9.602 -10.378   0.948  0.00  0.00    +0.033 A 
ATOM     26  C   UNL     1      -8.580 -11.307   0.891  0.00  0.00    +0.131 A 
ATOM     27  C   UNL     1      -7.269 -10.888   0.773  0.00  0.00    +0.001 A 
ATOM     28  C   UNL     1      -6.156 -11.901   0.703  0.00  0.00    +0.048 C 
BRANCH  26  29
ATOM     29  N   UNL     1      -8.891 -12.753   0.949  0.00  0.00    +0.057 N 
ATOM     30  O   UNL     1      -9.896 -13.177   0.428  0.00  0.00    -0.126 OA
ATOM     31  O   UNL     1      -8.139 -13.511   1.518  0.00  0.00    -0.126 OA
ENDBRANCH  26  29
ENDBRANCH  20  22
ENDBRANCH  17  18
ENDBRANCH   5  17
TORSDOF 8
