REMARK  Name = ZINC09348904
REMARK  6 active torsions:
REMARK  status: ('A' for Active; 'I' for Inactive)
REMARK    1  A    between atoms: C_1  and  C_2
REMARK    2  A    between atoms: C_2  and  C_4
REMARK    3  A    between atoms: C_7  and  N_10
REMARK    4  A    between atoms: C_25  and  C_31
REMARK    5  A    between atoms: C_31  and  C_33
REMARK    6  A    between atoms: C_37  and  N_39
REMARK                            x       y       z     vdW  Elec       q    Type
REMARK                         _______ _______ _______ _____ _____    ______ ____
ROOT
ATOM      1  N   UNL     1      -6.081   3.342   0.430  0.00  0.00    -0.210 N 
ATOM      2  C   UNL     1      -4.896   2.658   0.572  0.00  0.00    +0.232 C 
ATOM      3  O   UNL     1      -4.743   1.490   0.857  0.00  0.00    -0.274 OA
ATOM      4  C   UNL     1      -3.870   3.651   0.305  0.00  0.00    +0.113 C 
ATOM      5  C   UNL     1      -2.502   3.885   0.049  0.00  0.00    +0.100 C 
ATOM      6  C   UNL     1      -1.266   3.132   0.033  0.00  0.00    -0.021 A 
ATOM      7  C   UNL     1      -1.217   1.752   0.031  0.00  0.00    +0.006 A 
ATOM      8  C   UNL     1      -0.008   1.085   0.028  0.00  0.00    +0.000 A 
ATOM      9  C   UNL     1       1.182   1.792   0.017  0.00  0.00    +0.001 A 
ATOM     10  C   UNL     1       1.161   3.170   0.012  0.00  0.00    +0.008 A 
ATOM     11  C   UNL     1      -0.052   3.856   0.019  0.00  0.00    -0.019 A 
ATOM     12  C   UNL     1      -0.075   5.330   0.006  0.00  0.00    +0.022 C 
ATOM     13  C   UNL     1      -1.214   6.017  -0.199  0.00  0.00    +0.054 C 
ATOM     14  C   UNL     1      -3.669   5.675  -0.978  0.00  0.00    +0.141 C 
ATOM     15  C   UNL     1      -4.573   4.461  -0.865  0.00  0.00    +0.116 C 
ATOM     16  C   UNL     1      -5.929   4.524  -0.243  0.00  0.00    +0.232 C 
ATOM     17  O   UNL     1      -6.729   5.431  -0.319  0.00  0.00    -0.274 OA
ATOM     18  N   UNL     1      -2.316   5.086  -0.691  0.00  0.00    -0.384 NA
ATOM     19  H   UNL     1      -1.970   4.774  -1.606  0.00  0.00    +0.127 HD
ENDROOT
BRANCH   1  23
ATOM     20  C   UNL     1      -9.736   1.963   1.885  0.00  0.00    +0.017 A 
ATOM     21  C   UNL     1      -9.667   3.186   1.207  0.00  0.00    +0.013 A 
ATOM     22  C   UNL     1      -8.458   3.637   0.728  0.00  0.00    +0.024 A 
ATOM     23  C   UNL     1      -7.306   2.880   0.917  0.00  0.00    +0.044 A 
ATOM     24  C   UNL     1      -7.371   1.661   1.586  0.00  0.00    +0.024 A 
ATOM     25  C   UNL     1      -8.574   1.205   2.073  0.00  0.00    +0.013 A 
BRANCH  20  27
ATOM     26  C   UNL     1     -11.120   0.107   3.017  0.00  0.00    +0.091 C 
ATOM     27  C   UNL     1     -11.024   1.478   2.398  0.00  0.00    +0.160 C 
ATOM     28  O   UNL     1     -12.011   2.180   2.324  0.00  0.00    -0.292 OA
ENDBRANCH  20  27
ENDBRANCH   1  23
BRANCH  14  29
ATOM     29  C   UNL     1      -4.265   6.835  -0.223  0.00  0.00    +0.183 C 
ATOM     30  O   UNL     1      -3.812   7.153   0.856  0.00  0.00    -0.290 OA
BRANCH  29  31
ATOM     31  C   UNL     1      -5.396   7.582  -0.795  0.00  0.00    +0.021 A 
ATOM     32  C   UNL     1      -5.918   7.222  -2.042  0.00  0.00    +0.011 A 
ATOM     33  C   UNL     1      -6.982   7.923  -2.568  0.00  0.00    +0.003 A 
ATOM     34  C   UNL     1      -7.526   8.988  -1.872  0.00  0.00    +0.033 A 
ATOM     35  C   UNL     1      -7.012   9.354  -0.640  0.00  0.00    +0.127 A 
ATOM     36  C   UNL     1      -5.952   8.659  -0.097  0.00  0.00    +0.044 A 
BRANCH  35  37
ATOM     37  N   UNL     1      -7.602  10.494   0.096  0.00  0.00    +0.056 N 
ATOM     38  O   UNL     1      -7.151  10.818   1.181  0.00  0.00    -0.126 OA
ATOM     39  O   UNL     1      -8.538  11.110  -0.382  0.00  0.00    -0.126 OA
ENDBRANCH  35  37
ENDBRANCH  29  31
ENDBRANCH  14  29
TORSDOF 5
