REMARK  Name = ZINC13108367
REMARK  9 active torsions:
REMARK  status: ('A' for Active; 'I' for Inactive)
REMARK    1  A    between atoms: C_1  and  C_2
REMARK    2  A    between atoms: C_4  and  C_33
REMARK    3  A    between atoms: C_6  and  N_13
REMARK    4  A    between atoms: C_14  and  C_16
REMARK    5  A    between atoms: C_16  and  O_17
REMARK    6  A    between atoms: O_17  and  C_18
REMARK    7  A    between atoms: C_18  and  C_20
REMARK    8  A    between atoms: C_25  and  S_26
REMARK    9  A    between atoms: S_26  and  C_27
REMARK                            x       y       z     vdW  Elec       q    Type
REMARK                         _______ _______ _______ _____ _____    ______ ____
ROOT
ATOM      1  N   UNL     1       7.172   3.984  -0.067  0.00  0.00    -0.253 N 
ATOM      2  C   UNL     1       5.958   3.398  -0.053  0.00  0.00    +0.257 C 
ATOM      3  O   UNL     1       5.868   2.189  -0.056  0.00  0.00    -0.272 OA
ATOM      4  H   UNL     1       7.245   4.951  -0.065  0.00  0.00    +0.158 HD
ENDROOT
BRANCH   1  10
ATOM      5  C   UNL     1      12.845   1.466  -0.149  0.00  0.00    +0.068 C 
ATOM      6  C   UNL     1      11.921   2.656  -0.133  0.00  0.00    +0.070 A 
ATOM      7  C   UNL     1      10.468   2.460  -0.114  0.00  0.00    +0.053 A 
ATOM      8  C   UNL     1       9.622   1.409  -0.106  0.00  0.00    +0.114 A 
ATOM      9  O   UNL     1       8.355   1.863  -0.083  0.00  0.00    -0.445 OA
ATOM     10  C   UNL     1       8.316   3.204  -0.085  0.00  0.00    +0.206 A 
ATOM     11  C   UNL     1       9.609   3.670  -0.100  0.00  0.00    +0.110 A 
ATOM     12  C   UNL     1      10.272   4.970  -0.105  0.00  0.00    +0.277 A 
ATOM     13  O   UNL     1       9.621   5.999  -0.094  0.00  0.00    -0.266 OA
ATOM     14  N   UNL     1      11.621   5.008  -0.123  0.00  0.00    -0.242 N 
ATOM     15  H   UNL     1      12.061   5.873  -0.127  0.00  0.00    +0.192 HD
ATOM     16  N   UNL     1      12.407   3.859  -0.136  0.00  0.00    -0.175 NA
ATOM     17  C   UNL     1      10.030  -0.042  -0.116  0.00  0.00    +0.087 C 
ENDBRANCH   1  10
BRANCH   2  18
ATOM     18  C   UNL     1       4.713   4.247  -0.034  0.00  0.00    +0.328 C 
BRANCH  18  19
ATOM     19  O   UNL     1       3.542   3.388  -0.021  0.00  0.00    -0.452 OA
BRANCH  19  20
ATOM     20  C   UNL     1       2.339   3.995  -0.004  0.00  0.00    +0.342 C 
ATOM     21  O   UNL     1       2.270   5.208   0.001  0.00  0.00    -0.245 OA
BRANCH  20  22
ATOM     22  C   UNL     1       1.108   3.187   0.010  0.00  0.00    +0.091 A 
ATOM     23  C   UNL     1       1.172   1.788   0.004  0.00  0.00    +0.019 A 
ATOM     24  C   UNL     1      -0.013   1.076   0.017  0.00  0.00    +0.021 A 
ATOM     25  C   UNL     1      -1.218   1.757   0.029  0.00  0.00    +0.112 A 
ATOM     26  N   UNL     1      -1.259   3.074   0.039  0.00  0.00    -0.248 NA
ATOM     27  C   UNL     1      -0.155   3.806   0.028  0.00  0.00    +0.116 A 
BRANCH  27  28
ATOM     28  S   UNL     1      -0.269   5.565   0.034  0.00  0.00    -0.069 S 
BRANCH  28  29
ATOM     29  C   UNL     1      -2.015   5.758  -0.099  0.00  0.00    +0.014 A 
ATOM     30  C   UNL     1      -2.623   5.750  -1.348  0.00  0.00    +0.015 A 
ATOM     31  C   UNL     1      -3.993   5.896  -1.449  0.00  0.00    +0.001 A 
ATOM     32  C   UNL     1      -4.758   6.063  -0.308  0.00  0.00    +0.000 A 
ATOM     33  C   UNL     1      -4.155   6.079   0.936  0.00  0.00    +0.001 A 
ATOM     34  C   UNL     1      -2.787   5.926   1.044  0.00  0.00    +0.015 A 
ENDBRANCH  28  29
ENDBRANCH  27  28
ENDBRANCH  20  22
ENDBRANCH  19  20
ENDBRANCH  18  19
ENDBRANCH   2  18
TORSDOF 7
