REMARK  Name = ZINC23126094
REMARK  5 active torsions:
REMARK  status: ('A' for Active; 'I' for Inactive)
REMARK    1  A    between atoms: C_1  and  C_2
REMARK    2  A    between atoms: N_14  and  C_17
REMARK    3  A    between atoms: C_17  and  C_18
REMARK    4  A    between atoms: N_20  and  C_21
REMARK    5  A    between atoms: C_21  and  C_22
REMARK                            x       y       z     vdW  Elec       q    Type
REMARK                         _______ _______ _______ _____ _____    ______ ____
ROOT
ATOM      1  C   UNL     1     -12.999   8.904  -2.883  0.00  0.00    +0.044 C 
ATOM      2  C   UNL     1     -11.499   9.052  -2.896  0.00  0.00    -0.050 A 
ATOM      3  C   UNL     1     -10.932  10.319  -2.895  0.00  0.00    +0.005 A 
ATOM      4  C   UNL     1      -9.564  10.475  -2.907  0.00  0.00    +0.026 A 
ATOM      5  C   UNL     1      -8.738   9.353  -2.920  0.00  0.00    +0.049 A 
ATOM      6  C   UNL     1      -9.319   8.073  -2.921  0.00  0.00    +0.026 A 
ATOM      7  C   UNL     1     -10.708   7.939  -2.908  0.00  0.00    +0.015 A 
ATOM      8  C   UNL     1      -8.208   7.112  -2.935  0.00  0.00    +0.103 A 
ATOM      9  C   UNL     1      -7.035   7.863  -2.943  0.00  0.00    +0.131 A 
ATOM     10  N   UNL     1      -7.367   9.204  -2.933  0.00  0.00    -0.349 N 
ATOM     11  H   UNL     1      -6.718  10.092  -2.935  0.00  0.00    +0.166 HD
ATOM     12  C   UNL     1      -5.800   7.175  -2.957  0.00  0.00    +0.278 A 
ATOM     13  O   UNL     1      -4.745   7.786  -2.964  0.00  0.00    -0.265 OA
ATOM     14  N   UNL     1      -5.816   5.824  -2.963  0.00  0.00    -0.289 N 
ATOM     15  C   UNL     1      -6.994   5.151  -2.961  0.00  0.00    +0.203 A 
ATOM     16  N   UNL     1      -8.141   5.769  -2.942  0.00  0.00    -0.235 NA
ENDROOT
BRANCH  14  17
ATOM     17  C   UNL     1      -4.554   5.081  -2.979  0.00  0.00    +0.222 C 
BRANCH  17  18
ATOM     18  C   UNL     1      -4.108   4.820  -1.563  0.00  0.00    +0.233 C 
ATOM     19  O   UNL     1      -4.779   5.215  -0.633  0.00  0.00    -0.274 OA
ATOM     20  N   UNL     1      -2.963   4.147  -1.330  0.00  0.00    -0.310 N 
ATOM     21  H   UNL     1      -2.355   3.788  -2.174  0.00  0.00    +0.149 HD
BRANCH  20  22
ATOM     22  C   UNL     1      -2.530   3.893   0.046  0.00  0.00    +0.139 C 
BRANCH  22  23
ATOM     23  C   UNL     1      -1.231   3.129   0.030  0.00  0.00    -0.027 A 
ATOM     24  C   UNL     1      -1.223   1.742   0.017  0.00  0.00    +0.025 A 
ATOM     25  C   UNL     1      -0.013   1.076   0.008  0.00  0.00    +0.111 A 
ATOM     26  N   UNL     1       1.125   1.743   0.001  0.00  0.00    -0.263 NA
ATOM     27  C   UNL     1       1.155   3.061   0.007  0.00  0.00    +0.111 A 
ATOM     28  C   UNL     1      -0.015   3.796   0.022  0.00  0.00    +0.025 A 
ENDBRANCH  22  23
ENDBRANCH  20  22
ENDBRANCH  17  18
ENDBRANCH  14  17
TORSDOF 4
