REMARK  Name = ZINC30819153
REMARK  7 active torsions:
REMARK  status: ('A' for Active; 'I' for Inactive)
REMARK    1  A    between atoms: C_1  and  C_2
REMARK    2  A    between atoms: C_2  and  C_3
REMARK    3  A    between atoms: C_3  and  C_4
REMARK    4  A    between atoms: C_4  and  C_5
REMARK    5  A    between atoms: C_11  and  C_12
REMARK    6  A    between atoms: C_15  and  C_17
REMARK    7  A    between atoms: C_20  and  C_23
REMARK                            x       y       z     vdW  Elec       q    Type
REMARK                         _______ _______ _______ _____ _____    ______ ____
ROOT
ATOM      1  C   UNL     1      -0.596  -2.163  -3.696  0.00  0.00    +0.100 C 
ATOM      2  N   UNL     1       0.356  -1.559  -4.349  0.00  0.00    -0.169 NA
ATOM      3  N   UNL     1       1.252  -2.266  -5.122  0.00  0.00    -0.152 N 
ATOM      4  C   UNL     1       2.368  -1.724  -5.796  0.00  0.00    +0.153 C 
ATOM      5  N   UNL     1       2.937  -0.598  -5.453  0.00  0.00    -0.283 NA
ATOM      6  C   UNL     1       2.834  -2.562  -6.934  0.00  0.00    +0.084 C 
ATOM      7  C   UNL     1       3.386  -2.001  -8.074  0.00  0.00    +0.063 C 
ATOM      8  C   UNL     1       2.676  -4.027  -6.784  0.00  0.00    +0.273 C 
ATOM      9  O   UNL     1       3.396  -4.802  -7.394  0.00  0.00    -0.268 OA
ATOM     10  N   UNL     1       1.716  -4.481  -5.954  0.00  0.00    -0.152 NA
ATOM     11  C   UNL     1       1.050  -3.626  -5.219  0.00  0.00    +0.181 C 
ATOM     12  S   UNL     1      -0.319  -3.877  -4.120  0.00  0.00    -0.038 S 
ATOM     13  H   UNL     1       2.593  -0.090  -4.701  0.00  0.00    +0.188 HD
ENDROOT
BRANCH   7  14
ATOM     14  C   UNL     1       3.587  -2.791  -9.220  0.00  0.00    +0.129 A 
ATOM     15  C   UNL     1       4.258  -2.401 -10.370  0.00  0.00    +0.050 A 
ATOM     16  C   UNL     1       4.222  -3.485 -11.246  0.00  0.00    +0.050 A 
ATOM     17  C   UNL     1       3.534  -4.496 -10.608  0.00  0.00    +0.136 A 
ATOM     18  O   UNL     1       3.166  -4.062  -9.389  0.00  0.00    -0.455 OA
BRANCH  17  19
ATOM     19  C   UNL     1       3.254  -5.832 -11.166  0.00  0.00    +0.017 A 
ATOM     20  C   UNL     1       3.705  -6.162 -12.448  0.00  0.00    +0.012 A 
ATOM     21  C   UNL     1       3.446  -7.400 -12.965  0.00  0.00    +0.016 A 
ATOM     22  C   UNL     1       2.729  -8.337 -12.212  0.00  0.00    +0.063 A 
ATOM     23  C   UNL     1       2.279  -8.006 -10.930  0.00  0.00    +0.016 A 
ATOM     24  C   UNL     1       2.543  -6.770 -10.411  0.00  0.00    +0.012 A 
BRANCH  22  25
ATOM     25  C   UNL     1       2.449  -9.672 -12.770  0.00  0.00    +0.387 C 
ATOM     26  O   UNL     1       2.843  -9.961 -13.892  0.00  0.00    -0.241 OA
ATOM     27  O   UNL     1       1.823 -10.491 -12.112  0.00  0.00    -0.241 OA
ENDBRANCH  22  25
ENDBRANCH  17  19
ENDBRANCH   7  14
BRANCH   1  28
ATOM     28  C   UNL     1      -1.655  -1.568  -2.805  0.00  0.00    +0.064 C 
BRANCH  28  29
ATOM     29  C   UNL     1      -1.483  -0.049  -2.751  0.00  0.00    +0.006 C 
BRANCH  29  31
ATOM     30  C   UNL     1      -2.386   2.074  -1.792  0.00  0.00    +0.004 C 
ATOM     31  C   UNL     1      -2.559   0.555  -1.846  0.00  0.00    -0.003 C 
ENDBRANCH  29  31
ENDBRANCH  28  29
ENDBRANCH   1  28
TORSDOF 6
