REMARK  Name = ZINC64836193
REMARK  4 active torsions:
REMARK  status: ('A' for Active; 'I' for Inactive)
REMARK    1  A    between atoms: C_1  and  N_2
REMARK    2  A    between atoms: C_9  and  C_12
REMARK    3  A    between atoms: N_14  and  C_15
REMARK    4  A    between atoms: N_23  and  C_26
REMARK                            x       y       z     vdW  Elec       q    Type
REMARK                         _______ _______ _______ _____ _____    ______ ____
ROOT
ATOM      1  C   UNL     1      -0.015   1.461   0.032  0.00  0.00    +0.150 C 
ATOM      2  N   UNL     1       0.004  -0.004   0.020  0.00  0.00    -0.331 N 
ATOM      3  C   UNL     1      -1.170  -0.698   0.133  0.00  0.00    +0.031 A 
ATOM      4  C   UNL     1      -1.151  -2.046   0.119  0.00  0.00    +0.052 A 
ATOM      5  C   UNL     1       0.085  -2.723  -0.001  0.00  0.00    +0.279 A 
ATOM      6  O   UNL     1       0.113  -3.941  -0.004  0.00  0.00    -0.265 OA
ATOM      7  N   UNL     1       1.231  -2.025  -0.112  0.00  0.00    -0.179 N 
ATOM      8  C   UNL     1       1.196  -0.666  -0.108  0.00  0.00    +0.153 A 
ATOM      9  C   UNL     1       2.510  -0.223  -0.245  0.00  0.00    +0.099 A 
ATOM     10  C   UNL     1       3.327  -1.372  -0.335  0.00  0.00    +0.150 A 
ATOM     11  N   UNL     1       2.566  -2.427  -0.246  0.00  0.00    -0.169 NA
ATOM     12  C   UNL     1      -2.409  -2.867   0.221  0.00  0.00    +0.126 C 
ATOM     13  N   UNL     1      -3.514  -2.057   0.745  0.00  0.00    -0.301 NA
ATOM     14  C   UNL     1      -3.649  -0.817  -0.037  0.00  0.00    +0.090 C 
ATOM     15  C   UNL     1      -2.451   0.081   0.274  0.00  0.00    +0.069 C 
ATOM     16  C   UNL     1      -4.770  -2.818   0.747  0.00  0.00    +0.105 C 
ENDROOT
BRANCH   9  17
ATOM     17  C   UNL     1       2.961   1.174  -0.289  0.00  0.00    +0.249 C 
ATOM     18  O   UNL     1       2.491   1.940  -1.109  0.00  0.00    -0.270 OA
ATOM     19  N   UNL     1       3.895   1.608   0.581  0.00  0.00    -0.308 N 
ATOM     20  H   UNL     1       4.270   0.998   1.235  0.00  0.00    +0.149 HD
BRANCH  19  21
ATOM     21  C   UNL     1       4.344   3.002   0.537  0.00  0.00    +0.073 C 
ATOM     22  C   UNL     1       5.412   3.148  -0.566  0.00  0.00    +0.022 C 
ATOM     23  C   UNL     1       5.498   4.598  -0.959  0.00  0.00    +0.002 C 
ATOM     24  C   UNL     1       6.599   5.353  -0.191  0.00  0.00    +0.000 C 
ATOM     25  C   UNL     1       6.653   4.976   1.302  0.00  0.00    +0.000 C 
ATOM     26  C   UNL     1       5.284   4.854   1.914  0.00  0.00    +0.002 C 
ATOM     27  C   UNL     1       4.848   3.375   1.851  0.00  0.00    +0.022 C 
ENDBRANCH  19  21
ENDBRANCH   9  17
TORSDOF 2
