REMARK  Name = ZINC18322114
REMARK  7 active torsions:
REMARK  status: ('A' for Active; 'I' for Inactive)
REMARK    1  A    between atoms: C_3  and  O_24
REMARK    2  A    between atoms: C_6  and  N_7
REMARK    3  A    between atoms: C_8  and  C_10
REMARK    4  A    between atoms: C_10  and  O_11
REMARK    5  A    between atoms: O_11  and  C_12
REMARK    6  A    between atoms: C_12  and  C_14
REMARK    7  A    between atoms: C_19  and  N_20
REMARK                            x       y       z     vdW  Elec       q    Type
REMARK                         _______ _______ _______ _____ _____    ______ ____
ROOT
ATOM      1  C   UNL     1       2.538  -4.563   0.999  0.00  0.00    +0.328 C 
ENDROOT
BRANCH   1   3
ATOM      2  N   UNL     1       1.434  -2.621   2.062  0.00  0.00    -0.283 N 
ATOM      3  C   UNL     1       2.576  -3.201   1.643  0.00  0.00    +0.255 C 
ATOM      4  O   UNL     1       3.635  -2.627   1.786  0.00  0.00    -0.272 OA
ATOM      5  H   UNL     1       0.598  -3.111   2.022  0.00  0.00    +0.155 HD
BRANCH   2  11
ATOM      6  C   UNL     1       2.299  -0.366   1.985  0.00  0.00    +0.027 A 
ATOM      7  C   UNL     1       2.317   0.926   2.471  0.00  0.00    +0.047 A 
ATOM      8  C   UNL     1       1.493   1.282   3.528  0.00  0.00    +0.117 A 
ATOM      9  C   UNL     1       0.649   0.340   4.098  0.00  0.00    +0.047 A 
ATOM     10  C   UNL     1       0.629  -0.953   3.613  0.00  0.00    +0.027 A 
ATOM     11  C   UNL     1       1.454  -1.310   2.555  0.00  0.00    +0.034 A 
BRANCH   8  12
ATOM     12  O   UNL     1       1.512   2.554   4.006  0.00  0.00    -0.507 OA
ATOM     13  H   UNL     1       0.882   3.147   3.574  0.00  0.00    +0.292 HD
ENDBRANCH   8  12
ENDBRANCH   2  11
ENDBRANCH   1   3
BRANCH   1  14
ATOM     14  O   UNL     1       3.885  -4.967   0.639  0.00  0.00    -0.452 OA
BRANCH  14  15
ATOM     15  C   UNL     1       4.026  -6.169   0.048  0.00  0.00    +0.342 C 
ATOM     16  O   UNL     1       3.050  -6.861  -0.161  0.00  0.00    -0.245 OA
BRANCH  15  17
ATOM     17  C   UNL     1       5.367  -6.646  -0.345  0.00  0.00    +0.089 A 
ATOM     18  C   UNL     1       6.473  -5.799  -0.234  0.00  0.00    +0.019 A 
ATOM     19  C   UNL     1       7.723  -6.250  -0.602  0.00  0.00    +0.021 A 
ATOM     20  C   UNL     1       7.883  -7.540  -1.082  0.00  0.00    +0.043 A 
ATOM     21  C   UNL     1       6.791  -8.383  -1.195  0.00  0.00    +0.053 A 
ATOM     22  C   UNL     1       5.537  -7.946  -0.825  0.00  0.00    +0.141 A 
ATOM     23 CL   UNL     1       9.460  -8.100  -1.544  0.00  0.00    -0.083 Cl
BRANCH  22  24
ATOM     24  N   UNL     1       4.371  -8.851  -0.941  0.00  0.00    +0.057 N 
ATOM     25  O   UNL     1       3.642  -9.030   0.018  0.00  0.00    -0.126 OA
ATOM     26  O   UNL     1       4.142  -9.417  -1.995  0.00  0.00    -0.126 OA
ENDBRANCH  22  24
ENDBRANCH  15  17
ENDBRANCH  14  15
ENDBRANCH   1  14
TORSDOF 7
