REMARK  Name = ZINC21558909
REMARK  10 active torsions:
REMARK  status: ('A' for Active; 'I' for Inactive)
REMARK    1  A    between atoms: C_1  and  C_2
REMARK    2  A    between atoms: C_2  and  C_3
REMARK    3  A    between atoms: C_6  and  O_9
REMARK    4  A    between atoms: O_9  and  C_10
REMARK    5  A    between atoms: C_10  and  C_11
REMARK    6  A    between atoms: C_11  and  C_13
REMARK    7  A    between atoms: C_11  and  O_33
REMARK    8  A    between atoms: C_13  and  N_14
REMARK    9  A    between atoms: C_17  and  C_21
REMARK   10  A    between atoms: C_17  and  C_22
REMARK                            x       y       z     vdW  Elec       q    Type
REMARK                         _______ _______ _______ _____ _____    ______ ____
ROOT
ATOM      1  N   UNL     1      -3.866   6.098   0.299  0.00  0.00    -0.221 N 
ATOM      2  C   UNL     1      -4.632   6.478  -0.742  0.00  0.00    +0.251 C 
ATOM      3  O   UNL     1      -4.339   6.445  -1.918  0.00  0.00    -0.272 OA
ATOM      4  C   UNL     1      -5.939   6.953  -0.137  0.00  0.00    +0.135 C 
ATOM      5  N   UNL     1      -5.734   6.776   1.311  0.00  0.00    -0.281 N 
ATOM      6  C   UNL     1      -4.497   6.272   1.466  0.00  0.00    +0.310 C 
ATOM      7  O   UNL     1      -4.006   6.005   2.546  0.00  0.00    -0.252 OA
ATOM      8  C   UNL     1      -6.180   8.426  -0.470  0.00  0.00    +0.047 C 
ATOM      9  H   UNL     1      -6.534   7.048   2.016  0.00  0.00    +0.152 HD
ENDROOT
BRANCH   4  10
ATOM     10  C   UNL     1      -7.089   6.106  -0.618  0.00  0.00    -0.012 A 
ATOM     11  C   UNL     1      -7.079   5.595  -1.902  0.00  0.00    +0.010 A 
ATOM     12  C   UNL     1      -8.131   4.817  -2.350  0.00  0.00    +0.050 A 
ATOM     13  C   UNL     1      -9.196   4.551  -1.507  0.00  0.00    +0.162 A 
ATOM     14  C   UNL     1      -9.207   5.065  -0.218  0.00  0.00    +0.162 A 
ATOM     15  C   UNL     1      -8.150   5.839   0.229  0.00  0.00    +0.055 A 
ATOM     16  O   UNL     1     -10.262   4.798   0.606  0.00  0.00    -0.488 OA
ATOM     17  C   UNL     1     -11.506   5.399   0.242  0.00  0.00    +0.232 C 
ATOM     18  C   UNL     1     -12.237   4.549  -0.785  0.00  0.00    +0.082 C 
ATOM     19  C   UNL     1     -11.486   4.463  -2.105  0.00  0.00    +0.232 C 
ATOM     20  O   UNL     1     -10.240   3.784  -1.936  0.00  0.00    -0.488 OA
ENDBRANCH   4  10
BRANCH   1  21
ATOM     21  C   UNL     1      -2.507   5.565   0.170  0.00  0.00    +0.152 C 
BRANCH  21  22
ATOM     22  C   UNL     1      -2.566   4.042   0.036  0.00  0.00    +0.170 C 
BRANCH  22  23
ATOM     23  O   UNL     1      -3.225   3.697  -1.184  0.00  0.00    -0.387 OA
ATOM     24  H   UNL     1      -4.262   4.019  -1.359  0.00  0.00    +0.210 HD
ENDBRANCH  22  23
BRANCH  22  25
ATOM     25  C   UNL     1      -1.145   3.475   0.026  0.00  0.00    +0.261 C 
BRANCH  25  26
ATOM     26  O   UNL     1      -1.202   2.048   0.019  0.00  0.00    -0.489 OA
BRANCH  26  30
ATOM     27  C   UNL     1       2.396   0.030  -0.021  0.00  0.00    -0.047 A 
ATOM     28  C   UNL     1       1.208  -0.677  -0.013  0.00  0.00    +0.007 A 
ATOM     29  C   UNL     1       0.002  -0.004   0.002  0.00  0.00    +0.046 A 
ATOM     30  C   UNL     1      -0.017   1.383   0.010  0.00  0.00    +0.121 A 
ATOM     31  C   UNL     1       1.177   2.091   0.002  0.00  0.00    +0.046 A 
ATOM     32  C   UNL     1       2.380   1.413  -0.013  0.00  0.00    +0.007 A 
BRANCH  27  34
ATOM     33  C   UNL     1       4.142  -0.949  -1.484  0.00  0.00    +0.009 C 
ATOM     34  C   UNL     1       3.711  -0.707  -0.037  0.00  0.00    +0.032 C 
ENDBRANCH  27  34
ENDBRANCH  26  30
ENDBRANCH  25  26
ENDBRANCH  22  25
ENDBRANCH  21  22
ENDBRANCH   1  21
TORSDOF 8
