REMARK  Name = ZINC66834019
REMARK  8 active torsions:
REMARK  status: ('A' for Active; 'I' for Inactive)
REMARK    1  A    between atoms: C_1  and  C_2
REMARK    2  A    between atoms: C_2  and  C_4
REMARK    3  A    between atoms: C_2  and  N_15
REMARK    4  A    between atoms: N_6  and  C_7
REMARK    5  A    between atoms: C_7  and  C_13
REMARK    6  A    between atoms: C_19  and  C_22
REMARK    7  A    between atoms: C_22  and  O_24
REMARK    8  A    between atoms: O_24  and  C_25
REMARK                            x       y       z     vdW  Elec       q    Type
REMARK                         _______ _______ _______ _____ _____    ______ ____
ROOT
ATOM      1  C   UNL     1       0.636   1.330  -0.398  0.00  0.00    -0.004 C 
ATOM      2  C   UNL     1       0.002  -0.004   0.002  0.00  0.00    +0.016 C 
ENDROOT
BRANCH   2   3
ATOM      3  N   UNL     1       0.016  -0.917  -1.149  0.00  0.00    +0.388 N 
ATOM      4  C   UNL     1      -0.714  -0.306  -2.265  0.00  0.00    -0.078 C 
ATOM      5  C   UNL     1      -0.634  -1.217  -3.492  0.00  0.00    -0.018 C 
ATOM      6  C   UNL     1      -1.258  -2.574  -3.154  0.00  0.00    +0.011 C 
ATOM      7  C   UNL     1      -0.537  -3.169  -1.941  0.00  0.00    +0.081 C 
ATOM      8  C   UNL     1      -0.621  -2.185  -0.772  0.00  0.00    -0.063 C 
ATOM      9  H   UNL     1       0.970  -1.091  -1.428  0.00  0.00    -0.081 HD
BRANCH   7  10
ATOM     10  C   UNL     1      -1.193  -4.470  -1.554  0.00  0.00    +0.308 C 
ATOM     11  O   UNL     1      -1.675  -4.599  -0.454  0.00  0.00    -0.251 OA
BRANCH  10  12
ATOM     12  O   UNL     1      -1.241  -5.484  -2.431  0.00  0.00    -0.468 OA
ATOM     13  C   UNL     1      -1.878  -6.688  -1.997  0.00  0.00    +0.280 C 
ENDBRANCH  10  12
ENDBRANCH   7  10
ENDBRANCH   2   3
BRANCH   2  14
ATOM     14  C   UNL     1       0.786  -0.613   1.136  0.00  0.00    +0.200 C 
ATOM     15  O   UNL     1       1.683  -1.394   0.902  0.00  0.00    -0.278 OA
ATOM     16  N   UNL     1       0.489  -0.289   2.410  0.00  0.00    -0.299 N 
ATOM     17  H   UNL     1      -0.229   0.336   2.598  0.00  0.00    +0.150 HD
BRANCH  16  18
ATOM     18  C   UNL     1       1.251  -0.881   3.513  0.00  0.00    +0.121 C 
ATOM     19  C   UNL     1       1.105  -2.404   3.474  0.00  0.00    +0.041 C 
ATOM     20  C   UNL     1       1.900  -3.022   4.626  0.00  0.00    +0.003 C 
ATOM     21  C   UNL     1       1.366  -2.491   5.958  0.00  0.00    +0.000 C 
ATOM     22  C   UNL     1       1.513  -0.969   5.996  0.00  0.00    +0.003 C 
ATOM     23  C   UNL     1       0.717  -0.350   4.845  0.00  0.00    +0.041 C 
BRANCH  18  24
ATOM     24  C   UNL     1       2.672  -0.521   3.376  0.00  0.00    +0.088 C 
ATOM     25  N   UNL     1       3.769  -0.244   3.270  0.00  0.00    -0.194 NA
ENDBRANCH  18  24
ENDBRANCH  16  18
ENDBRANCH   2  14
TORSDOF 6
