REMARK  Name = ZINC39935146
REMARK  3 active torsions:
REMARK  status: ('A' for Active; 'I' for Inactive)
REMARK    1  A    between atoms: C_1  and  C_2
REMARK    2  A    between atoms: N_16  and  N_17
REMARK    3  A    between atoms: C_18  and  C_19
REMARK                            x       y       z     vdW  Elec       q    Type
REMARK                         _______ _______ _______ _____ _____    ______ ____
ROOT
ATOM      1  C   UNL     1      -0.018   1.503   0.010  0.00  0.00    +0.044 C 
ATOM      2  C   UNL     1       0.002  -0.004   0.002  0.00  0.00    -0.050 A 
ATOM      3  C   UNL     1       0.005  -0.672  -1.230  0.00  0.00    +0.005 A 
ATOM      4  C   UNL     1       0.029  -2.022  -1.308  0.00  0.00    +0.026 A 
ATOM      5  C   UNL     1       0.052  -2.812  -0.071  0.00  0.00    +0.046 A 
ATOM      6  N   UNL     1       0.045  -4.107   0.140  0.00  0.00    -0.359 N 
ATOM      7  C   UNL     1       0.203  -4.351   1.563  0.00  0.00    +0.229 C 
ATOM      8  C   UNL     1       0.043  -2.999   2.235  0.00  0.00    +0.115 C 
ATOM      9  C   UNL     1       0.037  -2.075   1.218  0.00  0.00    +0.025 A 
ATOM     10  C   UNL     1       0.022  -0.662   1.184  0.00  0.00    +0.015 A 
ATOM     11  N   UNL     1      -0.184  -2.888   3.546  0.00  0.00    -0.146 NA
ATOM     12  N   UNL     1      -0.780  -3.902   4.098  0.00  0.00    -0.113 NA
ATOM     13  C   UNL     1      -1.202  -4.968   3.377  0.00  0.00    +0.230 C 
ATOM     14  N   UNL     1      -0.805  -5.230   2.152  0.00  0.00    -0.330 N 
ATOM     15  N   UNL     1      -2.101  -5.835   3.965  0.00  0.00    -0.206 N 
ATOM     16  H   UNL     1      -2.422  -6.608   3.474  0.00  0.00    +0.177 HD
ATOM     17  H   UNL     1      -0.051  -4.789  -0.543  0.00  0.00    +0.162 HD
ATOM     18  H   UNL     1      -1.170  -5.979   1.654  0.00  0.00    +0.165 HD
ENDROOT
BRANCH  15  19
ATOM     19  N   UNL     1      -2.549  -5.599   5.271  0.00  0.00    -0.188 NA
ATOM     20  C   UNL     1      -3.395  -6.414   5.825  0.00  0.00    +0.139 C 
BRANCH  20  21
ATOM     21  C   UNL     1      -3.866  -6.166   7.199  0.00  0.00    +0.012 A 
ATOM     22  C   UNL     1      -4.772  -7.045   7.799  0.00  0.00    +0.060 A 
ATOM     23  C   UNL     1      -5.211  -6.809   9.088  0.00  0.00    +0.167 A 
ATOM     24  C   UNL     1      -4.751  -5.693   9.788  0.00  0.00    +0.167 A 
ATOM     25  C   UNL     1      -3.852  -4.821   9.193  0.00  0.00    +0.065 A 
ATOM     26  C   UNL     1      -3.405  -5.053   7.908  0.00  0.00    +0.030 A 
ATOM     27 BR   UNL     1      -2.175  -3.863   7.105  0.00  0.00    -0.050 Br
ATOM     28  O   UNL     1      -5.329  -5.687  11.024  0.00  0.00    -0.453 OA
ATOM     29  C   UNL     1      -6.457  -6.577  10.926  0.00  0.00    +0.466 C 
ATOM     30  O   UNL     1      -6.077  -7.498   9.887  0.00  0.00    -0.453 OA
ENDBRANCH  20  21
ENDBRANCH  15  19
TORSDOF 2
