REMARK  Name = ZINC23123486
REMARK  6 active torsions:
REMARK  status: ('A' for Active; 'I' for Inactive)
REMARK    1  A    between atoms: C_1  and  C_2
REMARK    2  A    between atoms: C_8  and  C_10
REMARK    3  A    between atoms: C_10  and  C_12
REMARK    4  A    between atoms: C_10  and  S_13
REMARK    5  A    between atoms: S_13  and  C_14
REMARK    6  A    between atoms: C_17  and  N_20
REMARK                            x       y       z     vdW  Elec       q    Type
REMARK                         _______ _______ _______ _____ _____    ______ ____
ROOT
ATOM      1  C   UNL     1       0.497  -4.362  -0.021  0.00  0.00    +0.134 C 
ATOM      2  C   UNL     1       0.708  -4.819   1.424  0.00  0.00    +0.029 C 
ENDROOT
BRANCH   1  10
ATOM      3  C   UNL     1       1.242   3.473  -0.170  0.00  0.00    +0.075 C 
ATOM      4  C   UNL     1       1.034   1.980  -0.141  0.00  0.00    +0.101 A 
ATOM      5  N   UNL     1      -0.083   1.282  -0.124  0.00  0.00    -0.145 NA
ATOM      6  N   UNL     1      -0.053   0.020  -0.100  0.00  0.00    -0.126 NA
ATOM      7  C   UNL     1       1.086  -0.651  -0.092  0.00  0.00    +0.188 A 
ATOM      8  S   UNL     1       2.235   0.654  -0.121  0.00  0.00    -0.036 S 
ATOM      9  N   UNL     1       1.306  -2.024  -0.067  0.00  0.00    -0.262 N 
ATOM     10  C   UNL     1       0.260  -2.874  -0.047  0.00  0.00    +0.232 C 
ATOM     11  O   UNL     1      -0.873  -2.441  -0.051  0.00  0.00    -0.274 OA
ATOM     12  H   UNL     1       2.333  -2.417  -0.065  0.00  0.00    +0.157 HD
ENDBRANCH   1  10
BRANCH   1  13
ATOM     13  S   UNL     1      -0.941  -5.216  -0.722  0.00  0.00    -0.113 S 
BRANCH  13  14
ATOM     14  C   UNL     1      -0.898  -4.791  -2.431  0.00  0.00    +0.009 A 
ATOM     15  C   UNL     1       0.172  -4.066  -2.942  0.00  0.00    +0.017 A 
ATOM     16  C   UNL     1       0.205  -3.740  -4.283  0.00  0.00    +0.034 A 
ATOM     17  C   UNL     1      -0.831  -4.123  -5.115  0.00  0.00    +0.126 A 
ATOM     18  C   UNL     1      -1.900  -4.840  -4.609  0.00  0.00    +0.034 A 
ATOM     19  C   UNL     1      -1.937  -5.175  -3.270  0.00  0.00    +0.017 A 
BRANCH  17  20
ATOM     20  N   UNL     1      -0.795  -3.767  -6.551  0.00  0.00    +0.056 N 
ATOM     21  O   UNL     1      -1.706  -4.104  -7.286  0.00  0.00    -0.126 OA
ATOM     22  O   UNL     1       0.146  -3.136  -6.999  0.00  0.00    -0.126 OA
ENDBRANCH  17  20
ENDBRANCH  13  14
ENDBRANCH   1  13
TORSDOF 4
