REMARK  Name = ZINC38611561
REMARK  8 active torsions:
REMARK  status: ('A' for Active; 'I' for Inactive)
REMARK    1  A    between atoms: C_1  and  C_2
REMARK    2  A    between atoms: C_2  and  O_3
REMARK    3  A    between atoms: O_3  and  C_4
REMARK    4  A    between atoms: C_4  and  C_6
REMARK    5  A    between atoms: C_8  and  N_18
REMARK    6  A    between atoms: C_11  and  O_16
REMARK    7  A    between atoms: O_16  and  C_17
REMARK    8  A    between atoms: N_21  and  C_22
REMARK                            x       y       z     vdW  Elec       q    Type
REMARK                         _______ _______ _______ _____ _____    ______ ____
ROOT
ATOM      1  C   UNL     1      -2.126  -2.429  -0.450  0.00  0.00    +0.234 C 
ATOM      2  C   UNL     1      -3.106  -2.308  -1.595  0.00  0.00    +0.054 C 
ATOM      3  C   UNL     1      -3.450  -3.605  -1.934  0.00  0.00    +0.021 A 
ATOM      4  C   UNL     1      -4.320  -4.137  -2.918  0.00  0.00    +0.057 A 
ATOM      5  C   UNL     1      -4.469  -5.483  -3.027  0.00  0.00    +0.121 A 
ATOM      6  C   UNL     1      -3.781  -6.367  -2.186  0.00  0.00    +0.047 A 
ATOM      7  C   UNL     1      -2.934  -5.927  -1.225  0.00  0.00    +0.029 A 
ATOM      8  C   UNL     1      -2.726  -4.534  -1.050  0.00  0.00    +0.045 A 
ATOM      9  N   UNL     1      -1.969  -3.865  -0.200  0.00  0.00    -0.367 N 
ATOM     10  H   UNL     1      -1.400  -4.259   0.480  0.00  0.00    +0.161 HD
ENDROOT
BRANCH   2  11
ATOM     11  N   UNL     1      -3.559  -1.160  -2.174  0.00  0.00    -0.270 N 
ATOM     12  C   UNL     1      -3.204   0.036  -1.663  0.00  0.00    +0.308 C 
ATOM     13  O   UNL     1      -2.412   0.094  -0.744  0.00  0.00    -0.252 OA
ATOM     14  N   UNL     1      -3.729   1.168  -2.172  0.00  0.00    -0.269 N 
ATOM     15  H   UNL     1      -4.135  -1.204  -2.952  0.00  0.00    +0.156 HD
ATOM     16  H   UNL     1      -4.329   1.125  -2.934  0.00  0.00    +0.156 HD
BRANCH  14  17
ATOM     17  C   UNL     1      -3.410   2.406  -1.603  0.00  0.00    +0.036 A 
ATOM     18  C   UNL     1      -3.283   3.530  -2.408  0.00  0.00    +0.025 A 
ATOM     19  C   UNL     1      -2.968   4.751  -1.844  0.00  0.00    +0.023 A 
ATOM     20  C   UNL     1      -2.778   4.855  -0.477  0.00  0.00    +0.059 A 
ATOM     21  C   UNL     1      -2.903   3.736   0.328  0.00  0.00    +0.061 A 
ATOM     22  C   UNL     1      -3.224   2.513  -0.231  0.00  0.00    +0.044 A 
ATOM     23 CL   UNL     1      -2.663   3.869   2.042  0.00  0.00    -0.082 Cl
ATOM     24 CL   UNL     1      -2.382   6.391   0.228  0.00  0.00    -0.082 Cl
ENDBRANCH  14  17
ENDBRANCH   2  11
BRANCH   1  25
ATOM     25  C   UNL     1      -0.801  -1.822  -0.835  0.00  0.00    +0.336 C 
ATOM     26  O   UNL     1      -0.065  -2.408  -1.593  0.00  0.00    -0.248 OA
BRANCH  25  27
ATOM     27  O   UNL     1      -0.439  -0.629  -0.337  0.00  0.00    -0.463 OA
BRANCH  27  29
ATOM     28  C   UNL     1       1.067   1.243  -0.079  0.00  0.00    +0.048 C 
ATOM     29  C   UNL     1       0.830  -0.114  -0.744  0.00  0.00    +0.229 C 
ENDBRANCH  27  29
ENDBRANCH  25  27
ENDBRANCH   1  25
BRANCH   5  30
ATOM     30  O   UNL     1      -5.307  -5.984  -3.975  0.00  0.00    -0.495 OA
ATOM     31  C   UNL     1      -5.428  -7.406  -4.048  0.00  0.00    +0.277 C 
ENDBRANCH   5  30
TORSDOF 6
