REMARK  Name = ZINC08379410
REMARK  6 active torsions:
REMARK  status: ('A' for Active; 'I' for Inactive)
REMARK    1  A    between atoms: C_3  and  C_6
REMARK    2  A    between atoms: C_15  and  O_32
REMARK    3  A    between atoms: C_17  and  O_31
REMARK    4  A    between atoms: C_19  and  O_22
REMARK    5  A    between atoms: O_22  and  C_23
REMARK    6  A    between atoms: C_26  and  C_29
REMARK                            x       y       z     vdW  Elec       q    Type
REMARK                         _______ _______ _______ _____ _____    ______ ____
ROOT
ATOM      1  C   UNL     1      -9.735   0.852  -2.548  0.00  0.00    +0.319 C 
ATOM      2  O   UNL     1      -8.560   0.045  -2.636  0.00  0.00    -0.342 OA
ATOM      3  C   UNL     1      -7.331   0.781  -2.570  0.00  0.00    +0.197 C 
ATOM      4  C   UNL     1      -7.317   1.576  -1.264  0.00  0.00    +0.179 C 
ATOM      5  C   UNL     1      -8.574   2.454  -1.216  0.00  0.00    +0.184 C 
ATOM      6  O   UNL     1      -9.721   1.612  -1.335  0.00  0.00    -0.336 OA
ATOM      7  C   UNL     1      -8.585   3.219   0.108  0.00  0.00    +0.180 C 
ATOM      8  C   UNL     1      -7.302   4.055   0.196  0.00  0.00    +0.214 C 
ATOM      9  C   UNL     1      -6.082   3.144   0.046  0.00  0.00    +0.339 C 
ATOM     10  O   UNL     1      -6.165   2.412  -1.181  0.00  0.00    -0.331 OA
ENDROOT
BRANCH   1  13
ATOM     11  C   UNL     1     -12.496  -1.512  -3.158  0.00  0.00    +0.041 A 
ATOM     12  C   UNL     1     -11.290  -0.888  -3.551  0.00  0.00    +0.050 A 
ATOM     13  C   UNL     1     -10.953  -0.036  -2.567  0.00  0.00    +0.161 A 
ATOM     14  O   UNL     1     -11.882  -0.115  -1.600  0.00  0.00    -0.463 OA
ATOM     15  C   UNL     1     -12.823  -1.005  -1.956  0.00  0.00    +0.195 A 
ENDBRANCH   1  13
BRANCH   8  16
ATOM     16  O   UNL     1      -7.298   5.031  -0.848  0.00  0.00    -0.383 OA
ATOM     17  H   UNL     1      -6.516   5.599  -0.852  0.00  0.00    +0.210 HD
ENDBRANCH   8  16
BRANCH   7  18
ATOM     18  O   UNL     1      -9.724   4.080   0.155  0.00  0.00    -0.386 OA
ATOM     19  H   UNL     1      -9.793   4.597   0.969  0.00  0.00    +0.210 HD
ENDBRANCH   7  18
BRANCH   9  20
ATOM     20  O   UNL     1      -4.895   3.939   0.045  0.00  0.00    -0.461 OA
BRANCH  20  21
ATOM     21  C   UNL     1      -3.711   3.276   0.036  0.00  0.00    +0.124 A 
ATOM     22  C   UNL     1      -2.517   3.990   0.035  0.00  0.00    +0.046 A 
ATOM     23  C   UNL     1      -1.318   3.326   0.026  0.00  0.00    +0.014 A 
ATOM     24  C   UNL     1      -1.296   1.926   0.019  0.00  0.00    +0.014 A 
ATOM     25  C   UNL     1      -2.501   1.212   0.015  0.00  0.00    +0.014 A 
ATOM     26  C   UNL     1      -3.695   1.886   0.029  0.00  0.00    +0.046 A 
BRANCH  24  27
ATOM     27  C   UNL     1      -0.014   1.209   0.009  0.00  0.00    +0.258 C 
ATOM     28  O   UNL     1       0.002  -0.004   0.002  0.00  0.00    -0.296 OA
ENDBRANCH  24  27
ENDBRANCH  20  21
ENDBRANCH   9  20
TORSDOF 6
