REMARK  Name = ZINC39945784
REMARK  5 active torsions:
REMARK  status: ('A' for Active; 'I' for Inactive)
REMARK    1  A    between atoms: C_1  and  C_2
REMARK    2  A    between atoms: C_10  and  C_14
REMARK    3  A    between atoms: C_14  and  S_15
REMARK    4  A    between atoms: S_15  and  C_16
REMARK    5  A    between atoms: N_25  and  C_26
REMARK                            x       y       z     vdW  Elec       q    Type
REMARK                         _______ _______ _______ _____ _____    ______ ____
ROOT
ATOM      1  S   UNL     1      -4.644  -3.611   6.878  0.00  0.00    -0.080 S 
ENDROOT
BRANCH   1   2
ATOM      2  C   UNL     1      -4.938  -4.549   8.341  0.00  0.00    +0.173 A 
ATOM      3  N   UNL     1      -3.934  -4.827   9.148  0.00  0.00    -0.216 NA
ATOM      4  C   UNL     1      -4.125  -5.531  10.256  0.00  0.00    +0.116 A 
ATOM      5  C   UNL     1      -5.395  -6.015  10.624  0.00  0.00    +0.072 A 
ATOM      6  C   UNL     1      -5.428  -6.767  11.867  0.00  0.00    +0.023 A 
ATOM      7  C   UNL     1      -4.291  -6.945  12.555  0.00  0.00    +0.048 A 
ATOM      8  S   UNL     1      -3.072  -6.099  11.566  0.00  0.00    -0.077 S 
ATOM      9  C   UNL     1      -6.465  -5.699   9.729  0.00  0.00    +0.263 A 
ATOM     10  O   UNL     1      -7.600  -6.075   9.965  0.00  0.00    -0.267 OA
ATOM     11  N   UNL     1      -6.203  -4.975   8.625  0.00  0.00    -0.284 N 
BRANCH  11  12
ATOM     12  C   UNL     1      -7.296  -4.643   7.707  0.00  0.00    +0.093 C 
ATOM     13  C   UNL     1      -8.353  -3.822   8.449  0.00  0.00    +0.025 C 
ATOM     14  C   UNL     1      -9.495  -3.475   7.491  0.00  0.00    +0.002 C 
ATOM     15  C   UNL     1     -10.127  -4.764   6.964  0.00  0.00    +0.000 C 
ATOM     16  C   UNL     1      -9.070  -5.585   6.222  0.00  0.00    +0.002 C 
ATOM     17  C   UNL     1      -7.929  -5.932   7.180  0.00  0.00    +0.025 C 
ENDBRANCH  11  12
ENDBRANCH   1   2
BRANCH   1  18
ATOM     18  C   UNL     1      -2.862  -3.278   6.921  0.00  0.00    +0.150 C 
BRANCH  18  27
ATOM     19  C   UNL     1      -0.019   1.526   0.010  0.00  0.00    +0.007 C 
ATOM     20  C   UNL     1       0.002  -0.004   0.002  0.00  0.00    -0.012 C 
ATOM     21  C   UNL     1      -1.433  -0.525  -0.005  0.00  0.00    +0.008 C 
ATOM     22  C   UNL     1      -2.203   0.012   1.209  0.00  0.00    +0.033 C 
ATOM     23  C   UNL     1      -1.371  -0.334   2.442  0.00  0.00    -0.042 C 
ATOM     24  C   UNL     1      -1.821  -1.009   3.500  0.00  0.00    +0.071 C 
ATOM     25  C   UNL     1      -0.840  -1.433   4.534  0.00  0.00    +0.111 C 
ATOM     26  N   UNL     1      -1.188  -2.138   5.585  0.00  0.00    -0.227 NA
ATOM     27  C   UNL     1      -2.472  -2.471   5.710  0.00  0.00    +0.134 C 
ATOM     28  N   UNL     1      -3.422  -2.156   4.868  0.00  0.00    -0.160 NA
ATOM     29  C   UNL     1      -3.237  -1.445   3.740  0.00  0.00    +0.271 C 
ATOM     30  O   UNL     1      -4.147  -1.177   2.974  0.00  0.00    -0.268 OA
ATOM     31  S   UNL     1       0.704  -0.777   3.985  0.00  0.00    -0.097 S 
ATOM     32  C   UNL     1       0.100   0.086   2.483  0.00  0.00    +0.080 C 
ATOM     33  C   UNL     1       0.760  -0.504   1.236  0.00  0.00    +0.022 C 
ENDBRANCH  18  27
ENDBRANCH   1  18
TORSDOF 4
