REMARK  Name = ZINC46079190
REMARK  10 active torsions:
REMARK  status: ('A' for Active; 'I' for Inactive)
REMARK    1  A    between atoms: C_1  and  C_2
REMARK    2  A    between atoms: C_2  and  C_3
REMARK    3  A    between atoms: C_3  and  C_5
REMARK    4  A    between atoms: C_3  and  N_16
REMARK    5  A    between atoms: N_7  and  C_8
REMARK    6  A    between atoms: C_12  and  C_15
REMARK    7  A    between atoms: C_13  and  C_14
REMARK    8  A    between atoms: C_19  and  N_29
REMARK    9  A    between atoms: C_21  and  C_23
REMARK   10  A    between atoms: C_30  and  C_32
REMARK                            x       y       z     vdW  Elec       q    Type
REMARK                         _______ _______ _______ _____ _____    ______ ____
ROOT
ATOM      1  N   UNL     1       0.005  -0.095   2.775  0.00  0.00    -0.215 N 
ATOM      2  C   UNL     1       0.532   0.688   3.737  0.00  0.00    +0.289 A 
ATOM      3  O   UNL     1       1.587   1.270   3.546  0.00  0.00    -0.264 OA
ATOM      4  C   UNL     1      -0.148   0.830   4.973  0.00  0.00    +0.102 A 
ATOM      5  C   UNL     1      -1.327   0.169   5.163  0.00  0.00    +0.059 A 
ATOM      6  C   UNL     1      -1.847  -0.641   4.133  0.00  0.00    +0.093 A 
ATOM      7  N   UNL     1      -1.208  -0.759   2.991  0.00  0.00    -0.167 NA
ENDROOT
BRANCH   6   8
ATOM      8  C   UNL     1      -3.128  -1.361   4.338  0.00  0.00    +0.002 A 
ATOM      9  C   UNL     1      -3.817  -1.232   5.542  0.00  0.00    +0.010 A 
ATOM     10  C   UNL     1      -5.009  -1.904   5.728  0.00  0.00    +0.001 A 
ATOM     11  C   UNL     1      -5.519  -2.704   4.721  0.00  0.00    +0.000 A 
ATOM     12  C   UNL     1      -4.838  -2.835   3.523  0.00  0.00    +0.001 A 
ATOM     13  C   UNL     1      -3.649  -2.163   3.325  0.00  0.00    +0.010 A 
ENDBRANCH   6   8
BRANCH   4  14
ATOM     14  N   UNL     1       0.382   1.637   5.983  0.00  0.00    -0.281 N 
ATOM     15  C   UNL     1       1.615   1.387   6.468  0.00  0.00    +0.214 C 
ATOM     16  O   UNL     1       2.228   0.411   6.090  0.00  0.00    -0.276 OA
ATOM     17  C   UNL     1       2.231   2.320   7.478  0.00  0.00    +0.109 C 
ATOM     18  H   UNL     1      -0.137   2.376   6.336  0.00  0.00    +0.155 HD
ENDBRANCH   4  14
BRANCH   1  19
ATOM     19  C   UNL     1       0.701  -0.247   1.495  0.00  0.00    +0.196 C 
BRANCH  19  20
ATOM     20  C   UNL     1       1.035  -1.700   1.274  0.00  0.00    +0.242 C 
ATOM     21  O   UNL     1       0.722  -2.527   2.103  0.00  0.00    -0.273 OA
ATOM     22  N   UNL     1       1.681  -2.079   0.154  0.00  0.00    -0.284 N 
ATOM     23  H   UNL     1       1.866  -1.431  -0.543  0.00  0.00    +0.155 HD
BRANCH  22  24
ATOM     24  C   UNL     1       2.086  -3.410  -0.003  0.00  0.00    +0.037 A 
ATOM     25  C   UNL     1       2.278  -4.215   1.112  0.00  0.00    +0.023 A 
ATOM     26  C   UNL     1       2.677  -5.527   0.954  0.00  0.00    +0.002 A 
ATOM     27  C   UNL     1       2.886  -6.040  -0.314  0.00  0.00    +0.004 A 
ATOM     28  C   UNL     1       2.696  -5.241  -1.426  0.00  0.00    -0.046 A 
ATOM     29  C   UNL     1       2.290  -3.929  -1.275  0.00  0.00    -0.026 A 
ATOM     30  C   UNL     1       2.077  -3.061  -2.488  0.00  0.00    +0.046 C 
ATOM     31  C   UNL     1       2.925  -5.803  -2.805  0.00  0.00    +0.044 C 
ENDBRANCH  22  24
ENDBRANCH  19  20
BRANCH  19  33
ATOM     32  C   UNL     1      -0.437   1.751   0.518  0.00  0.00    +0.006 C 
ATOM     33  C   UNL     1      -0.200   0.248   0.362  0.00  0.00    +0.033 C 
ENDBRANCH  19  33
ENDBRANCH   1  19
TORSDOF 6
