REMARK  Name = ZINC14477488
REMARK  5 active torsions:
REMARK  status: ('A' for Active; 'I' for Inactive)
REMARK    1  A    between atoms: C_1  and  O_2
REMARK    2  A    between atoms: O_2  and  C_3
REMARK    3  A    between atoms: C_6  and  O_27
REMARK    4  A    between atoms: C_16  and  C_19
REMARK    5  A    between atoms: O_27  and  C_28
REMARK                            x       y       z     vdW  Elec       q    Type
REMARK                         _______ _______ _______ _____ _____    ______ ____
ROOT
ATOM      1  C   UNL     1       6.364   0.384  -0.447  0.00  0.00    +0.126 A 
ATOM      2  C   UNL     1       7.335   0.848   0.424  0.00  0.00    +0.049 A 
ATOM      3  C   UNL     1       7.045   1.880   1.297  0.00  0.00    +0.051 A 
ATOM      4  C   UNL     1       5.784   2.447   1.294  0.00  0.00    +0.141 A 
ATOM      5  C   UNL     1       4.801   1.983   0.415  0.00  0.00    +0.077 A 
ATOM      6  C   UNL     1       5.090   0.949  -0.456  0.00  0.00    +0.026 A 
ATOM      7  C   UNL     1       4.083   0.399  -1.423  0.00  0.00    +0.052 C 
ATOM      8  C   UNL     1       3.621  -0.973  -0.988  0.00  0.00    -0.022 C 
ATOM      9  C   UNL     1       2.337  -1.113  -1.203  0.00  0.00    -0.030 C 
ATOM     10  C   UNL     1       1.760   0.146  -1.819  0.00  0.00    +0.033 C 
ATOM     11  C   UNL     1       2.792   1.244  -1.439  0.00  0.00    +0.029 C 
ATOM     12  C   UNL     1       2.482   1.704  -0.013  0.00  0.00    +0.106 C 
ATOM     13  N   UNL     1       3.546   2.595   0.454  0.00  0.00    -0.334 N 
ATOM     14  H   UNL     1       3.549   3.458  -0.069  0.00  0.00    +0.147 HD
ENDROOT
BRANCH  12  15
ATOM     15  C   UNL     1       1.167   2.440   0.004  0.00  0.00    -0.009 A 
ATOM     16  C   UNL     1       0.624   2.911  -1.177  0.00  0.00    +0.008 A 
ATOM     17  C   UNL     1      -0.582   3.586  -1.162  0.00  0.00    +0.020 A 
ATOM     18  C   UNL     1      -1.247   3.790   0.034  0.00  0.00    +0.042 A 
ATOM     19  C   UNL     1      -0.707   3.314   1.215  0.00  0.00    +0.040 A 
ATOM     20  C   UNL     1       0.503   2.643   1.201  0.00  0.00    +0.047 A 
ATOM     21 CL   UNL     1       1.185   2.051   2.683  0.00  0.00    -0.083 Cl
ATOM     22 CL   UNL     1      -2.762   4.638   0.052  0.00  0.00    -0.083 Cl
ENDBRANCH  12  15
BRANCH   1  24
ATOM     23  C   UNL     1       7.979  -1.169  -1.243  0.00  0.00    +0.277 C 
ATOM     24  O   UNL     1       6.656  -0.632  -1.301  0.00  0.00    -0.495 OA
ENDBRANCH   1  24
BRANCH   4  25
ATOM     25  O   UNL     1       5.498   3.465   2.152  0.00  0.00    -0.493 OA
ATOM     26  C   UNL     1       6.547   3.892   3.024  0.00  0.00    +0.277 C 
ENDBRANCH   4  25
TORSDOF 3
