REMARK  Name = ZINC12937346
REMARK  5 active torsions:
REMARK  status: ('A' for Active; 'I' for Inactive)
REMARK    1  A    between atoms: C_1  and  C_2
REMARK    2  A    between atoms: C_4  and  C_18
REMARK    3  A    between atoms: C_5  and  N_9
REMARK    4  A    between atoms: C_10  and  C_12
REMARK    5  A    between atoms: C_15  and  C_17
REMARK                            x       y       z     vdW  Elec       q    Type
REMARK                         _______ _______ _______ _____ _____    ______ ____
ROOT
ATOM      1  C   UNL     1      -5.949  -1.202  -0.350  0.00  0.00    +0.044 C 
ATOM      2  C   UNL     1      -4.685  -0.388  -0.252  0.00  0.00    -0.049 A 
ATOM      3  C   UNL     1      -4.707   0.960  -0.561  0.00  0.00    +0.008 A 
ATOM      4  C   UNL     1      -3.552   1.711  -0.467  0.00  0.00    -0.028 A 
ATOM      5  C   UNL     1      -2.364   1.109  -0.073  0.00  0.00    +0.055 A 
ATOM      6  C   UNL     1      -2.344  -0.245   0.235  0.00  0.00    +0.063 A 
ATOM      7  C   UNL     1      -3.506  -0.990   0.144  0.00  0.00    +0.025 A 
ATOM      8 CL   UNL     1      -0.864  -1.002   0.734  0.00  0.00    -0.082 Cl
ATOM      9  C   UNL     1      -3.579   3.181  -0.797  0.00  0.00    +0.046 C 
ENDROOT
BRANCH   5  10
ATOM     10  N   UNL     1      -1.191   1.867   0.018  0.00  0.00    -0.284 N 
ATOM     11  C   UNL     1      -0.833   2.416   1.195  0.00  0.00    +0.221 C 
ATOM     12  O   UNL     1      -1.572   2.332   2.153  0.00  0.00    -0.275 OA
ATOM     13  H   UNL     1      -0.635   1.996  -0.766  0.00  0.00    +0.155 HD
BRANCH  11  14
ATOM     14  C   UNL     1       0.488   3.130   1.324  0.00  0.00    +0.078 C 
ATOM     15  C   UNL     1       0.455   4.646   1.527  0.00  0.00    +0.017 C 
ATOM     16  C   UNL     1       0.839   3.727   2.688  0.00  0.00    -0.002 C 
ATOM     17  C   UNL     1       2.309   3.701   3.113  0.00  0.00    +0.008 C 
ENDBRANCH  11  14
ENDBRANCH   5  10
TORSDOF 2
