REMARK  Name = ZINC02971520
REMARK  6 active torsions:
REMARK  status: ('A' for Active; 'I' for Inactive)
REMARK    1  A    between atoms: C_4  and  C_7
REMARK    2  A    between atoms: C_7  and  C_8
REMARK    3  A    between atoms: N_10  and  N_11
REMARK    4  A    between atoms: C_21  and  S_22
REMARK    5  A    between atoms: S_22  and  C_23
REMARK    6  A    between atoms: C_23  and  C_24
REMARK                            x       y       z     vdW  Elec       q    Type
REMARK                         _______ _______ _______ _____ _____    ______ ____
ROOT
ATOM      1  N   UNL     1      -7.246   6.024   2.513  0.00  0.00    -0.199 N 
ATOM      2  C   UNL     1      -8.423   6.673   2.355  0.00  0.00    +0.280 A 
ATOM      3  O   UNL     1      -8.945   7.267   3.280  0.00  0.00    -0.265 OA
ATOM      4  C   UNL     1      -9.050   6.628   1.027  0.00  0.00    +0.066 A 
ATOM      5  C   UNL     1     -10.265   7.261   0.765  0.00  0.00    +0.015 A 
ATOM      6  C   UNL     1     -10.804   7.189  -0.490  0.00  0.00    +0.001 A 
ATOM      7  C   UNL     1     -10.156   6.493  -1.503  0.00  0.00    +0.002 A 
ATOM      8  C   UNL     1      -8.965   5.864  -1.273  0.00  0.00    +0.028 A 
ATOM      9  C   UNL     1      -8.387   5.920  -0.001  0.00  0.00    +0.079 A 
ATOM     10  N   UNL     1      -7.213   5.314   0.270  0.00  0.00    -0.222 NA
ATOM     11  C   UNL     1      -6.672   5.366   1.462  0.00  0.00    +0.190 A 
ENDROOT
BRANCH   1  14
ATOM     12  C   UNL     1      -5.976   7.141   4.188  0.00  0.00    +0.235 C 
ATOM     13  O   UNL     1      -5.957   8.134   3.492  0.00  0.00    -0.274 OA
ATOM     14  N   UNL     1      -6.609   6.030   3.760  0.00  0.00    -0.218 N 
ATOM     15  H   UNL     1      -6.626   5.130   4.391  0.00  0.00    +0.176 HD
BRANCH  12  16
ATOM     16  C   UNL     1      -5.291   7.148   5.530  0.00  0.00    +0.132 C 
BRANCH  16  20
ATOM     17  C   UNL     1      -3.515  10.975   6.202  0.00  0.00    +0.000 A 
ATOM     18  C   UNL     1      -4.815  10.735   6.608  0.00  0.00    +0.000 A 
ATOM     19  C   UNL     1      -5.389   9.497   6.390  0.00  0.00    +0.004 A 
ATOM     20  C   UNL     1      -4.665   8.498   5.767  0.00  0.00    -0.039 A 
ATOM     21  C   UNL     1      -3.363   8.736   5.366  0.00  0.00    +0.004 A 
ATOM     22  C   UNL     1      -2.791   9.977   5.578  0.00  0.00    +0.000 A 
ENDBRANCH  16  20
ENDBRANCH  12  16
ENDBRANCH   1  14
BRANCH  11  23
ATOM     23  S   UNL     1      -5.136   4.545   1.723  0.00  0.00    -0.080 S 
BRANCH  23  24
ATOM     24  C   UNL     1      -4.856   3.867   0.069  0.00  0.00    +0.133 C 
BRANCH  24  25
ATOM     25  C   UNL     1      -3.559   3.099   0.052  0.00  0.00    +0.059 A 
ATOM     26  C   UNL     1      -3.574   1.718   0.044  0.00  0.00    +0.094 A 
ATOM     27  C   UNL     1      -2.357   1.028   0.029  0.00  0.00    +0.259 A 
ATOM     28  O   UNL     1      -2.336  -0.193   0.022  0.00  0.00    -0.267 OA
ATOM     29  N   UNL     1      -1.206   1.733   0.017  0.00  0.00    -0.267 N 
ATOM     30  C   UNL     1      -0.013   1.076   0.008  0.00  0.00    +0.116 A 
ATOM     31  C   UNL     1       1.154   1.761   0.001  0.00  0.00    +0.058 A 
ATOM     32  C   UNL     1       1.147   3.164   0.009  0.00  0.00    +0.025 A 
ATOM     33  C   UNL     1      -0.041   3.830   0.024  0.00  0.00    +0.048 A 
ATOM     34  C   UNL     1      -1.244   3.099   0.031  0.00  0.00    +0.141 A 
ATOM     35  N   UNL     1      -2.406   3.750   0.045  0.00  0.00    -0.233 NA
ATOM     36 CL   UNL     1       2.663   0.902  -0.018  0.00  0.00    -0.082 Cl
ENDBRANCH  24  25
ENDBRANCH  23  24
ENDBRANCH  11  23
TORSDOF 6
