REMARK  Name = ZINC40159309
REMARK  7 active torsions:
REMARK  status: ('A' for Active; 'I' for Inactive)
REMARK    1  A    between atoms: C_1  and  C_2
REMARK    2  A    between atoms: C_2  and  C_26
REMARK    3  A    between atoms: N_5  and  C_9
REMARK    4  A    between atoms: C_9  and  C_10
REMARK    5  A    between atoms: N_12  and  N_13
REMARK    6  A    between atoms: N_13  and  C_14
REMARK    7  A    between atoms: N_13  and  C_20
REMARK                            x       y       z     vdW  Elec       q    Type
REMARK                         _______ _______ _______ _____ _____    ______ ____
ROOT
ATOM      1  C   UNL     1      -3.369  -3.448   2.207  0.00  0.00    +0.247 C 
ATOM      2  O   UNL     1      -2.385  -3.213   1.538  0.00  0.00    -0.273 OA
ATOM      3  N   UNL     1      -4.034  -4.609   2.043  0.00  0.00    -0.228 N 
ATOM      4  H   UNL     1      -4.821  -4.796   2.577  0.00  0.00    +0.173 HD
ENDROOT
BRANCH   1   5
ATOM      5  C   UNL     1      -3.850  -2.441   3.220  0.00  0.00    +0.215 C 
BRANCH   5  10
ATOM      6  C   UNL     1      -2.534   2.067   3.305  0.00  0.00    +0.047 C 
ATOM      7  C   UNL     1      -2.004   0.747   2.744  0.00  0.00    +0.135 C 
ATOM      8  C   UNL     1      -3.148  -0.194   2.421  0.00  0.00    +0.251 C 
ATOM      9  O   UNL     1      -4.043  -0.012   1.623  0.00  0.00    -0.272 OA
ATOM     10  N   UNL     1      -2.965  -1.274   3.206  0.00  0.00    -0.215 N 
ATOM     11  C   UNL     1      -1.875  -1.148   3.971  0.00  0.00    +0.310 C 
ATOM     12  O   UNL     1      -1.502  -1.993   4.761  0.00  0.00    -0.252 OA
ATOM     13  N   UNL     1      -1.236   0.019   3.769  0.00  0.00    -0.281 N 
ATOM     14  H   UNL     1      -0.428   0.322   4.211  0.00  0.00    +0.152 HD
BRANCH   7  15
ATOM     15  C   UNL     1      -1.157   0.994   1.522  0.00  0.00    -0.016 A 
ATOM     16  C   UNL     1      -1.738   1.003   0.268  0.00  0.00    +0.006 A 
ATOM     17  C   UNL     1      -0.960   1.230  -0.852  0.00  0.00    +0.000 A 
ATOM     18  C   UNL     1       0.398   1.448  -0.718  0.00  0.00    +0.000 A 
ATOM     19  C   UNL     1       0.979   1.439   0.536  0.00  0.00    +0.000 A 
ATOM     20  C   UNL     1       0.201   1.217   1.657  0.00  0.00    +0.006 A 
ENDBRANCH   7  15
ENDBRANCH   5  10
ENDBRANCH   1   5
BRANCH   3  21
ATOM     21  N   UNL     1      -3.587  -5.545   1.100  0.00  0.00    -0.220 N 
BRANCH  21  22
ATOM     22  C   UNL     1      -2.457  -6.320   1.368  0.00  0.00    +0.053 A 
ATOM     23  C   UNL     1      -1.898  -7.106   0.367  0.00  0.00    +0.025 A 
ATOM     24  C   UNL     1      -0.780  -7.871   0.635  0.00  0.00    +0.002 A 
ATOM     25  C   UNL     1      -0.217  -7.856   1.898  0.00  0.00    +0.000 A 
ATOM     26  C   UNL     1      -0.770  -7.076   2.897  0.00  0.00    +0.002 A 
ATOM     27  C   UNL     1      -1.884  -6.303   2.634  0.00  0.00    +0.025 A 
ENDBRANCH  21  22
BRANCH  21  28
ATOM     28  C   UNL     1      -4.273  -5.702  -0.107  0.00  0.00    +0.053 A 
ATOM     29  C   UNL     1      -4.500  -4.604  -0.927  0.00  0.00    +0.025 A 
ATOM     30  C   UNL     1      -5.177  -4.763  -2.120  0.00  0.00    +0.002 A 
ATOM     31  C   UNL     1      -5.630  -6.014  -2.498  0.00  0.00    +0.000 A 
ATOM     32  C   UNL     1      -5.406  -7.109  -1.684  0.00  0.00    +0.002 A 
ATOM     33  C   UNL     1      -4.724  -6.958  -0.493  0.00  0.00    +0.025 A 
ENDBRANCH  21  28
ENDBRANCH   3  21
TORSDOF 6
