REMARK  Name = ZINC15226121
REMARK  8 active torsions:
REMARK  status: ('A' for Active; 'I' for Inactive)
REMARK    1  A    between atoms: C_1  and  C_2
REMARK    2  A    between atoms: C_2  and  C_3
REMARK    3  A    between atoms: C_3  and  N_4
REMARK    4  A    between atoms: C_14  and  S_15
REMARK    5  A    between atoms: S_15  and  C_16
REMARK    6  A    between atoms: C_16  and  C_17
REMARK    7  A    between atoms: C_29  and  C_30
REMARK    8  A    between atoms: C_29  and  C_31
REMARK                            x       y       z     vdW  Elec       q    Type
REMARK                         _______ _______ _______ _____ _____    ______ ____
ROOT
ATOM      1  C   UNL     1       1.205   5.019   2.402  0.00  0.00    +0.173 C 
ENDROOT
BRANCH   1   2
ATOM      2  C   UNL     1       2.175   6.016   1.822  0.00  0.00    +0.231 C 
ATOM      3  O   UNL     1       2.855   5.713   0.864  0.00  0.00    -0.274 OA
ATOM      4  N   UNL     1       2.288   7.243   2.368  0.00  0.00    -0.255 N 
ATOM      5  C   UNL     1       1.571   7.591   3.523  0.00  0.00    +0.059 A 
ATOM      6  C   UNL     1       0.347   7.010   3.805  0.00  0.00    +0.025 A 
ATOM      7  C   UNL     1      -0.339   7.377   4.950  0.00  0.00    +0.002 A 
ATOM      8  C   UNL     1       0.196   8.320   5.808  0.00  0.00    +0.002 A 
ATOM      9  C   UNL     1       1.419   8.903   5.533  0.00  0.00    +0.025 A 
ATOM     10  C   UNL     1       2.114   8.540   4.390  0.00  0.00    +0.055 A 
ATOM     11  N   UNL     1       3.358   9.109   4.098  0.00  0.00    -0.282 N 
ATOM     12  C   UNL     1       3.905   8.977   2.875  0.00  0.00    +0.241 C 
ATOM     13  O   UNL     1       5.005   9.441   2.657  0.00  0.00    -0.273 OA
ATOM     14  C   UNL     1       3.172   8.258   1.776  0.00  0.00    +0.113 C 
ATOM     15  C   UNL     1       4.181   7.580   0.848  0.00  0.00    +0.042 C 
ATOM     16  C   UNL     1       2.337   9.263   0.981  0.00  0.00    +0.042 C 
ATOM     17  H   UNL     1       3.832   9.605   4.784  0.00  0.00    +0.155 HD
ENDBRANCH   1   2
BRANCH   1  18
ATOM     18  S   UNL     1       1.632   3.357   1.828  0.00  0.00    -0.078 S 
BRANCH  18  29
ATOM     19  N   UNL     1       0.348   1.070   2.448  0.00  0.00    -0.287 N 
ATOM     20  C   UNL     1      -0.597   0.312   3.052  0.00  0.00    +0.262 A 
ATOM     21  O   UNL     1      -0.631  -0.895   2.900  0.00  0.00    -0.267 OA
ATOM     22  C   UNL     1      -1.581   1.002   3.898  0.00  0.00    +0.065 A 
ATOM     23  C   UNL     1      -2.593   0.312   4.564  0.00  0.00    +0.015 A 
ATOM     24  C   UNL     1      -3.482   1.003   5.340  0.00  0.00    +0.001 A 
ATOM     25  C   UNL     1      -3.387   2.383   5.471  0.00  0.00    +0.002 A 
ATOM     26  C   UNL     1      -2.405   3.084   4.830  0.00  0.00    +0.028 A 
ATOM     27  C   UNL     1      -1.481   2.406   4.029  0.00  0.00    +0.079 A 
ATOM     28  N   UNL     1      -0.496   3.058   3.379  0.00  0.00    -0.223 NA
ATOM     29  C   UNL     1       0.374   2.422   2.634  0.00  0.00    +0.173 A 
BRANCH  19  30
ATOM     30  C   UNL     1       1.354   0.433   1.594  0.00  0.00    +0.127 C 
BRANCH  30  32
ATOM     31  C   UNL     1       1.889  -0.285  -0.738  0.00  0.00    +0.005 C 
ATOM     32  C   UNL     1       0.839   0.379   0.154  0.00  0.00    +0.018 C 
ENDBRANCH  30  32
ENDBRANCH  19  30
ENDBRANCH  18  29
ENDBRANCH   1  18
TORSDOF 5
