REMARK  Name = ZINC66595647
REMARK  11 active torsions:
REMARK  status: ('A' for Active; 'I' for Inactive)
REMARK    1  A    between atoms: C_1  and  C_2
REMARK    2  A    between atoms: C_5  and  C_9
REMARK    3  A    between atoms: C_6  and  C_8
REMARK    4  A    between atoms: C_9  and  C_10
REMARK    5  A    between atoms: C_10  and  C_12
REMARK    6  A    between atoms: C_10  and  N_13
REMARK    7  A    between atoms: N_16  and  C_17
REMARK    8  A    between atoms: C_17  and  C_19
REMARK    9  A    between atoms: C_17  and  C_20
REMARK   10  A    between atoms: C_24  and  S_26
REMARK   11  A    between atoms: S_26  and  N_29
REMARK                            x       y       z     vdW  Elec       q    Type
REMARK                         _______ _______ _______ _____ _____    ______ ____
ROOT
ATOM      1  N   UNL     1      -2.143  -4.420  -1.074  0.00  0.00    -0.297 N 
ATOM      2  C   UNL     1      -3.484  -4.311  -0.997  0.00  0.00    +0.300 C 
ATOM      3  O   UNL     1      -4.053  -4.532   0.055  0.00  0.00    -0.253 OA
ATOM      4  N   UNL     1      -4.196  -3.958  -2.086  0.00  0.00    -0.293 N 
ATOM      5  H   UNL     1      -1.690  -4.245  -1.914  0.00  0.00    +0.151 HD
ATOM      6  H   UNL     1      -3.742  -3.782  -2.925  0.00  0.00    +0.151 HD
ENDROOT
BRANCH   1   7
ATOM      7  C   UNL     1      -1.370  -4.804   0.109  0.00  0.00    +0.076 C 
ATOM      8  C   UNL     1      -1.341  -6.330   0.226  0.00  0.00    +0.028 C 
BRANCH   7   9
ATOM      9  C   UNL     1       0.059  -4.275  -0.021  0.00  0.00    +0.057 C 
BRANCH   9  14
ATOM     10  C   UNL     1      -0.018   1.503   0.010  0.00  0.00    +0.044 C 
ATOM     11  C   UNL     1       0.002  -0.004   0.002  0.00  0.00    -0.050 A 
ATOM     12  C   UNL     1       0.006  -0.689  -1.199  0.00  0.00    +0.003 A 
ATOM     13  C   UNL     1       0.025  -2.071  -1.207  0.00  0.00    +0.004 A 
ATOM     14  C   UNL     1       0.040  -2.768  -0.013  0.00  0.00    -0.043 A 
ATOM     15  C   UNL     1       0.037  -2.084   1.188  0.00  0.00    -0.047 A 
ATOM     16  C   UNL     1       0.023  -0.702   1.195  0.00  0.00    +0.007 A 
ATOM     17  C   UNL     1       0.054  -2.845   2.489  0.00  0.00    +0.044 C 
ENDBRANCH   9  14
ENDBRANCH   7   9
ENDBRANCH   1   7
BRANCH   4  18
ATOM     18  C   UNL     1      -5.653  -3.839  -2.002  0.00  0.00    +0.102 C 
ATOM     19  C   UNL     1      -6.290  -5.214  -2.213  0.00  0.00    +0.033 C 
BRANCH  18  20
ATOM     20  C   UNL     1      -6.142  -2.890  -3.066  0.00  0.00    -0.026 A 
ATOM     21  C   UNL     1      -5.584  -2.922  -4.330  0.00  0.00    +0.005 A 
ATOM     22  C   UNL     1      -6.032  -2.052  -5.306  0.00  0.00    +0.002 A 
ATOM     23  C   UNL     1      -7.040  -1.150  -5.018  0.00  0.00    +0.028 A 
ATOM     24  C   UNL     1      -7.599  -1.119  -3.754  0.00  0.00    +0.105 A 
ATOM     25  C   UNL     1      -7.153  -1.992  -2.779  0.00  0.00    +0.034 A 
BRANCH  24  26
ATOM     26  S   UNL     1      -8.882   0.031  -3.386  0.00  0.00    +0.056 S 
ATOM     27  O   UNL     1      -8.859   0.229  -1.980  0.00  0.00    -0.153 OA
ATOM     28  O   UNL     1      -8.744   1.103  -4.309  0.00  0.00    -0.153 OA
BRANCH  26  29
ATOM     29  N   UNL     1     -10.320  -0.712  -3.736  0.00  0.00    -0.204 NA
ATOM     30  H   UNL     1     -10.326  -1.620  -4.077  0.00  0.00    +0.144 HD
ATOM     31  H   UNL     1     -11.156  -0.239  -3.601  0.00  0.00    +0.144 HD
ENDBRANCH  26  29
ENDBRANCH  24  26
ENDBRANCH  18  20
ENDBRANCH   4  18
TORSDOF 7
