REMARK  Name = ZINC36652419
REMARK  6 active torsions:
REMARK  status: ('A' for Active; 'I' for Inactive)
REMARK    1  A    between atoms: C_1  and  C_2
REMARK    2  A    between atoms: C_4  and  N_7
REMARK    3  A    between atoms: C_8  and  C_10
REMARK    4  A    between atoms: C_10  and  S_11
REMARK    5  A    between atoms: S_11  and  C_12
REMARK    6  A    between atoms: C_15  and  C_18
REMARK                            x       y       z     vdW  Elec       q    Type
REMARK                         _______ _______ _______ _____ _____    ______ ____
ROOT
ATOM      1  S   UNL     1       0.098  -7.180  -0.886  0.00  0.00    -0.095 S 
ENDROOT
BRANCH   1   2
ATOM      2  C   UNL     1       0.110  -8.493  -2.062  0.00  0.00    +0.120 A 
ATOM      3  C   UNL     1       0.125  -9.820  -1.626  0.00  0.00    +0.039 A 
ATOM      4  C   UNL     1       0.133 -10.812  -2.574  0.00  0.00    +0.036 A 
ATOM      5  C   UNL     1       0.126 -10.434  -3.924  0.00  0.00    +0.128 A 
ATOM      6  N   UNL     1       0.112  -9.147  -4.249  0.00  0.00    -0.145 NA
ATOM      7  N   UNL     1       0.099  -8.221  -3.359  0.00  0.00    -0.142 NA
BRANCH   5   8
ATOM      8  C   UNL     1       0.135 -11.465  -4.982  0.00  0.00    +0.155 A 
ATOM      9  C   UNL     1       0.135 -11.233  -6.322  0.00  0.00    +0.051 A 
ATOM     10  C   UNL     1       0.145 -12.494  -6.952  0.00  0.00    +0.042 A 
ATOM     11  C   UNL     1       0.151 -13.423  -5.975  0.00  0.00    +0.196 A 
ATOM     12  O   UNL     1       0.151 -12.798  -4.787  0.00  0.00    -0.461 OA
ENDBRANCH   5   8
ENDBRANCH   1   2
BRANCH   1  13
ATOM     13  C   UNL     1       0.071  -5.679  -1.905  0.00  0.00    +0.172 C 
BRANCH  13  15
ATOM     14  N   UNL     1       0.039  -3.231  -1.552  0.00  0.00    -0.254 N 
ATOM     15  C   UNL     1       0.059  -4.466  -1.011  0.00  0.00    +0.230 C 
ATOM     16  O   UNL     1       0.068  -4.600   0.194  0.00  0.00    -0.274 OA
ATOM     17  H   UNL     1       0.033  -3.124  -2.516  0.00  0.00    +0.158 HD
BRANCH  14  21
ATOM     18  C   UNL     1      -0.018   1.503   0.010  0.00  0.00    +0.069 C 
ATOM     19  C   UNL     1       0.002  -0.004   0.002  0.00  0.00    +0.082 A 
ATOM     20  C   UNL     1       0.008  -0.820  -1.138  0.00  0.00    +0.092 A 
ATOM     21  C   UNL     1       0.028  -2.114  -0.729  0.00  0.00    +0.224 A 
ATOM     22  O   UNL     1       0.035  -2.120   0.615  0.00  0.00    -0.339 OA
ATOM     23  N   UNL     1       0.023  -0.774   1.055  0.00  0.00    -0.081 NA
ENDBRANCH  14  21
ENDBRANCH  13  15
ENDBRANCH   1  13
TORSDOF 5
