REMARK  Name = ZINC61714302
REMARK  5 active torsions:
REMARK  status: ('A' for Active; 'I' for Inactive)
REMARK    1  A    between atoms: C_1  and  C_2
REMARK    2  A    between atoms: C_2  and  C_3
REMARK    3  A    between atoms: C_2  and  C_4
REMARK    4  A    between atoms: C_2  and  C_5
REMARK    5  A    between atoms: N_14  and  C_15
REMARK                            x       y       z     vdW  Elec       q    Type
REMARK                         _______ _______ _______ _____ _____    ______ ____
ROOT
ATOM      1  C   UNL     1       0.718  -0.497  -1.257  0.00  0.00    -0.000 C 
ATOM      2  C   UNL     1      -0.017   0.014  -2.499  0.00  0.00    +0.010 C 
ATOM      3  C   UNL     1       0.536  -0.665  -3.754  0.00  0.00    +0.056 C 
ATOM      4  C   UNL     1       2.049  -0.501  -3.772  0.00  0.00    +0.054 A 
ATOM      5  C   UNL     1       2.722  -0.184  -2.637  0.00  0.00    +0.015 A 
ATOM      6  S   UNL     1       4.403  -0.115  -3.190  0.00  0.00    -0.057 S 
ATOM      7  C   UNL     1       4.117  -0.492  -4.808  0.00  0.00    +0.158 A 
ATOM      8  N   UNL     1       2.812  -0.647  -4.853  0.00  0.00    -0.230 NA
ATOM      9  N   UNL     1       5.035  -0.610  -5.840  0.00  0.00    -0.327 N 
ATOM     10  C   UNL     1       4.579  -0.949  -7.190  0.00  0.00    +0.127 C 
ATOM     11  C   UNL     1       2.159   0.039  -1.274  0.00  0.00    +0.048 C 
ATOM     12  H   UNL     1       5.979  -0.467  -5.668  0.00  0.00    +0.148 HD
ENDROOT
BRANCH   1  14
ATOM     13  C   UNL     1      -0.019   1.526   0.010  0.00  0.00    +0.011 C 
ATOM     14  C   UNL     1       0.002  -0.004   0.002  0.00  0.00    -0.035 C 
ATOM     15  C   UNL     1       0.742  -0.511   1.242  0.00  0.00    +0.011 C 
ATOM     16  C   UNL     1      -1.433  -0.534   0.013  0.00  0.00    +0.011 C 
ENDBRANCH   1  14
TORSDOF 1
