REMARK  Name = ZINC40452406
REMARK  5 active torsions:
REMARK  status: ('A' for Active; 'I' for Inactive)
REMARK    1  A    between atoms: C_5  and  N_16
REMARK    2  A    between atoms: C_6  and  N_7
REMARK    3  A    between atoms: N_10  and  C_13
REMARK    4  A    between atoms: C_13  and  C_14
REMARK    5  A    between atoms: C_14  and  O_15
REMARK                            x       y       z     vdW  Elec       q    Type
REMARK                         _______ _______ _______ _____ _____    ______ ____
ROOT
ATOM      1  C   UNL     1      -0.017   1.389   0.010  0.00  0.00    +0.026 A 
ATOM      2  C   UNL     1       1.177   2.086   0.002  0.00  0.00    +0.019 A 
ATOM      3  C   UNL     1       2.364   1.395  -0.013  0.00  0.00    +0.041 A 
ATOM      4  C   UNL     1       2.421  -0.017  -0.021  0.00  0.00    +0.110 A 
ATOM      5  C   UNL     1       1.189  -0.703  -0.013  0.00  0.00    +0.173 A 
ATOM      6  C   UNL     1       0.002  -0.004   0.002  0.00  0.00    +0.063 A 
ATOM      7  N   UNL     1       3.680  -0.502  -0.036  0.00  0.00    -0.245 NA
ATOM      8  C   UNL     1       4.723   0.276  -0.042  0.00  0.00    +0.157 A 
ATOM      9  S   UNL     1       4.083   1.833  -0.027  0.00  0.00    -0.075 S 
ENDROOT
BRANCH   6  10
ATOM     10  N   UNL     1      -1.208  -0.707   0.010  0.00  0.00    -0.326 N 
ATOM     11  C   UNL     1      -1.852  -1.087   1.276  0.00  0.00    +0.120 C 
ATOM     12  C   UNL     1      -3.313  -0.626   1.238  0.00  0.00    +0.103 C 
ATOM     13  N   UNL     1      -3.958  -1.156   0.029  0.00  0.00    -0.297 NA
ATOM     14  C   UNL     1      -3.330  -0.623  -1.188  0.00  0.00    +0.103 C 
ATOM     15  C   UNL     1      -1.873  -1.079  -1.248  0.00  0.00    +0.120 C 
BRANCH  13  16
ATOM     16  C   UNL     1      -5.401  -0.882   0.039  0.00  0.00    +0.112 C 
BRANCH  16  17
ATOM     17  C   UNL     1      -6.075  -1.655  -1.096  0.00  0.00    +0.171 C 
BRANCH  17  18
ATOM     18  O   UNL     1      -5.956  -3.058  -0.854  0.00  0.00    -0.394 OA
ATOM     19  H   UNL     1      -6.362  -3.611  -1.535  0.00  0.00    +0.209 HD
ENDBRANCH  17  18
ENDBRANCH  16  17
ENDBRANCH  13  16
ENDBRANCH   6  10
BRANCH   5  20
ATOM     20  N   UNL     1       1.171  -2.183  -0.021  0.00  0.00    +0.060 N 
ATOM     21  O   UNL     1       1.174  -2.793   1.023  0.00  0.00    -0.126 OA
ATOM     22  O   UNL     1       1.154  -2.782  -1.071  0.00  0.00    -0.126 OA
ENDBRANCH   5  20
TORSDOF 5
