REMARK  Name = ZINC05613175
REMARK  3 active torsions:
REMARK  status: ('A' for Active; 'I' for Inactive)
REMARK    1  A    between atoms: C_1  and  C_2
REMARK    2  A    between atoms: C_2  and  C_4
REMARK    3  A    between atoms: N_6  and  C_7
REMARK                            x       y       z     vdW  Elec       q    Type
REMARK                         _______ _______ _______ _____ _____    ______ ____
ROOT
ATOM      1  C   UNL     1      -1.490   3.616   0.036  0.00  0.00    +0.036 C 
ATOM      2  C   UNL     1      -0.773   3.123  -1.223  0.00  0.00    +0.029 C 
ATOM      3  C   UNL     1      -0.753   1.593  -1.232  0.00  0.00    -0.008 C 
ATOM      4  C   UNL     1      -0.013   1.086   0.008  0.00  0.00    +0.007 C 
ATOM      5  C   UNL     1      -0.729   1.579   1.267  0.00  0.00    -0.008 C 
ATOM      6  C   UNL     1      -0.750   3.109   1.275  0.00  0.00    +0.029 C 
ATOM      7  C   UNL     1      -2.164   1.050   1.278  0.00  0.00    +0.007 C 
ATOM      8  C   UNL     1      -2.904   1.556   0.038  0.00  0.00    -0.008 C 
ATOM      9  C   UNL     1      -2.188   1.063  -1.221  0.00  0.00    +0.007 C 
ATOM     10  C   UNL     1      -2.925   3.086   0.047  0.00  0.00    +0.029 C 
ENDROOT
BRANCH   1  13
ATOM     11  C   UNL     1      -2.092   5.741   1.064  0.00  0.00    +0.240 C 
ATOM     12  O   UNL     1      -2.602   5.121   1.977  0.00  0.00    -0.271 OA
ATOM     13  N   UNL     1      -1.510   5.081   0.044  0.00  0.00    -0.306 N 
ATOM     14  H   UNL     1      -1.103   5.575  -0.685  0.00  0.00    +0.150 HD
BRANCH  11  16
ATOM     15  C   UNL     1      -1.481   7.980  -0.060  0.00  0.00    +0.048 C 
ATOM     16  C   UNL     1      -2.112   7.212   1.072  0.00  0.00    +0.004 C 
ATOM     17  C   UNL     1      -2.688   7.864   2.078  0.00  0.00    +0.017 C 
ENDBRANCH  11  16
ENDBRANCH   1  13
TORSDOF 2
