REMARK  Name = ZINC38649104
REMARK  10 active torsions:
REMARK  status: ('A' for Active; 'I' for Inactive)
REMARK    1  A    between atoms: C_1  and  C_2
REMARK    2  A    between atoms: C_2  and  O_3
REMARK    3  A    between atoms: O_3  and  C_4
REMARK    4  A    between atoms: C_7  and  C_13
REMARK    5  A    between atoms: C_9  and  O_10
REMARK    6  A    between atoms: O_10  and  C_11
REMARK    7  A    between atoms: C_11  and  C_12
REMARK    8  A    between atoms: C_20  and  C_38
REMARK    9  A    between atoms: C_21  and  C_37
REMARK   10  A    between atoms: N_28  and  C_29
REMARK                            x       y       z     vdW  Elec       q    Type
REMARK                         _______ _______ _______ _____ _____    ______ ____
ROOT
ATOM      1  C   UNL     1       1.107  -6.044  -1.844  0.00  0.00    +0.145 C 
ATOM      2  C   UNL     1      -0.190  -6.608  -2.323  0.00  0.00    +0.072 A 
ATOM      3  C   UNL     1      -0.969  -6.345  -3.538  0.00  0.00    +0.199 A 
ATOM      4  O   UNL     1      -0.543  -5.692  -4.474  0.00  0.00    -0.287 OA
ATOM      5  C   UNL     1      -2.324  -6.950  -3.518  0.00  0.00    +0.065 A 
ATOM      6  C   UNL     1      -3.256  -6.628  -4.505  0.00  0.00    +0.019 A 
ATOM      7  C   UNL     1      -4.502  -7.190  -4.469  0.00  0.00    -0.047 A 
ATOM      8  C   UNL     1      -4.840  -8.076  -3.456  0.00  0.00    -0.044 A 
ATOM      9  C   UNL     1      -3.933  -8.406  -2.475  0.00  0.00    +0.050 A 
ATOM     10  C   UNL     1      -2.654  -7.849  -2.490  0.00  0.00    +0.140 A 
ATOM     11  O   UNL     1      -1.775  -8.195  -1.522  0.00  0.00    -0.450 OA
ATOM     12  C   UNL     1      -0.627  -7.502  -1.387  0.00  0.00    +0.199 A 
ATOM     13  C   UNL     1       0.355  -7.538  -0.288  0.00  0.00    +0.283 C 
ATOM     14  O   UNL     1       0.263  -8.231   0.705  0.00  0.00    -0.267 OA
ATOM     15  N   UNL     1       1.373  -6.690  -0.548  0.00  0.00    -0.279 N 
ATOM     16  C   UNL     1      -6.219  -8.685  -3.430  0.00  0.00    +0.044 C 
ATOM     17  C   UNL     1      -5.511  -6.845  -5.534  0.00  0.00    +0.044 C 
ENDROOT
BRANCH  15  18
ATOM     18  C   UNL     1       2.538  -6.454   0.309  0.00  0.00    +0.100 C 
ATOM     19  C   UNL     1       3.293  -7.774   0.534  0.00  0.00    +0.047 C 
ATOM     20  C   UNL     1       4.322  -7.604   1.679  0.00  0.00    +0.168 C 
ATOM     21  S   UNL     1       3.559  -6.290   2.716  0.00  0.00    -0.029 S 
ATOM     22  O   UNL     1       3.142  -6.859   3.949  0.00  0.00    -0.174 OA
ATOM     23  O   UNL     1       4.412  -5.154   2.722  0.00  0.00    -0.174 OA
ATOM     24  C   UNL     1       2.072  -5.920   1.693  0.00  0.00    +0.188 C 
ENDBRANCH  15  18
BRANCH   1  28
ATOM     25  C   UNL     1       0.777  -1.811  -1.336  0.00  0.00    +0.162 A 
ATOM     26  C   UNL     1       0.243  -2.669  -0.388  0.00  0.00    +0.050 A 
ATOM     27  C   UNL     1       0.352  -4.037  -0.555  0.00  0.00    +0.009 A 
ATOM     28  C   UNL     1       0.992  -4.552  -1.667  0.00  0.00    -0.019 A 
ATOM     29  C   UNL     1       1.526  -3.702  -2.616  0.00  0.00    +0.055 A 
ATOM     30  C   UNL     1       1.416  -2.330  -2.458  0.00  0.00    +0.162 A 
BRANCH  25  31
ATOM     31  O   UNL     1       0.671  -0.465  -1.174  0.00  0.00    -0.489 OA
BRANCH  31  33
ATOM     32  C   UNL     1      -0.019   1.526   0.010  0.00  0.00    +0.048 C 
ATOM     33  C   UNL     1       0.002  -0.004   0.002  0.00  0.00    +0.226 C 
ENDBRANCH  31  33
ENDBRANCH  25  31
BRANCH  30  34
ATOM     34  O   UNL     1       1.936  -1.492  -3.394  0.00  0.00    -0.489 OA
BRANCH  34  35
ATOM     35  C   UNL     1       2.578  -2.095  -4.520  0.00  0.00    +0.226 C 
ATOM     36  C   UNL     1       3.096  -1.002  -5.457  0.00  0.00    +0.048 C 
ENDBRANCH  34  35
ENDBRANCH  30  34
ENDBRANCH   1  28
TORSDOF 6
