REMARK  Name = ZINC57481705
REMARK  11 active torsions:
REMARK  status: ('A' for Active; 'I' for Inactive)
REMARK    1  A    between atoms: C_1  and  C_2
REMARK    2  A    between atoms: C_4  and  C_30
REMARK    3  A    between atoms: C_8  and  N_29
REMARK    4  A    between atoms: C_9  and  C_11
REMARK    5  A    between atoms: C_11  and  O_13
REMARK    6  A    between atoms: O_13  and  C_14
REMARK    7  A    between atoms: C_14  and  C_15
REMARK    8  A    between atoms: N_17  and  C_18
REMARK    9  A    between atoms: N_17  and  C_22
REMARK   10  A    between atoms: C_18  and  C_19
REMARK   11  A    between atoms: C_19  and  C_20
REMARK                            x       y       z     vdW  Elec       q    Type
REMARK                         _______ _______ _______ _____ _____    ______ ____
ROOT
ATOM      1  C   UNL     1      -2.894  -0.094   3.784  0.00  0.00    +0.348 C 
ATOM      2  O   UNL     1      -2.664   0.964   4.341  0.00  0.00    -0.244 OA
ENDROOT
BRANCH   1  11
ATOM      3  C   UNL     1      -5.233   3.106  -0.077  0.00  0.00    +0.044 C 
ATOM      4  C   UNL     1      -5.284   1.626  -0.358  0.00  0.00    -0.037 A 
ATOM      5  C   UNL     1      -5.874   1.153  -1.507  0.00  0.00    +0.025 A 
ATOM      6  C   UNL     1      -5.919  -0.209  -1.764  0.00  0.00    +0.014 A 
ATOM      7  N   UNL     1      -5.397  -1.067  -0.909  0.00  0.00    -0.353 N 
ATOM      8  C   UNL     1      -4.822  -0.665   0.203  0.00  0.00    +0.088 A 
ATOM      9  C   UNL     1      -4.719   0.701   0.554  0.00  0.00    +0.030 A 
ATOM     10  C   UNL     1      -4.046   0.966   1.817  0.00  0.00    +0.055 A 
ATOM     11  C   UNL     1      -3.573  -0.106   2.543  0.00  0.00    +0.119 A 
ATOM     12  S   UNL     1      -4.034  -1.513   1.550  0.00  0.00    -0.062 S 
ATOM     13  C   UNL     1      -6.569  -0.712  -3.027  0.00  0.00    +0.063 C 
ATOM     14  H   UNL     1      -5.439  -2.016  -1.105  0.00  0.00    +0.166 HD
BRANCH  10  15
ATOM     15  N   UNL     1      -3.885   2.264   2.277  0.00  0.00    -0.356 N 
ATOM     16  H   UNL     1      -3.734   2.987   1.648  0.00  0.00    +0.142 HD
ATOM     17  H   UNL     1      -3.922   2.449   3.229  0.00  0.00    +0.142 HD
ENDBRANCH  10  15
ENDBRANCH   1  11
BRANCH   1  18
ATOM     18  O   UNL     1      -2.502  -1.254   4.351  0.00  0.00    -0.451 OA
BRANCH  18  19
ATOM     19  C   UNL     1      -1.822  -1.167   5.604  0.00  0.00    +0.328 C 
BRANCH  19  20
ATOM     20  C   UNL     1      -1.465  -2.552   6.080  0.00  0.00    +0.258 C 
ATOM     21  O   UNL     1      -1.763  -3.518   5.410  0.00  0.00    -0.272 OA
ATOM     22  N   UNL     1      -0.813  -2.716   7.248  0.00  0.00    -0.268 N 
BRANCH  22  23
ATOM     23  C   UNL     1      -0.429  -3.997   7.660  0.00  0.00    +0.038 A 
ATOM     24  C   UNL     1       0.818  -4.496   7.307  0.00  0.00    +0.023 A 
ATOM     25  C   UNL     1       1.196  -5.760   7.716  0.00  0.00    +0.003 A 
ATOM     26  C   UNL     1       0.334  -6.529   8.476  0.00  0.00    +0.020 A 
ATOM     27  C   UNL     1      -0.909  -6.035   8.830  0.00  0.00    +0.043 A 
ATOM     28  C   UNL     1      -1.290  -4.768   8.428  0.00  0.00    +0.043 A 
ATOM     29 CL   UNL     1      -1.989  -7.003   9.784  0.00  0.00    -0.083 Cl
ENDBRANCH  22  23
BRANCH  22  30
ATOM     30  C   UNL     1      -0.508  -1.554   8.086  0.00  0.00    +0.128 C 
BRANCH  30  31
ATOM     31  C   UNL     1      -1.663  -1.309   9.059  0.00  0.00    +0.138 C 
BRANCH  31  32
ATOM     32  C   UNL     1      -1.356  -0.141   9.901  0.00  0.00    +0.064 C 
ATOM     33  N   UNL     1      -1.119   0.760  10.551  0.00  0.00    -0.197 NA
ENDBRANCH  31  32
ENDBRANCH  30  31
ENDBRANCH  22  30
ENDBRANCH  19  20
ENDBRANCH  18  19
ENDBRANCH   1  18
TORSDOF 9
