REMARK  Name = ZINC64129327
REMARK  8 active torsions:
REMARK  status: ('A' for Active; 'I' for Inactive)
REMARK    1  A    between atoms: C_1  and  C_2
REMARK    2  A    between atoms: C_4  and  N_26
REMARK    3  A    between atoms: C_7  and  N_8
REMARK    4  A    between atoms: C_9  and  C_11
REMARK    5  A    between atoms: C_11  and  C_12
REMARK    6  A    between atoms: C_11  and  N_13
REMARK    7  A    between atoms: N_16  and  C_19
REMARK    8  A    between atoms: C_19  and  C_20
REMARK                            x       y       z     vdW  Elec       q    Type
REMARK                         _______ _______ _______ _____ _____    ______ ____
ROOT
ATOM      1  C   UNL     1       0.419  -0.293   4.694  0.00  0.00    +0.140 C 
ATOM      2  C   UNL     1      -0.753   0.691   4.736  0.00  0.00    +0.034 C 
ENDROOT
BRANCH   1   3
ATOM      3  N   UNL     1       0.362  -1.173   5.868  0.00  0.00    -0.295 NA
ATOM      4  C   UNL     1      -0.691  -2.187   5.716  0.00  0.00    +0.066 C 
ATOM      5  C   UNL     1      -0.678  -3.118   6.930  0.00  0.00    -0.063 C 
ATOM      6  N   UNL     1      -0.904  -2.333   8.151  0.00  0.00    +0.382 N 
ATOM      7  C   UNL     1       0.169  -1.341   8.303  0.00  0.00    -0.063 C 
ATOM      8  C   UNL     1       0.163  -0.396   7.100  0.00  0.00    +0.066 C 
ATOM      9  H   UNL     1      -1.793  -1.860   8.087  0.00  0.00    -0.082 HD
BRANCH   6  10
ATOM     10  C   UNL     1      -0.910  -3.230   9.315  0.00  0.00    -0.075 C 
BRANCH  10  11
ATOM     11  C   UNL     1      -2.114  -4.170   9.229  0.00  0.00    -0.028 C 
ATOM     12  C   UNL     1      -3.405  -3.355   9.328  0.00  0.00    +0.002 C 
ATOM     13  C   UNL     1      -4.609  -4.295   9.242  0.00  0.00    +0.000 C 
ATOM     14  C   UNL     1      -4.552  -5.303  10.392  0.00  0.00    +0.000 C 
ATOM     15  C   UNL     1      -3.261  -6.118  10.292  0.00  0.00    +0.000 C 
ATOM     16  C   UNL     1      -2.057  -5.178  10.378  0.00  0.00    +0.002 C 
ENDBRANCH  10  11
ENDBRANCH   6  10
ENDBRANCH   1   3
BRANCH   1  18
ATOM     17  N   UNL     1       2.109   1.147   3.603  0.00  0.00    -0.284 N 
ATOM     18  C   UNL     1       1.717   0.472   4.702  0.00  0.00    +0.234 C 
ATOM     19  O   UNL     1       2.410   0.481   5.698  0.00  0.00    -0.274 OA
ATOM     20  H   UNL     1       1.526   1.193   2.829  0.00  0.00    +0.155 HD
BRANCH  17  27
ATOM     21  C   UNL     1       3.409   1.459   1.091  0.00  0.00    +0.046 C 
ATOM     22  C   UNL     1       4.026   1.953   2.374  0.00  0.00    -0.027 A 
ATOM     23  C   UNL     1       5.255   2.583   2.353  0.00  0.00    +0.038 A 
ATOM     24  C   UNL     1       5.821   3.037   3.530  0.00  0.00    +0.127 A 
ATOM     25  C   UNL     1       5.160   2.861   4.731  0.00  0.00    +0.034 A 
ATOM     26  C   UNL     1       3.931   2.232   4.760  0.00  0.00    +0.026 A 
ATOM     27  C   UNL     1       3.357   1.780   3.579  0.00  0.00    +0.036 A 
BRANCH  24  28
ATOM     28  N   UNL     1       7.138   3.711   3.503  0.00  0.00    +0.056 N 
ATOM     29  O   UNL     1       7.718   3.865   2.453  0.00  0.00    -0.126 OA
ATOM     30  O   UNL     1       7.635   4.108   4.531  0.00  0.00    -0.126 OA
ENDBRANCH  24  28
ENDBRANCH  17  27
ENDBRANCH   1  18
TORSDOF 6
