REMARK  Name = ZINC20693947
REMARK  7 active torsions:
REMARK  status: ('A' for Active; 'I' for Inactive)
REMARK    1  A    between atoms: C_1  and  O_2
REMARK    2  A    between atoms: O_2  and  C_3
REMARK    3  A    between atoms: C_7  and  C_10
REMARK    4  A    between atoms: C_8  and  O_9
REMARK    5  A    between atoms: C_20  and  N_28
REMARK    6  A    between atoms: C_23  and  O_26
REMARK    7  A    between atoms: O_26  and  C_27
REMARK                            x       y       z     vdW  Elec       q    Type
REMARK                         _______ _______ _______ _____ _____    ______ ____
ROOT
ATOM      1  C   UNL     1       3.748  -1.847  -0.987  0.00  0.00    +0.109 C 
ATOM      2  C   UNL     1       2.587  -2.407  -0.191  0.00  0.00    +0.029 C 
ATOM      3  C   UNL     1       2.175  -3.861  -0.447  0.00  0.00    +0.033 C 
ATOM      4  C   UNL     1       0.664  -3.794  -0.134  0.00  0.00    -0.030 C 
ATOM      5  C   UNL     1       0.211  -2.556  -0.302  0.00  0.00    -0.023 C 
ATOM      6  C   UNL     1       1.327  -1.708  -0.786  0.00  0.00    +0.051 C 
ATOM      7  C   UNL     1       1.439  -0.271  -0.454  0.00  0.00    +0.014 A 
ATOM      8  C   UNL     1       0.324   0.509  -0.219  0.00  0.00    +0.132 A 
ATOM      9  C   UNL     1       0.454   1.857   0.055  0.00  0.00    +0.037 A 
ATOM     10  C   UNL     1       1.712   2.430   0.094  0.00  0.00    +0.050 A 
ATOM     11  C   UNL     1       2.834   1.657  -0.133  0.00  0.00    +0.141 A 
ATOM     12  C   UNL     1       2.717   0.288  -0.405  0.00  0.00    +0.076 A 
ATOM     13  N   UNL     1       3.895  -0.435  -0.601  0.00  0.00    -0.333 N 
ATOM     14  H   UNL     1       4.898   0.001  -0.480  0.00  0.00    +0.147 HD
ENDROOT
BRANCH   1  19
ATOM     15  C   UNL     1       3.533  -3.184  -4.522  0.00  0.00    +0.162 A 
ATOM     16  C   UNL     1       2.914  -2.129  -5.173  0.00  0.00    +0.049 A 
ATOM     17  C   UNL     1       2.568  -0.990  -4.471  0.00  0.00    +0.004 A 
ATOM     18  C   UNL     1       2.833  -0.902  -3.117  0.00  0.00    +0.009 A 
ATOM     19  C   UNL     1       3.455  -1.949  -2.462  0.00  0.00    +0.018 A 
ATOM     20  C   UNL     1       3.804  -3.093  -3.160  0.00  0.00    +0.163 A 
BRANCH  15  22
ATOM     21  C   UNL     1       3.563  -4.329  -6.606  0.00  0.00    +0.277 C 
ATOM     22  O   UNL     1       3.873  -4.306  -5.212  0.00  0.00    -0.491 OA
ENDBRANCH  15  22
BRANCH  20  23
ATOM     23  O   UNL     1       4.412  -4.126  -2.516  0.00  0.00    -0.503 OA
ATOM     24  H   UNL     1       4.626  -4.053  -1.440  0.00  0.00    +0.292 HD
ENDBRANCH  20  23
ENDBRANCH   1  19
BRANCH   8  25
ATOM     25  N   UNL     1      -1.022  -0.105  -0.261  0.00  0.00    +0.057 N 
ATOM     26  O   UNL     1      -1.352  -0.785  -1.216  0.00  0.00    -0.126 OA
ATOM     27  O   UNL     1      -1.800   0.070   0.660  0.00  0.00    -0.126 OA
ENDBRANCH   8  25
BRANCH  11  28
ATOM     28  O   UNL     1       4.066   2.231  -0.090  0.00  0.00    -0.493 OA
ATOM     29  C   UNL     1       4.120   3.631   0.192  0.00  0.00    +0.277 C 
ENDBRANCH  11  28
TORSDOF 5
