REMARK  Name = ZINC29787672
REMARK  12 active torsions:
REMARK  status: ('A' for Active; 'I' for Inactive)
REMARK    1  A    between atoms: C_1  and  C_2
REMARK    2  A    between atoms: C_2  and  C_3
REMARK    3  A    between atoms: C_4  and  C_23
REMARK    4  A    between atoms: C_5  and  C_22
REMARK    5  A    between atoms: C_6  and  C_9
REMARK    6  A    between atoms: N_11  and  C_12
REMARK    7  A    between atoms: C_14  and  C_20
REMARK    8  A    between atoms: C_14  and  C_21
REMARK    9  A    between atoms: C_16  and  C_18
REMARK   10  A    between atoms: C_16  and  C_19
REMARK   11  A    between atoms: C_23  and  O_25
REMARK   12  A    between atoms: O_25  and  C_26
REMARK                            x       y       z     vdW  Elec       q    Type
REMARK                         _______ _______ _______ _____ _____    ______ ____
ROOT
ATOM      1  C   UNL     1       0.721   4.182  -4.118  0.00  0.00    +0.261 C 
ATOM      2  O   UNL     1      -0.109   4.889  -3.577  0.00  0.00    -0.269 OA
ATOM      3  N   UNL     1       1.203   3.098  -3.478  0.00  0.00    -0.307 N 
ATOM      4  H   UNL     1       1.953   2.459  -3.967  0.00  0.00    +0.149 HD
ENDROOT
BRANCH   3   5
ATOM      5  C   UNL     1       0.727   2.770  -2.128  0.00  0.00    +0.071 C 
ATOM      6  C   UNL     1       1.795   1.952  -1.403  0.00  0.00    +0.009 C 
ATOM      7  C   UNL     1       1.318   1.579  -0.002  0.00  0.00    -0.072 C 
ATOM      8  N   UNL     1      -0.012   1.005   0.008  0.00  0.00    +0.386 N 
ATOM      9  C   UNL     1      -1.048   1.551  -0.843  0.00  0.00    -0.072 C 
ATOM     10  C   UNL     1      -0.543   1.927  -2.233  0.00  0.00    +0.009 C 
ATOM     11  C   UNL     1      -2.143   0.475  -1.020  0.00  0.00    -0.010 C 
ATOM     12  C   UNL     1      -1.713   2.771  -0.192  0.00  0.00    -0.010 C 
ATOM     13  C   UNL     1       1.397   2.808   0.911  0.00  0.00    -0.010 C 
ATOM     14  C   UNL     1       2.301   0.528   0.560  0.00  0.00    -0.010 C 
ATOM     15  H   UNL     1       0.043  -0.052  -0.291  0.00  0.00    -0.084 HD
ATOM     16  H   UNL     1      -0.435   1.079   1.020  0.00  0.00    -0.084 HD
ENDBRANCH   3   5
BRANCH   1  20
ATOM     17  C   UNL     1       2.315   4.390  -7.380  0.00  0.00    +0.031 A 
ATOM     18  C   UNL     1       1.499   5.505  -7.443  0.00  0.00    +0.083 A 
ATOM     19  C   UNL     1       0.792   5.572  -6.221  0.00  0.00    -0.006 A 
ATOM     20  C   UNL     1       1.196   4.510  -5.468  0.00  0.00    +0.106 A 
ATOM     21  N   UNL     1       2.132   3.800  -6.188  0.00  0.00    -0.353 N 
ATOM     22  H   UNL     1       2.698   2.892  -5.932  0.00  0.00    +0.166 HD
ATOM     23  C   UNL     1      -0.218   6.618  -5.825  0.00  0.00    +0.047 C 
BRANCH  17  25
ATOM     24  C   UNL     1       4.587   4.661  -8.336  0.00  0.00    +0.010 C 
ATOM     25  C   UNL     1       3.253   3.921  -8.462  0.00  0.00    +0.050 C 
ENDBRANCH  17  25
BRANCH  18  26
ATOM     26  C   UNL     1       1.389   6.446  -8.570  0.00  0.00    +0.341 C 
ATOM     27  O   UNL     1       2.113   7.421  -8.622  0.00  0.00    -0.245 OA
BRANCH  26  28
ATOM     28  O   UNL     1       0.485   6.226  -9.546  0.00  0.00    -0.464 OA
ATOM     29  C   UNL     1       0.432   7.195 -10.626  0.00  0.00    +0.280 C 
ENDBRANCH  26  28
ENDBRANCH  18  26
ENDBRANCH   1  20
TORSDOF 5
