REMARK  Name = ZINC40569448
REMARK  9 active torsions:
REMARK  status: ('A' for Active; 'I' for Inactive)
REMARK    1  A    between atoms: C_1  and  C_2
REMARK    2  A    between atoms: C_2  and  C_3
REMARK    3  A    between atoms: C_3  and  C_4
REMARK    4  A    between atoms: N_10  and  C_11
REMARK    5  A    between atoms: C_11  and  C_12
REMARK    6  A    between atoms: C_13  and  C_21
REMARK    7  A    between atoms: C_15  and  C_19
REMARK    8  A    between atoms: C_16  and  N_18
REMARK    9  A    between atoms: C_25  and  N_27
REMARK                            x       y       z     vdW  Elec       q    Type
REMARK                         _______ _______ _______ _____ _____    ______ ____
ROOT
ATOM      1  C   UNL     1      -1.346  -2.023   0.137  0.00  0.00    +0.025 A 
ATOM      2  C   UNL     1      -1.508  -2.591   1.351  0.00  0.00    +0.068 A 
ATOM      3  C   UNL     1      -1.596  -3.994   1.461  0.00  0.00    +0.141 A 
ATOM      4  C   UNL     1      -1.513  -4.761   0.318  0.00  0.00    +0.072 A 
ATOM      5  C   UNL     1      -1.344  -4.127  -0.920  0.00  0.00    +0.259 A 
ATOM      6  O   UNL     1      -1.269  -4.793  -1.941  0.00  0.00    -0.267 OA
ATOM      7  N   UNL     1      -1.271  -2.785  -0.986  0.00  0.00    -0.312 N 
ATOM      8  C   UNL     1      -1.603  -6.261   0.390  0.00  0.00    +0.103 C 
ATOM      9  C   UNL     1      -1.382  -6.725   1.802  0.00  0.00    +0.098 C 
ATOM     10  C   UNL     1      -1.470  -5.867   2.846  0.00  0.00    +0.199 C 
ATOM     11  O   UNL     1      -1.758  -4.565   2.674  0.00  0.00    -0.441 OA
ENDROOT
BRANCH   8  12
ATOM     12  C   UNL     1      -2.968  -6.702  -0.071  0.00  0.00    -0.032 A 
ATOM     13  C   UNL     1      -4.098  -6.261   0.594  0.00  0.00    +0.005 A 
ATOM     14  C   UNL     1      -5.350  -6.665   0.172  0.00  0.00    +0.003 A 
ATOM     15  C   UNL     1      -5.474  -7.510  -0.915  0.00  0.00    +0.033 A 
ATOM     16  C   UNL     1      -4.345  -7.950  -1.580  0.00  0.00    +0.126 A 
ATOM     17  C   UNL     1      -3.092  -7.542  -1.161  0.00  0.00    +0.037 A 
BRANCH  16  18
ATOM     18  N   UNL     1      -4.477  -8.856  -2.744  0.00  0.00    +0.056 N 
ATOM     19  O   UNL     1      -5.572  -9.210  -3.113  0.00  0.00    -0.126 OA
ATOM     20  O   UNL     1      -3.489  -9.240  -3.326  0.00  0.00    -0.126 OA
ENDBRANCH  16  18
ENDBRANCH   8  12
BRANCH  10  21
ATOM     21  N   UNL     1      -1.260  -6.341   4.117  0.00  0.00    -0.328 N 
ATOM     22  H   UNL     1      -1.052  -7.278   4.257  0.00  0.00    +0.145 HD
ATOM     23  H   UNL     1      -1.320  -5.739   4.875  0.00  0.00    +0.145 HD
ENDBRANCH  10  21
BRANCH   7  24
ATOM     24  C   UNL     1      -1.100  -2.135  -2.288  0.00  0.00    +0.122 C 
ATOM     25  C   UNL     1       0.392  -2.003  -2.600  0.00  0.00    +0.027 C 
ENDBRANCH   7  24
BRANCH   9  26
ATOM     26  C   UNL     1      -1.073  -8.102   2.049  0.00  0.00    +0.101 C 
ATOM     27  N   UNL     1      -0.827  -9.194   2.244  0.00  0.00    -0.191 NA
ENDBRANCH   9  26
BRANCH   1  28
ATOM     28  C   UNL     1      -1.254  -0.523   0.024  0.00  0.00    +0.053 C 
BRANCH  28  30
ATOM     29  C   UNL     1      -2.571   1.586  -0.221  0.00  0.00    +0.004 C 
ATOM     30  C   UNL     1      -2.650   0.058  -0.209  0.00  0.00    +0.003 C 
ENDBRANCH  28  30
ENDBRANCH   1  28
TORSDOF 7
