REMARK  Name = ZINC52924679
REMARK  4 active torsions:
REMARK  status: ('A' for Active; 'I' for Inactive)
REMARK    1  A    between atoms: C_1  and  C_2
REMARK    2  A    between atoms: C_2  and  C_4
REMARK    3  A    between atoms: C_2  and  O_19
REMARK    4  A    between atoms: C_7  and  C_9
REMARK                            x       y       z     vdW  Elec       q    Type
REMARK                         _______ _______ _______ _____ _____    ______ ____
ROOT
ATOM      1  C   UNL     1      -4.516  -1.515  -1.578  0.00  0.00    +0.021 A 
ATOM      2  C   UNL     1      -5.156  -2.747  -1.464  0.00  0.00    +0.012 A 
ATOM      3  C   UNL     1      -6.209  -3.049  -2.302  0.00  0.00    +0.001 A 
ATOM      4  C   UNL     1      -6.621  -2.132  -3.248  0.00  0.00    +0.004 A 
ATOM      5  C   UNL     1      -5.988  -0.900  -3.370  0.00  0.00    -0.044 A 
ATOM      6  C   UNL     1      -4.944  -0.583  -2.535  0.00  0.00    -0.034 A 
ATOM      7  C   UNL     1      -4.228   0.740  -2.596  0.00  0.00    +0.036 C 
ATOM      8  C   UNL     1      -4.507   1.442  -3.923  0.00  0.00    +0.005 C 
ATOM      9  C   UNL     1      -6.024   1.472  -4.144  0.00  0.00    +0.005 C 
ATOM     10  C   UNL     1      -6.491   0.043  -4.432  0.00  0.00    +0.035 C 
ENDROOT
BRANCH   1  14
ATOM     11  C   UNL     1      -1.412  -0.526   0.013  0.00  0.00    +0.134 A 
ATOM     12  C   UNL     1      -2.107  -0.888   1.108  0.00  0.00    +0.048 A 
ATOM     13  C   UNL     1      -3.377  -1.313   0.669  0.00  0.00    +0.050 A 
ATOM     14  C   UNL     1      -3.387  -1.185  -0.684  0.00  0.00    +0.136 A 
ATOM     15  O   UNL     1      -2.190  -0.701  -1.068  0.00  0.00    -0.457 OA
BRANCH  11  17
ATOM     16  C   UNL     1      -0.019   1.526   0.010  0.00  0.00    +0.046 C 
ATOM     17  C   UNL     1       0.002  -0.004   0.002  0.00  0.00    +0.177 C 
BRANCH  17  18
ATOM     18  O   UNL     1       0.671  -0.465  -1.174  0.00  0.00    -0.384 OA
ATOM     19  H   UNL     1       1.588  -0.167  -1.247  0.00  0.00    +0.210 HD
ENDBRANCH  17  18
ENDBRANCH  11  17
ENDBRANCH   1  14
TORSDOF 3
