REMARK  Name = ZINC64025694
REMARK  4 active torsions:
REMARK  status: ('A' for Active; 'I' for Inactive)
REMARK    1  A    between atoms: C_3  and  C_6
REMARK    2  A    between atoms: C_9  and  C_11
REMARK    3  A    between atoms: N_13  and  N_14
REMARK    4  A    between atoms: C_15  and  C_17
REMARK                            x       y       z     vdW  Elec       q    Type
REMARK                         _______ _______ _______ _____ _____    ______ ____
ROOT
ATOM      1  C   UNL     1       7.073  -0.690  -0.077  0.00  0.00    +0.276 C 
ATOM      2  O   UNL     1       7.112  -1.906  -0.091  0.00  0.00    -0.267 OA
ATOM      3  N   UNL     1       8.218   0.022  -0.081  0.00  0.00    -0.229 N 
ATOM      4  H   UNL     1       8.187   0.991  -0.070  0.00  0.00    +0.173 HD
ENDROOT
BRANCH   1   8
ATOM      5  C   UNL     1       3.507   0.603  -0.029  0.00  0.00    +0.112 C 
ATOM      6  N   UNL     1       4.341   1.626  -0.026  0.00  0.00    -0.150 NA
ATOM      7  N   UNL     1       5.572   1.293  -0.041  0.00  0.00    -0.148 NA
ATOM      8  C   UNL     1       5.784   0.001  -0.057  0.00  0.00    +0.132 C 
ATOM      9  C   UNL     1       4.400  -0.627  -0.044  0.00  0.00    +0.123 C 
BRANCH   5  12
ATOM     10  C   UNL     1      -0.016   1.350   0.009  0.00  0.00    +0.042 A 
ATOM     11  C   UNL     1       1.315   1.784  -0.001  0.00  0.00    +0.051 A 
ATOM     12  C   UNL     1       2.100   0.642  -0.015  0.00  0.00    +0.151 A 
ATOM     13  O   UNL     1       1.273  -0.425  -0.012  0.00  0.00    -0.462 OA
ATOM     14  C   UNL     1       0.002  -0.004   0.002  0.00  0.00    +0.196 A 
ENDBRANCH   5  12
ENDBRANCH   1   8
BRANCH   3  15
ATOM     15  N   UNL     1       9.453  -0.639  -0.100  0.00  0.00    -0.233 N 
ATOM     16  C   UNL     1      10.598   0.072  -0.104  0.00  0.00    +0.243 C 
ATOM     17  O   UNL     1      10.559   1.284  -0.090  0.00  0.00    -0.273 OA
ATOM     18  H   UNL     1       9.484  -1.609  -0.111  0.00  0.00    +0.173 HD
BRANCH  16  19
ATOM     19  C   UNL     1      11.927  -0.639  -0.125  0.00  0.00    +0.142 C 
ATOM     20  C   UNL     1      13.035   0.246  -0.744  0.00  0.00    +0.055 C 
ATOM     21  C   UNL     1      13.787   1.020   0.315  0.00  0.00    -0.059 C 
ATOM     22  C   UNL     1      13.680   0.610   1.556  0.00  0.00    -0.014 C 
ATOM     23  S   UNL     1      12.624  -0.820   1.572  0.00  0.00    -0.116 S 
ATOM     24  C   UNL     1      14.311   1.259   2.772  0.00  0.00    +0.042 C 
ATOM     25  C   UNL     1      15.829   1.050   2.673  0.00  0.00    +0.005 C 
ATOM     26  C   UNL     1      16.438   2.050   1.716  0.00  0.00    +0.001 C 
ATOM     27  C   UNL     1      16.120   1.840   0.256  0.00  0.00    +0.004 C 
ATOM     28  C   UNL     1      14.674   2.210  -0.072  0.00  0.00    +0.031 C 
ENDBRANCH  16  19
ENDBRANCH   3  15
TORSDOF 4
