REMARK  Name = ZINC40011893
REMARK  6 active torsions:
REMARK  status: ('A' for Active; 'I' for Inactive)
REMARK    1  A    between atoms: C_1  and  C_2
REMARK    2  A    between atoms: C_13  and  C_15
REMARK    3  A    between atoms: C_18  and  C_20
REMARK    4  A    between atoms: C_20  and  N_21
REMARK    5  A    between atoms: N_21  and  C_22
REMARK    6  A    between atoms: N_21  and  C_23
REMARK                            x       y       z     vdW  Elec       q    Type
REMARK                         _______ _______ _______ _____ _____    ______ ____
ROOT
ATOM      1  C   UNL     1       3.275   3.237   2.882  0.00  0.00    +0.055 C 
ATOM      2  C   UNL     1       2.881   2.302   1.736  0.00  0.00    +0.207 C 
ATOM      3  N   UNL     1       4.013   2.122   0.825  0.00  0.00    -0.258 NA
ATOM      4  C   UNL     1       4.336   0.861   0.792  0.00  0.00    +0.083 C 
ATOM      5  C   UNL     1       5.390   0.143   0.046  0.00  0.00    +0.031 C 
ATOM      6  C   UNL     1       5.513  -1.187   0.194  0.00  0.00    +0.025 C 
ATOM      7  C   UNL     1       4.609  -1.922   1.086  0.00  0.00    +0.036 C 
ATOM      8  C   UNL     1       3.599  -1.251   1.805  0.00  0.00    +0.050 C 
ATOM      9  C   UNL     1       3.441   0.092   1.684  0.00  0.00    +0.077 C 
ATOM     10  N   UNL     1       2.547   0.973   2.264  0.00  0.00    -0.222 NA
ATOM     11  N   UNL     1       4.746  -3.239   1.219  0.00  0.00    -0.279 N 
ATOM     12  C   UNL     1       5.624  -3.903   0.452  0.00  0.00    +0.284 C 
ATOM     13  O   UNL     1       5.555  -3.823  -0.763  0.00  0.00    -0.266 OA
ATOM     14  H   UNL     1       4.211  -3.719   1.870  0.00  0.00    +0.155 HD
ENDROOT
BRANCH  12  15
ATOM     15  C   UNL     1       6.668  -4.727   1.076  0.00  0.00    +0.190 A 
ATOM     16  C   UNL     1       7.624  -5.447   0.416  0.00  0.00    +0.055 A 
ATOM     17  C   UNL     1       8.405  -6.077   1.398  0.00  0.00    +0.043 A 
ATOM     18  C   UNL     1       7.898  -5.718   2.599  0.00  0.00    +0.090 A 
ATOM     19  O   UNL     1       6.856  -4.900   2.400  0.00  0.00    -0.457 OA
BRANCH  18  20
ATOM     20  C   UNL     1       8.423  -6.161   3.940  0.00  0.00    -0.004 C 
BRANCH  20  21
ATOM     21  N   UNL     1       9.440  -5.209   4.406  0.00  0.00    +0.381 N 
ATOM     22  C   UNL     1       8.815  -3.902   4.646  0.00  0.00    -0.096 C 
ATOM     23  C   UNL     1      10.037  -5.703   5.654  0.00  0.00    -0.096 C 
ATOM     24  H   UNL     1      10.159  -5.115   3.704  0.00  0.00    -0.082 HD
ENDBRANCH  20  21
ENDBRANCH  18  20
ENDBRANCH  12  15
TORSDOF 3
