REMARK  Name = ZINC36908329
REMARK  6 active torsions:
REMARK  status: ('A' for Active; 'I' for Inactive)
REMARK    1  A    between atoms: C_1  and  C_2
REMARK    2  A    between atoms: C_5  and  N_13
REMARK    3  A    between atoms: C_7  and  C_12
REMARK    4  A    between atoms: N_10  and  C_11
REMARK    5  A    between atoms: N_13  and  C_14
REMARK    6  A    between atoms: C_18  and  C_20
REMARK                            x       y       z     vdW  Elec       q    Type
REMARK                         _______ _______ _______ _____ _____    ______ ____
ROOT
ATOM      1  N   UNL     1      -2.777  -2.578   0.086  0.00  0.00    -0.341 N 
ATOM      2  H   UNL     1      -3.153  -2.820   0.947  0.00  0.00    +0.146 HD
ENDROOT
BRANCH   1   6
ATOM      3  C   UNL     1      -0.019   1.526   0.010  0.00  0.00    -0.013 C 
ATOM      4  C   UNL     1       0.002  -0.004   0.002  0.00  0.00    -0.070 C 
ATOM      5  C   UNL     1      -1.434  -0.533   0.011  0.00  0.00    +0.007 C 
ATOM      6  C   UNL     1      -1.408  -2.064   0.003  0.00  0.00    +0.070 C 
ATOM      7  C   UNL     1      -0.600  -2.558   1.206  0.00  0.00    -0.011 C 
ATOM      8  C   UNL     1       0.805  -1.954   1.152  0.00  0.00    -0.074 C 
ATOM      9  N   UNL     1       0.713  -0.490   1.191  0.00  0.00    +0.380 N 
ATOM     10  C   UNL     1       2.066   0.083   1.218  0.00  0.00    -0.096 C 
ATOM     11  C   UNL     1      -1.293  -2.127   2.499  0.00  0.00    +0.007 C 
ATOM     12  H   UNL     1       0.213  -0.206   2.020  0.00  0.00    -0.082 HD
ENDBRANCH   1   6
BRANCH   1  13
ATOM     13  C   UNL     1      -3.543  -2.718  -1.074  0.00  0.00    +0.028 A 
ATOM     14  C   UNL     1      -3.003  -2.376  -2.309  0.00  0.00    +0.023 A 
ATOM     15  C   UNL     1      -3.756  -2.513  -3.459  0.00  0.00    +0.003 A 
ATOM     16  C   UNL     1      -5.049  -2.991  -3.390  0.00  0.00    +0.013 A 
ATOM     17  C   UNL     1      -5.601  -3.337  -2.155  0.00  0.00    +0.040 A 
ATOM     18  C   UNL     1      -4.839  -3.204  -0.995  0.00  0.00    +0.036 A 
BRANCH  17  19
ATOM     19  C   UNL     1      -6.986  -3.849  -2.079  0.00  0.00    +0.248 A 
ATOM     20  N   UNL     1      -7.625  -4.204  -0.989  0.00  0.00    -0.108 NA
ATOM     21  N   UNL     1      -8.809  -4.598  -1.302  0.00  0.00    -0.116 NA
ATOM     22  C   UNL     1      -8.971  -4.511  -2.593  0.00  0.00    +0.332 A 
ATOM     23  O   UNL     1      -7.829  -4.033  -3.115  0.00  0.00    -0.423 OA
ENDBRANCH  17  19
ENDBRANCH   1  13
TORSDOF 3
