REMARK  Name = ZINC38592531
REMARK  8 active torsions:
REMARK  status: ('A' for Active; 'I' for Inactive)
REMARK    1  A    between atoms: C_1  and  O_2
REMARK    2  A    between atoms: O_2  and  C_3
REMARK    3  A    between atoms: C_5  and  N_13
REMARK    4  A    between atoms: C_7  and  O_11
REMARK    5  A    between atoms: C_8  and  O_9
REMARK    6  A    between atoms: O_9  and  C_10
REMARK    7  A    between atoms: O_11  and  C_12
REMARK    8  A    between atoms: C_17  and  C_18
REMARK                            x       y       z     vdW  Elec       q    Type
REMARK                         _______ _______ _______ _____ _____    ______ ____
ROOT
ATOM      1  N   UNL     1       2.136   0.281   4.298  0.00  0.00    -0.216 N 
ATOM      2  C   UNL     1       2.728  -0.336   5.343  0.00  0.00    +0.261 C 
ATOM      3  O   UNL     1       2.641  -1.540   5.496  0.00  0.00    -0.269 OA
ATOM      4  C   UNL     1       3.491   0.505   6.297  0.00  0.00    +0.101 C 
ATOM      5  C   UNL     1       4.116  -0.029   7.370  0.00  0.00    +0.037 C 
ATOM      6  C   UNL     1       3.536   1.958   6.019  0.00  0.00    +0.274 C 
ATOM      7  O   UNL     1       4.207   2.797   6.835  0.00  0.00    -0.268 OA
ATOM      8  N   UNL     1       2.904   2.411   4.955  0.00  0.00    -0.153 NA
ATOM      9  C   UNL     1       2.238   1.607   4.128  0.00  0.00    +0.171 C 
ATOM     10  S   UNL     1       1.462   2.308   2.772  0.00  0.00    -0.016 S 
ENDROOT
BRANCH   5  11
ATOM     11  C   UNL     1       4.231  -1.526   7.507  0.00  0.00    +0.199 C 
ATOM     12  N   UNL     1       3.454  -1.988   8.664  0.00  0.00    -0.360 N 
ATOM     13  C   UNL     1       4.284  -2.557   9.490  0.00  0.00    +0.060 A 
ATOM     14  C   UNL     1       4.107  -3.201  10.799  0.00  0.00    +0.027 A 
ATOM     15  C   UNL     1       5.177  -3.715  11.437  0.00  0.00    +0.002 A 
ATOM     16  C   UNL     1       6.476  -3.664  10.901  0.00  0.00    +0.002 A 
ATOM     17  C   UNL     1       6.749  -3.096   9.709  0.00  0.00    +0.027 A 
ATOM     18  C   UNL     1       5.659  -2.503   8.922  0.00  0.00    +0.060 A 
ATOM     19  N   UNL     1       5.626  -1.902   7.768  0.00  0.00    -0.360 N 
ATOM     20  H   UNL     1       2.498  -1.887   8.791  0.00  0.00    +0.162 HD
ATOM     21  H   UNL     1       6.384  -1.734   7.186  0.00  0.00    +0.162 HD
ENDBRANCH   5  11
BRANCH   1  24
ATOM     22  C   UNL     1       1.319  -1.758   1.341  0.00  0.00    +0.167 A 
ATOM     23  C   UNL     1       2.039  -1.007   2.256  0.00  0.00    +0.073 A 
ATOM     24  C   UNL     1       1.406  -0.478   3.373  0.00  0.00    +0.050 A 
ATOM     25  C   UNL     1       0.051  -0.702   3.573  0.00  0.00    +0.073 A 
ATOM     26  C   UNL     1      -0.671  -1.453   2.659  0.00  0.00    +0.167 A 
ATOM     27  C   UNL     1      -0.039  -1.978   1.538  0.00  0.00    +0.204 A 
BRANCH  22  29
ATOM     28  C   UNL     1       3.337  -2.011   0.108  0.00  0.00    +0.277 C 
ATOM     29  O   UNL     1       1.940  -2.276   0.247  0.00  0.00    -0.491 OA
ENDBRANCH  22  29
BRANCH  27  30
ATOM     30  O   UNL     1      -0.749  -2.711   0.637  0.00  0.00    -0.488 OA
ATOM     31  C   UNL     1      -0.821  -4.120   0.860  0.00  0.00    +0.277 C 
ENDBRANCH  27  30
BRANCH  26  32
ATOM     32  O   UNL     1      -1.999  -1.671   2.857  0.00  0.00    -0.491 OA
ATOM     33  C   UNL     1      -2.584  -1.097   4.027  0.00  0.00    +0.277 C 
ENDBRANCH  26  32
ENDBRANCH   1  24
TORSDOF 5
