REMARK  Name = ZINC28582009
REMARK  9 active torsions:
REMARK  status: ('A' for Active; 'I' for Inactive)
REMARK    1  A    between atoms: C_1  and  C_2
REMARK    2  A    between atoms: C_7  and  C_9
REMARK    3  A    between atoms: C_7  and  C_10
REMARK    4  A    between atoms: N_13  and  C_17
REMARK    5  A    between atoms: C_17  and  C_18
REMARK    6  A    between atoms: N_20  and  C_21
REMARK    7  A    between atoms: C_21  and  C_22
REMARK    8  A    between atoms: C_22  and  N_23
REMARK    9  A    between atoms: C_27  and  C_28
REMARK                            x       y       z     vdW  Elec       q    Type
REMARK                         _______ _______ _______ _____ _____    ______ ____
ROOT
ATOM      1  C   UNL     1      -6.264  -5.009  -3.054  0.00  0.00    +0.231 C 
ATOM      2  O   UNL     1      -5.615  -4.136  -3.589  0.00  0.00    -0.274 OA
ATOM      3  N   UNL     1      -7.580  -5.128  -3.318  0.00  0.00    -0.312 N 
ATOM      4  H   UNL     1      -8.100  -5.827  -2.891  0.00  0.00    +0.149 HD
ENDROOT
BRANCH   1   5
ATOM      5  C   UNL     1      -5.599  -5.961  -2.093  0.00  0.00    +0.213 C 
BRANCH   5  17
ATOM      6  C   UNL     1       0.216  -1.919  -2.380  0.00  0.00    +0.007 C 
ATOM      7  C   UNL     1      -0.235  -3.332  -2.005  0.00  0.00    -0.011 C 
ATOM      8  C   UNL     1      -1.739  -3.329  -1.719  0.00  0.00    +0.038 C 
ATOM      9  C   UNL     1      -2.186  -4.732  -1.325  0.00  0.00    +0.113 C 
ATOM     10  C   UNL     1      -1.427  -5.213  -0.093  0.00  0.00    +0.041 C 
ATOM     11  C   UNL     1       0.076  -5.210  -0.384  0.00  0.00    -0.032 C 
ATOM     12  C   UNL     1       0.519  -3.793  -0.755  0.00  0.00    +0.009 C 
ATOM     13  C   UNL     1       0.838  -5.673   0.860  0.00  0.00    +0.011 C 
ATOM     14  C   UNL     1       0.373  -6.158  -1.547  0.00  0.00    +0.011 C 
ATOM     15  C   UNL     1      -3.675  -4.760  -1.071  0.00  0.00    +0.247 C 
ATOM     16  O   UNL     1      -4.289  -4.137  -0.232  0.00  0.00    -0.273 OA
ATOM     17  N   UNL     1      -4.178  -5.625  -1.977  0.00  0.00    -0.215 N 
ATOM     18  C   UNL     1      -3.218  -6.138  -2.755  0.00  0.00    +0.310 C 
ATOM     19  O   UNL     1      -3.425  -6.939  -3.645  0.00  0.00    -0.252 OA
ATOM     20  N   UNL     1      -1.996  -5.665  -2.442  0.00  0.00    -0.285 N 
ATOM     21  H   UNL     1      -1.157  -5.896  -2.870  0.00  0.00    +0.151 HD
ENDBRANCH   5  17
ENDBRANCH   1   5
BRANCH   3  22
ATOM     22  C   UNL     1      -8.226  -4.203  -4.253  0.00  0.00    +0.123 C 
BRANCH  22  23
ATOM     23  C   UNL     1      -9.710  -4.554  -4.374  0.00  0.00    +0.136 C 
BRANCH  23  24
ATOM     24  N   UNL     1     -10.357  -3.629  -5.308  0.00  0.00    -0.227 N 
ATOM     25  C   UNL     1     -10.877  -2.504  -4.846  0.00  0.00    +0.260 C 
ATOM     26  O   UNL     1     -10.835  -2.217  -3.665  0.00  0.00    -0.269 OA
ATOM     27  C   UNL     1     -11.515  -1.614  -5.840  0.00  0.00    +0.080 C 
ATOM     28  C   UNL     1     -12.122  -0.415  -5.663  0.00  0.00    +0.028 C 
ATOM     29  S   UNL     1     -11.264  -2.554  -7.340  0.00  0.00    -0.026 S 
ATOM     30  C   UNL     1     -10.401  -3.941  -6.619  0.00  0.00    +0.286 C 
ATOM     31  O   UNL     1      -9.962  -4.929  -7.176  0.00  0.00    -0.262 OA
BRANCH  28  32
ATOM     32  C   UNL     1     -12.843   0.216  -6.778  0.00  0.00    -0.024 A 
ATOM     33  C   UNL     1     -13.059  -0.491  -7.966  0.00  0.00    +0.008 A 
ATOM     34  C   UNL     1     -13.736   0.108  -9.006  0.00  0.00    +0.001 A 
ATOM     35  C   UNL     1     -14.202   1.405  -8.878  0.00  0.00    +0.000 A 
ATOM     36  C   UNL     1     -13.993   2.111  -7.706  0.00  0.00    +0.001 A 
ATOM     37  C   UNL     1     -13.322   1.525  -6.654  0.00  0.00    +0.008 A 
ENDBRANCH  28  32
ENDBRANCH  23  24
ENDBRANCH  22  23
ENDBRANCH   3  22
TORSDOF 6
