REMARK  Name = ZINC36266302
REMARK  5 active torsions:
REMARK  status: ('A' for Active; 'I' for Inactive)
REMARK    1  A    between atoms: C_1  and  C_2
REMARK    2  A    between atoms: N_12  and  S_13
REMARK    3  A    between atoms: S_13  and  N_16
REMARK    4  A    between atoms: N_16  and  C_17
REMARK    5  A    between atoms: N_16  and  C_18
REMARK                            x       y       z     vdW  Elec       q    Type
REMARK                         _______ _______ _______ _____ _____    ______ ____
ROOT
ATOM      1  C   UNL     1       0.376  -2.829   2.648  0.00  0.00    +0.026 C 
ATOM      2  C   UNL     1      -0.368  -1.567   2.210  0.00  0.00    +0.078 C 
ATOM      3  C   UNL     1      -1.450  -1.927   1.138  0.00  0.00    +0.023 C 
ATOM      4  C   UNL     1      -0.701  -1.605  -0.114  0.00  0.00    -0.010 C 
ATOM      5  C   UNL     1      -1.193  -1.241  -1.474  0.00  0.00    -0.078 C 
ATOM      6  N   UNL     1      -0.005  -0.535  -2.061  0.00  0.00    +0.380 N 
ATOM      7  C   UNL     1       0.816  -0.006  -0.932  0.00  0.00    -0.062 C 
ATOM      8  C   UNL     1      -0.061  -0.218   0.305  0.00  0.00    +0.066 C 
ATOM      9  N   UNL     1       0.577  -0.617   1.557  0.00  0.00    -0.162 NA
ATOM     10  H   UNL     1       0.543  -1.184  -2.607  0.00  0.00    -0.086 HD
ATOM     11  H   UNL     1      -0.314   0.227  -2.645  0.00  0.00    -0.086 HD
ENDROOT
BRANCH   9  12
ATOM     12  S   UNL     1       2.047  -0.118   2.132  0.00  0.00    +0.100 S 
ATOM     13  O   UNL     1       2.577  -1.201   2.885  0.00  0.00    -0.141 OA
ATOM     14  O   UNL     1       2.740   0.456   1.033  0.00  0.00    -0.141 OA
BRANCH  12  15
ATOM     15  N   UNL     1       1.762   1.110   3.206  0.00  0.00    -0.166 NA
ATOM     16  C   UNL     1       1.673   0.823   4.640  0.00  0.00    +0.133 C 
BRANCH  15  17
ATOM     17  C   UNL     1       1.598   2.483   2.722  0.00  0.00    +0.081 C 
ATOM     18  C   UNL     1       2.684   3.372   3.331  0.00  0.00    +0.020 C 
ATOM     19  C   UNL     1       2.513   4.805   2.825  0.00  0.00    +0.002 C 
ATOM     20  C   UNL     1       1.135   5.330   3.235  0.00  0.00    +0.000 C 
ATOM     21  C   UNL     1       0.049   4.441   2.626  0.00  0.00    +0.002 C 
ATOM     22  C   UNL     1       0.220   3.007   3.132  0.00  0.00    +0.020 C 
ENDBRANCH  15  17
ENDBRANCH  12  15
ENDBRANCH   9  12
TORSDOF 3
