REMARK  Name = ZINC38806050
REMARK  10 active torsions:
REMARK  status: ('A' for Active; 'I' for Inactive)
REMARK    1  A    between atoms: C_1  and  C_2
REMARK    2  A    between atoms: C_2  and  C_32
REMARK    3  A    between atoms: C_5  and  C_28
REMARK    4  A    between atoms: C_6  and  N_13
REMARK    5  A    between atoms: C_9  and  C_11
REMARK    6  A    between atoms: C_9  and  C_12
REMARK    7  A    between atoms: C_14  and  C_16
REMARK    8  A    between atoms: C_16  and  N_17
REMARK    9  A    between atoms: C_28  and  O_30
REMARK   10  A    between atoms: O_30  and  C_31
REMARK                            x       y       z     vdW  Elec       q    Type
REMARK                         _______ _______ _______ _____ _____    ______ ____
ROOT
ATOM      1  C   UNL     1      -0.019   1.526   0.010  0.00  0.00    -0.010 C 
ATOM      2  C   UNL     1       0.002  -0.004   0.002  0.00  0.00    -0.069 C 
ATOM      3  C   UNL     1      -1.434  -0.533  -0.096  0.00  0.00    +0.024 C 
ATOM      4  C   UNL     1      -2.142  -0.137   1.190  0.00  0.00    -0.024 A 
ATOM      5  C   UNL     1      -3.547   0.164   1.354  0.00  0.00    +0.091 A 
ATOM      6  C   UNL     1      -3.972   0.509   2.631  0.00  0.00    +0.086 A 
ATOM      7  S   UNL     1      -2.577   0.437   3.563  0.00  0.00    -0.079 S 
ATOM      8  C   UNL     1      -1.412  -0.053   2.327  0.00  0.00    -0.016 A 
ATOM      9  C   UNL     1       0.048  -0.332   2.463  0.00  0.00    -0.041 C 
ATOM     10  N   UNL     1       0.700  -0.526   1.169  0.00  0.00    +0.389 N 
ATOM     11  C   UNL     1       0.719   0.818   3.227  0.00  0.00    -0.005 C 
ATOM     12  C   UNL     1       0.218  -1.616   3.298  0.00  0.00    -0.005 C 
ATOM     13  C   UNL     1       0.759  -0.459  -1.260  0.00  0.00    -0.010 C 
ATOM     14  H   UNL     1       0.856  -1.527   1.032  0.00  0.00    -0.084 HD
ATOM     15  H   UNL     1       1.630  -0.105   1.207  0.00  0.00    -0.084 HD
ENDROOT
BRANCH   6  16
ATOM     16  N   UNL     1      -5.255   0.838   3.040  0.00  0.00    -0.278 N 
ATOM     17  C   UNL     1      -5.492   1.150   4.330  0.00  0.00    +0.235 C 
ATOM     18  O   UNL     1      -4.582   1.143   5.132  0.00  0.00    -0.274 OA
ATOM     19  H   UNL     1      -5.982   0.843   2.399  0.00  0.00    +0.155 HD
BRANCH  17  20
ATOM     20  C   UNL     1      -6.886   1.508   4.775  0.00  0.00    +0.213 C 
BRANCH  20  21
ATOM     21  N   UNL     1      -6.880   1.804   6.210  0.00  0.00    -0.225 N 
ATOM     22  C   UNL     1      -7.075   0.889   7.176  0.00  0.00    +0.254 C 
ATOM     23  O   UNL     1      -7.280  -0.295   7.001  0.00  0.00    -0.270 OA
ATOM     24  C   UNL     1      -6.996   1.566   8.488  0.00  0.00    +0.049 A 
ATOM     25  C   UNL     1      -7.113   1.145   9.803  0.00  0.00    +0.014 A 
ATOM     26  C   UNL     1      -6.983   2.063  10.833  0.00  0.00    +0.001 A 
ATOM     27  C   UNL     1      -6.736   3.395  10.557  0.00  0.00    +0.001 A 
ATOM     28  C   UNL     1      -6.617   3.831   9.247  0.00  0.00    +0.014 A 
ATOM     29  C   UNL     1      -6.745   2.924   8.207  0.00  0.00    +0.049 A 
ATOM     30  C   UNL     1      -6.674   3.025   6.734  0.00  0.00    +0.254 C 
ATOM     31  O   UNL     1      -6.467   4.042   6.103  0.00  0.00    -0.270 OA
ENDBRANCH  20  21
ENDBRANCH  17  20
ENDBRANCH   6  16
BRANCH   5  32
ATOM     32  C   UNL     1      -4.489   0.107   0.234  0.00  0.00    +0.342 C 
ATOM     33  O   UNL     1      -5.072  -0.930  -0.019  0.00  0.00    -0.245 OA
BRANCH  32  34
ATOM     34  O   UNL     1      -4.709   1.206  -0.518  0.00  0.00    -0.464 OA
ATOM     35  C   UNL     1      -5.641   1.079  -1.595  0.00  0.00    +0.280 C 
ENDBRANCH  32  34
ENDBRANCH   5  32
TORSDOF 5
