REMARK  Name = ZINC26360665
REMARK  8 active torsions:
REMARK  status: ('A' for Active; 'I' for Inactive)
REMARK    1  A    between atoms: C_1  and  C_2
REMARK    2  A    between atoms: C_5  and  N_29
REMARK    3  A    between atoms: C_7  and  N_8
REMARK    4  A    between atoms: C_9  and  C_11
REMARK    5  A    between atoms: C_11  and  C_13
REMARK    6  A    between atoms: C_11  and  N_14
REMARK    7  A    between atoms: N_17  and  S_20
REMARK    8  A    between atoms: S_20  and  C_23
REMARK                            x       y       z     vdW  Elec       q    Type
REMARK                         _______ _______ _______ _____ _____    ______ ____
ROOT
ATOM      1  C   UNL     1       3.856  -0.330  -5.783  0.00  0.00    +0.017 C 
ATOM      2  C   UNL     1       4.878   0.666  -6.336  0.00  0.00    -0.004 C 
ENDROOT
BRANCH   1   3
ATOM      3  N   UNL     1       4.149  -0.599  -4.369  0.00  0.00    +0.389 N 
ATOM      4  C   UNL     1       5.574  -0.898  -4.175  0.00  0.00    -0.060 C 
ATOM      5  C   UNL     1       5.804  -1.348  -2.728  0.00  0.00    +0.091 C 
ATOM      6  N   UNL     1       5.256  -0.323  -1.827  0.00  0.00    -0.180 NA
ATOM      7  C   UNL     1       3.872   0.125  -2.043  0.00  0.00    +0.091 C 
ATOM      8  C   UNL     1       3.719   0.521  -3.520  0.00  0.00    -0.060 C 
ATOM      9  H   UNL     1       3.576  -1.487  -4.067  0.00  0.00    -0.081 HD
BRANCH   6  10
ATOM     10  S   UNL     1       6.170   0.304  -0.597  0.00  0.00    +0.067 S 
ATOM     11  O   UNL     1       7.163  -0.665  -0.293  0.00  0.00    -0.152 OA
ATOM     12  O   UNL     1       5.258   0.792   0.378  0.00  0.00    -0.152 OA
BRANCH  10  13
ATOM     13  C   UNL     1       7.016   1.709  -1.241  0.00  0.00    +0.144 A 
ATOM     14  C   UNL     1       6.621   3.005  -1.269  0.00  0.00    +0.038 A 
ATOM     15  C   UNL     1       7.459   3.949  -1.833  0.00  0.00    +0.030 A 
ATOM     16  C   UNL     1       8.652   3.550  -2.341  0.00  0.00    +0.080 A 
ATOM     17  S   UNL     1       8.617   1.793  -2.027  0.00  0.00    -0.057 S 
ATOM     18 CL   UNL     1       9.888   4.500  -3.104  0.00  0.00    -0.076 Cl
ENDBRANCH  10  13
ENDBRANCH   6  10
ENDBRANCH   1   3
BRANCH   1  20
ATOM     19  N   UNL     1       3.436  -1.674  -7.817  0.00  0.00    -0.287 N 
ATOM     20  C   UNL     1       3.933  -1.615  -6.566  0.00  0.00    +0.203 C 
ATOM     21  O   UNL     1       4.443  -2.597  -6.069  0.00  0.00    -0.277 OA
ATOM     22  H   UNL     1       3.037  -0.766  -8.293  0.00  0.00    +0.155 HD
BRANCH  19  29
ATOM     23  C   UNL     1       1.420  -2.086  -9.782  0.00  0.00    +0.045 C 
ATOM     24  C   UNL     1       2.461  -3.132  -9.478  0.00  0.00    -0.029 A 
ATOM     25  C   UNL     1       2.456  -4.332 -10.161  0.00  0.00    +0.007 A 
ATOM     26  C   UNL     1       3.412  -5.292  -9.883  0.00  0.00    +0.033 A 
ATOM     27  C   UNL     1       4.376  -5.053  -8.920  0.00  0.00    +0.128 A 
ATOM     28  C   UNL     1       4.389  -3.853  -8.237  0.00  0.00    +0.056 A 
ATOM     29  C   UNL     1       3.428  -2.889  -8.511  0.00  0.00    +0.038 A 
BRANCH  27  30
ATOM     30  N   UNL     1       5.398  -6.083  -8.626  0.00  0.00    +0.056 N 
ATOM     31  O   UNL     1       5.389  -7.139  -9.232  0.00  0.00    -0.126 OA
ATOM     32  O   UNL     1       6.247  -5.873  -7.778  0.00  0.00    -0.126 OA
ENDBRANCH  27  30
ENDBRANCH  19  29
ENDBRANCH   1  20
TORSDOF 6
