REMARK  Name = ZINC07765246
REMARK  9 active torsions:
REMARK  status: ('A' for Active; 'I' for Inactive)
REMARK    1  A    between atoms: C_1  and  C_2
REMARK    2  A    between atoms: C_6  and  O_9
REMARK    3  A    between atoms: C_7  and  C_8
REMARK    4  A    between atoms: O_9  and  C_10
REMARK    5  A    between atoms: C_10  and  C_12
REMARK    6  A    between atoms: C_10  and  C_13
REMARK    7  A    between atoms: N_15  and  N_16
REMARK    8  A    between atoms: C_17  and  C_19
REMARK    9  A    between atoms: C_19  and  N_20
REMARK                            x       y       z     vdW  Elec       q    Type
REMARK                         _______ _______ _______ _____ _____    ______ ____
ROOT
ATOM      1  N   UNL     1      -6.763   1.262   1.940  0.00  0.00    -0.233 N 
ATOM      2  C   UNL     1      -7.981   1.784   2.185  0.00  0.00    +0.247 C 
ATOM      3  O   UNL     1      -8.268   2.882   1.756  0.00  0.00    -0.273 OA
ATOM      4  H   UNL     1      -6.534   0.384   2.283  0.00  0.00    +0.173 HD
ENDROOT
BRANCH   1   7
ATOM      5  C   UNL     1      -4.609   1.465   0.948  0.00  0.00    +0.270 C 
ATOM      6  O   UNL     1      -4.323   0.367   1.376  0.00  0.00    -0.270 OA
ATOM      7  N   UNL     1      -5.827   1.988   1.192  0.00  0.00    -0.231 N 
ATOM      8  H   UNL     1      -6.056   2.866   0.849  0.00  0.00    +0.173 HD
BRANCH   5   9
ATOM      9  C   UNL     1      -3.602   2.246   0.142  0.00  0.00    +0.257 C 
ATOM     10  C   UNL     1      -4.170   2.526  -1.250  0.00  0.00    +0.062 C 
BRANCH   9  11
ATOM     11  O   UNL     1      -2.398   1.487   0.021  0.00  0.00    -0.480 OA
BRANCH  11  17
ATOM     12  C   UNL     1       2.461   1.512  -0.444  0.00  0.00    +0.044 C 
ATOM     13  C   UNL     1       1.136   2.229  -0.427  0.00  0.00    -0.044 A 
ATOM     14  C   UNL     1       1.087   3.596  -0.636  0.00  0.00    +0.004 A 
ATOM     15  C   UNL     1      -0.127   4.256  -0.621  0.00  0.00    +0.004 A 
ATOM     16  C   UNL     1      -1.295   3.553  -0.398  0.00  0.00    +0.046 A 
ATOM     17  C   UNL     1      -1.250   2.182  -0.193  0.00  0.00    +0.125 A 
ATOM     18  C   UNL     1      -0.029   1.522  -0.203  0.00  0.00    -0.006 A 
ATOM     19  C   UNL     1       0.025   0.033   0.025  0.00  0.00    +0.048 C 
ENDBRANCH  11  17
ENDBRANCH   9  11
ENDBRANCH   5   9
ENDBRANCH   1   7
BRANCH   2  20
ATOM     20  C   UNL     1      -8.988   1.004   2.990  0.00  0.00    +0.214 C 
BRANCH  20  21
ATOM     21  N   UNL     1     -10.223   1.782   3.114  0.00  0.00    -0.225 N 
ATOM     22  C   UNL     1     -10.482   2.645   4.112  0.00  0.00    +0.254 C 
ATOM     23  O   UNL     1      -9.740   2.900   5.039  0.00  0.00    -0.270 OA
ATOM     24  C   UNL     1     -11.819   3.235   3.891  0.00  0.00    +0.049 A 
ATOM     25  C   UNL     1     -12.594   4.160   4.571  0.00  0.00    +0.014 A 
ATOM     26  C   UNL     1     -13.845   4.501   4.083  0.00  0.00    +0.001 A 
ATOM     27  C   UNL     1     -14.326   3.924   2.922  0.00  0.00    +0.001 A 
ATOM     28  C   UNL     1     -13.562   2.996   2.231  0.00  0.00    +0.014 A 
ATOM     29  C   UNL     1     -12.309   2.646   2.707  0.00  0.00    +0.049 A 
ATOM     30  C   UNL     1     -11.250   1.722   2.247  0.00  0.00    +0.254 C 
ATOM     31  O   UNL     1     -11.300   1.027   1.253  0.00  0.00    -0.270 OA
ENDBRANCH  20  21
ENDBRANCH   2  20
TORSDOF 6
