REMARK  Name = ZINC09324282
REMARK  5 active torsions:
REMARK  status: ('A' for Active; 'I' for Inactive)
REMARK    1  A    between atoms: C_1  and  O_2
REMARK    2  A    between atoms: O_2  and  C_3
REMARK    3  A    between atoms: C_6  and  N_9
REMARK    4  A    between atoms: C_19  and  N_20
REMARK    5  A    between atoms: N_20  and  C_21
REMARK                            x       y       z     vdW  Elec       q    Type
REMARK                         _______ _______ _______ _____ _____    ______ ____
ROOT
ATOM      1  N   UNL     1       2.470  -2.501   4.278  0.00  0.00    -0.190 N 
ATOM      2  C   UNL     1       2.441  -3.847   4.362  0.00  0.00    +0.265 C 
ATOM      3  O   UNL     1       1.821  -4.511   3.553  0.00  0.00    -0.269 OA
ATOM      4  C   UNL     1       3.183  -4.492   5.460  0.00  0.00    +0.113 C 
ATOM      5  C   UNL     1       3.906  -3.608   6.391  0.00  0.00    +0.258 C 
ATOM      6  N   UNL     1       3.845  -2.277   6.184  0.00  0.00    -0.235 N 
ATOM      7  H   UNL     1       4.316  -1.681   6.787  0.00  0.00    +0.159 HD
ATOM      8  C   UNL     1       3.154  -1.758   5.159  0.00  0.00    +0.320 C 
ATOM      9  O   UNL     1       3.143  -0.550   5.025  0.00  0.00    -0.251 OA
ATOM     10  O   UNL     1       4.540  -4.067   7.323  0.00  0.00    -0.270 OA
ATOM     11  C   UNL     1       3.199  -5.867   5.610  0.00  0.00    +0.090 C 
ENDROOT
BRANCH   1  15
ATOM     12  C   UNL     1       0.395  -0.608   1.193  0.00  0.00    +0.120 A 
ATOM     13  C   UNL     1       1.764  -0.429   1.319  0.00  0.00    +0.047 A 
ATOM     14  C   UNL     1       2.452  -1.055   2.340  0.00  0.00    +0.027 A 
ATOM     15  C   UNL     1       1.772  -1.864   3.240  0.00  0.00    +0.046 A 
ATOM     16  C   UNL     1       0.401  -2.043   3.114  0.00  0.00    +0.027 A 
ATOM     17  C   UNL     1      -0.286  -1.412   2.096  0.00  0.00    +0.047 A 
BRANCH  12  19
ATOM     18  C   UNL     1       0.482   0.822  -0.705  0.00  0.00    +0.277 C 
ATOM     19  O   UNL     1      -0.282   0.009   0.188  0.00  0.00    -0.495 OA
ENDBRANCH  12  19
ENDBRANCH   1  15
BRANCH  11  20
ATOM     20  N   UNL     1       2.659  -6.655   4.657  0.00  0.00    -0.319 N 
ATOM     21  H   UNL     1       2.331  -6.265   3.833  0.00  0.00    +0.152 HD
BRANCH  20  22
ATOM     22  C   UNL     1       2.573  -8.036   4.860  0.00  0.00    +0.049 A 
ATOM     23  C   UNL     1       3.037  -8.597   6.043  0.00  0.00    +0.025 A 
ATOM     24  C   UNL     1       2.950  -9.961   6.240  0.00  0.00    +0.002 A 
ATOM     25  C   UNL     1       2.402 -10.770   5.261  0.00  0.00    +0.002 A 
ATOM     26  C   UNL     1       1.939 -10.216   4.081  0.00  0.00    +0.022 A 
ATOM     27  C   UNL     1       2.017  -8.850   3.880  0.00  0.00    +0.062 A 
ATOM     28 CL   UNL     1       1.428  -8.155   2.403  0.00  0.00    -0.082 Cl
ENDBRANCH  20  22
ENDBRANCH  11  20
TORSDOF 4
