REMARK  Name = ZINC21847072
REMARK  5 active torsions:
REMARK  status: ('A' for Active; 'I' for Inactive)
REMARK    1  A    between atoms: C_3  and  N_11
REMARK    2  A    between atoms: C_4  and  N_8
REMARK    3  A    between atoms: C_12  and  C_14
REMARK    4  A    between atoms: C_14  and  N_15
REMARK    5  A    between atoms: C_18  and  C_21
REMARK                            x       y       z     vdW  Elec       q    Type
REMARK                         _______ _______ _______ _____ _____    ______ ____
ROOT
ATOM      1  N   UNL     1       3.421   2.037  -0.041  0.00  0.00    -0.285 N 
ATOM      2  C   UNL     1       3.342   3.376  -0.177  0.00  0.00    +0.201 C 
ATOM      3  O   UNL     1       2.259   3.921  -0.190  0.00  0.00    -0.278 OA
ATOM      4  H   UNL     1       4.287   1.609   0.052  0.00  0.00    +0.155 HD
ENDROOT
BRANCH   1   7
ATOM      5  C   UNL     1      -0.043   0.967  -0.652  0.00  0.00    +0.022 A 
ATOM      6  C   UNL     1       1.107   1.731  -0.661  0.00  0.00    +0.027 A 
ATOM      7  C   UNL     1       2.254   1.265  -0.033  0.00  0.00    +0.064 A 
ATOM      8  C   UNL     1       2.241   0.030   0.603  0.00  0.00    +0.149 A 
ATOM      9  C   UNL     1       1.088  -0.730   0.609  0.00  0.00    +0.054 A 
ATOM     10  C   UNL     1      -0.054  -0.263  -0.018  0.00  0.00    +0.043 A 
ATOM     11 CL   UNL     1      -1.501  -1.221  -0.008  0.00  0.00    -0.083 Cl
BRANCH   8  12
ATOM     12  N   UNL     1       3.462  -0.470   1.274  0.00  0.00    +0.058 N 
ATOM     13  O   UNL     1       3.480  -1.584   1.744  0.00  0.00    -0.126 OA
ATOM     14  O   UNL     1       4.441   0.234   1.352  0.00  0.00    -0.126 OA
ENDBRANCH   8  12
ENDBRANCH   1   7
BRANCH   2  15
ATOM     15  C   UNL     1       4.600   4.195  -0.312  0.00  0.00    +0.019 C 
BRANCH  15  16
ATOM     16  N   UNL     1       4.248   5.614  -0.446  0.00  0.00    +0.385 N 
ATOM     17  C   UNL     1       3.605   6.076   0.790  0.00  0.00    -0.077 C 
ATOM     18  C   UNL     1       3.164   7.532   0.627  0.00  0.00    -0.006 C 
ATOM     19  C   UNL     1       4.389   8.402   0.332  0.00  0.00    +0.071 C 
ATOM     20  C   UNL     1       5.094   7.865  -0.918  0.00  0.00    -0.006 C 
ATOM     21  C   UNL     1       5.464   6.397  -0.697  0.00  0.00    -0.077 C 
ATOM     22  H   UNL     1       3.609   5.730  -1.218  0.00  0.00    -0.081 HD
BRANCH  19  23
ATOM     23  C   UNL     1       3.952   9.824   0.092  0.00  0.00    +0.213 C 
ATOM     24  O   UNL     1       2.776  10.115   0.151  0.00  0.00    -0.276 OA
ATOM     25  N   UNL     1       4.868  10.772  -0.188  0.00  0.00    -0.329 N 
ATOM     26  H   UNL     1       5.808  10.539  -0.235  0.00  0.00    +0.145 HD
ATOM     27  H   UNL     1       4.587  11.688  -0.342  0.00  0.00    +0.145 HD
ENDBRANCH  19  23
ENDBRANCH  15  16
ENDBRANCH   2  15
TORSDOF 5
