REMARK  Name = ZINC55238307
REMARK  6 active torsions:
REMARK  status: ('A' for Active; 'I' for Inactive)
REMARK    1  A    between atoms: C_1  and  C_2
REMARK    2  A    between atoms: C_3  and  C_20
REMARK    3  A    between atoms: C_5  and  S_7
REMARK    4  A    between atoms: S_7  and  C_8
REMARK    5  A    between atoms: C_8  and  C_9
REMARK    6  A    between atoms: C_17  and  N_19
REMARK                            x       y       z     vdW  Elec       q    Type
REMARK                         _______ _______ _______ _____ _____    ______ ____
ROOT
ATOM      1  C   UNL     1       0.074  -3.896   4.416  0.00  0.00    +0.142 A 
ATOM      2  N   UNL     1      -1.071  -4.380   4.836  0.00  0.00    -0.231 NA
ATOM      3  C   UNL     1      -1.099  -5.378   5.731  0.00  0.00    +0.076 A 
ATOM      4  C   UNL     1      -2.303  -5.921   6.201  0.00  0.00    +0.028 A 
ATOM      5  C   UNL     1      -2.274  -6.935   7.112  0.00  0.00    +0.002 A 
ATOM      6  C   UNL     1      -1.067  -7.441   7.584  0.00  0.00    +0.001 A 
ATOM      7  C   UNL     1       0.123  -6.937   7.147  0.00  0.00    +0.013 A 
ATOM      8  C   UNL     1       0.128  -5.896   6.212  0.00  0.00    +0.040 A 
ATOM      9  C   UNL     1       1.331  -5.331   5.721  0.00  0.00    +0.127 A 
ATOM     10  N   UNL     1       1.245  -4.350   4.833  0.00  0.00    -0.216 NA
ENDROOT
BRANCH   9  11
ATOM     11  N   UNL     1       2.557  -5.792   6.152  0.00  0.00    -0.343 N 
ATOM     12  H   UNL     1       2.604  -6.512   6.800  0.00  0.00    +0.144 HD
ATOM     13  H   UNL     1       3.372  -5.395   5.807  0.00  0.00    +0.144 HD
ENDBRANCH   9  11
BRANCH   1  14
ATOM     14  C   UNL     1       0.055  -2.775   3.409  0.00  0.00    +0.155 C 
BRANCH  14  15
ATOM     15  S   UNL     1       0.056  -3.469   1.732  0.00  0.00    -0.059 S 
BRANCH  15  20
ATOM     16  C   UNL     1      -0.018   1.503   0.010  0.00  0.00    +0.069 C 
ATOM     17  C   UNL     1       0.002  -0.004   0.002  0.00  0.00    +0.080 A 
ATOM     18  C   UNL     1       0.008  -0.788  -1.086  0.00  0.00    +0.126 A 
ATOM     19  O   UNL     1       0.027  -2.069  -0.657  0.00  0.00    -0.436 OA
ATOM     20  C   UNL     1       0.033  -2.052   0.685  0.00  0.00    +0.258 A 
ATOM     21  N   UNL     1       0.024  -0.803   1.086  0.00  0.00    -0.208 NA
ATOM     22  C   UNL     1      -0.005  -0.326  -2.520  0.00  0.00    +0.088 C 
ENDBRANCH  15  20
ENDBRANCH  14  15
ENDBRANCH   1  14
TORSDOF 4
