REMARK  Name = ZINC21614691
REMARK  8 active torsions:
REMARK  status: ('A' for Active; 'I' for Inactive)
REMARK    1  A    between atoms: C_1  and  C_2
REMARK    2  A    between atoms: C_5  and  N_26
REMARK    3  A    between atoms: C_6  and  O_8
REMARK    4  A    between atoms: O_8  and  C_9
REMARK    5  A    between atoms: C_9  and  C_10
REMARK    6  A    between atoms: N_12  and  C_13
REMARK    7  A    between atoms: C_14  and  C_24
REMARK    8  A    between atoms: C_19  and  C_23
REMARK                            x       y       z     vdW  Elec       q    Type
REMARK                         _______ _______ _______ _____ _____    ______ ____
ROOT
ATOM      1  C   UNL     1       0.002  -0.004   0.002  0.00  0.00    +0.255 C 
ATOM      2  O   UNL     1       1.060  -0.596  -0.011  0.00  0.00    -0.272 OA
ATOM      3  N   UNL     1      -1.156  -0.694   0.009  0.00  0.00    -0.276 N 
ATOM      4  H   UNL     1      -2.116  -0.157   0.021  0.00  0.00    +0.155 HD
ENDROOT
BRANCH   3   5
ATOM      5  C   UNL     1      -1.137  -2.082   0.002  0.00  0.00    +0.090 A 
ATOM      6  C   UNL     1      -2.212  -2.958   0.007  0.00  0.00    +0.084 A 
ATOM      7  C   UNL     1      -1.919  -4.381  -0.003  0.00  0.00    -0.018 A 
ATOM      8  C   UNL     1      -0.606  -4.697  -0.017  0.00  0.00    -0.004 A 
ATOM      9  S   UNL     1       0.235  -3.139  -0.025  0.00  0.00    -0.077 S 
ATOM     10  C   UNL     1      -0.008  -6.071  -0.029  0.00  0.00    +0.046 C 
ATOM     11  C   UNL     1      -1.102  -7.077   0.356  0.00  0.00    -0.009 C 
ATOM     12  C   UNL     1      -2.358  -6.779  -0.468  0.00  0.00    +0.008 C 
ATOM     13  C   UNL     1      -2.988  -5.466  -0.000  0.00  0.00    +0.037 C 
ATOM     14  C   UNL     1      -0.619  -8.498   0.058  0.00  0.00    +0.008 C 
BRANCH   6  15
ATOM     15  C   UNL     1      -3.561  -2.478   0.022  0.00  0.00    +0.102 C 
ATOM     16  N   UNL     1      -4.631  -2.097   0.034  0.00  0.00    -0.191 NA
ENDBRANCH   6  15
ENDBRANCH   3   5
BRANCH   1  17
ATOM     17  C   UNL     1      -0.018   1.503   0.010  0.00  0.00    +0.325 C 
BRANCH  17  18
ATOM     18  O   UNL     1       1.322   1.997   0.000  0.00  0.00    -0.480 OA
BRANCH  18  24
ATOM     19  C   UNL     1      -0.670   6.453   0.044  0.00  0.00    +0.044 C 
ATOM     20  C   UNL     1       0.536   5.550   0.027  0.00  0.00    -0.047 A 
ATOM     21  C   UNL     1       1.807   6.094   0.019  0.00  0.00    +0.006 A 
ATOM     22  C   UNL     1       2.916   5.268   0.004  0.00  0.00    +0.037 A 
ATOM     23  C   UNL     1       2.756   3.896   0.003  0.00  0.00    +0.168 A 
ATOM     24  C   UNL     1       1.482   3.347   0.006  0.00  0.00    +0.152 A 
ATOM     25  C   UNL     1       0.371   4.178   0.021  0.00  0.00    +0.051 A 
BRANCH  23  26
ATOM     26  N   UNL     1       3.943   3.012  -0.008  0.00  0.00    +0.060 N 
ATOM     27  O   UNL     1       5.061   3.494  -0.011  0.00  0.00    -0.126 OA
ATOM     28  O   UNL     1       3.802   1.802  -0.013  0.00  0.00    -0.126 OA
ENDBRANCH  23  26
ENDBRANCH  18  24
ENDBRANCH  17  18
ENDBRANCH   1  17
TORSDOF 6
