REMARK  Name = ZINC04572031
REMARK  8 active torsions:
REMARK  status: ('A' for Active; 'I' for Inactive)
REMARK    1  A    between atoms: C_1  and  C_2
REMARK    2  A    between atoms: C_2  and  C_4
REMARK    3  A    between atoms: C_2  and  N_7
REMARK    4  A    between atoms: C_4  and  C_5
REMARK    5  A    between atoms: C_4  and  C_6
REMARK    6  A    between atoms: C_13  and  C_20
REMARK    7  A    between atoms: N_18  and  C_19
REMARK    8  A    between atoms: C_25  and  C_26
REMARK                            x       y       z     vdW  Elec       q    Type
REMARK                         _______ _______ _______ _____ _____    ______ ____
ROOT
ATOM      1  N   UNL     1      -0.540   0.800   0.912  0.00  0.00    -0.289 N 
ATOM      2  C   UNL     1       0.691   0.076   0.563  0.00  0.00    +0.159 C 
ATOM      3  C   UNL     1       1.187  -0.500   1.870  0.00  0.00    +0.042 C 
ATOM      4  C   UNL     1       0.303  -0.117   2.813  0.00  0.00    +0.058 C 
ATOM      5  C   UNL     1      -0.722   0.662   2.238  0.00  0.00    +0.247 C 
ATOM      6  O   UNL     1      -1.651   1.144   2.859  0.00  0.00    -0.270 OA
ATOM      7  C   UNL     1       0.557  -0.562   4.240  0.00  0.00    +0.142 C 
ATOM      8  N   UNL     1       1.757  -1.381   4.478  0.00  0.00    -0.288 N 
ATOM      9  C   UNL     1       2.548  -1.683   3.430  0.00  0.00    +0.307 C 
ATOM     10  O   UNL     1       3.540  -2.360   3.617  0.00  0.00    -0.252 OA
ATOM     11  N   UNL     1       2.275  -1.263   2.188  0.00  0.00    -0.260 N 
ATOM     12  C   UNL     1       3.193  -1.642   1.111  0.00  0.00    +0.139 C 
ATOM     13  H   UNL     1       1.974  -1.696   5.370  0.00  0.00    +0.151 HD
ENDROOT
BRANCH   7  14
ATOM     14  C   UNL     1      -0.642  -1.349   4.701  0.00  0.00    -0.011 A 
ATOM     15  C   UNL     1      -0.881  -2.610   4.187  0.00  0.00    +0.006 A 
ATOM     16  C   UNL     1      -1.981  -3.332   4.610  0.00  0.00    +0.000 A 
ATOM     17  C   UNL     1      -2.841  -2.794   5.549  0.00  0.00    +0.001 A 
ATOM     18  C   UNL     1      -2.602  -1.534   6.064  0.00  0.00    +0.013 A 
ATOM     19  C   UNL     1      -1.500  -0.813   5.644  0.00  0.00    +0.060 A 
BRANCH  19  20
ATOM     20  C   UNL     1      -1.236   0.558   6.209  0.00  0.00    +0.418 C 
ATOM     21  F   UNL     1      -2.269   0.909   7.084  0.00  0.00    -0.166 F 
ATOM     22  F   UNL     1      -0.020   0.551   6.902  0.00  0.00    -0.166 F 
ATOM     23  F   UNL     1      -1.172   1.489   5.166  0.00  0.00    -0.166 F 
ENDBRANCH  19  20
ENDBRANCH   7  14
BRANCH   1  25
ATOM     24  C   UNL     1      -0.858   1.413  -1.434  0.00  0.00    +0.028 C 
ATOM     25  C   UNL     1      -1.405   1.539  -0.011  0.00  0.00    +0.076 C 
BRANCH  25  26
ATOM     26  C   UNL     1      -1.439   3.015   0.393  0.00  0.00    +0.003 C 
ATOM     27  C   UNL     1      -0.049   3.626   0.209  0.00  0.00    +0.009 C 
ATOM     28  C   UNL     1      -2.445   3.761  -0.486  0.00  0.00    +0.009 C 
ENDBRANCH  25  26
ENDBRANCH   1  25
TORSDOF 4
