REMARK  Name = ZINC12094525
REMARK  8 active torsions:
REMARK  status: ('A' for Active; 'I' for Inactive)
REMARK    1  A    between atoms: C_1  and  C_2
REMARK    2  A    between atoms: C_7  and  N_8
REMARK    3  A    between atoms: C_10  and  C_13
REMARK    4  A    between atoms: C_13  and  N_14
REMARK    5  A    between atoms: C_15  and  C_17
REMARK    6  A    between atoms: C_17  and  C_18
REMARK    7  A    between atoms: C_25  and  C_26
REMARK    8  A    between atoms: C_25  and  N_58
REMARK                            x       y       z     vdW  Elec       q    Type
REMARK                         _______ _______ _______ _____ _____    ______ ____
ROOT
ATOM      1  C   UNL     1       1.921  -1.723  -0.359  0.00  0.00    +0.089 C 
ENDROOT
BRANCH   1   2
ATOM      2  C   UNL     1       1.846  -0.486   0.538  0.00  0.00    +0.028 C 
ATOM      3  C   UNL     1       2.925   0.482   0.144  0.00  0.00    +0.200 C 
ATOM      4  O   UNL     1       3.129   0.677  -1.036  0.00  0.00    -0.278 OA
ATOM      5  N   UNL     1       3.671   1.138   1.039  0.00  0.00    -0.318 N 
ATOM      6  C   UNL     1       3.531   0.949   2.480  0.00  0.00    +0.085 C 
ATOM      7  C   UNL     1       2.184   0.296   2.795  0.00  0.00    -0.058 C 
ATOM      8  H   UNL     1       4.338   1.765   0.717  0.00  0.00    +0.149 HD
ATOM      9  N   UNL     1       2.045  -0.900   1.940  0.00  0.00    +0.391 N 
ATOM     10  H   UNL     1       2.902  -1.461   2.006  0.00  0.00    -0.080 HD
BRANCH   9  11
ATOM     11  C   UNL     1       0.897  -1.718   2.394  0.00  0.00    -0.039 C 
BRANCH  11  12
ATOM     12  C   UNL     1       1.066  -2.036   3.857  0.00  0.00    -0.029 A 
ATOM     13  C   UNL     1       0.289  -1.389   4.799  0.00  0.00    +0.004 A 
ATOM     14  C   UNL     1       0.444  -1.681   6.142  0.00  0.00    +0.000 A 
ATOM     15  C   UNL     1       1.375  -2.620   6.543  0.00  0.00    +0.003 A 
ATOM     16  C   UNL     1       2.153  -3.269   5.603  0.00  0.00    +0.038 A 
ATOM     17  C   UNL     1       1.996  -2.981   4.258  0.00  0.00    +0.125 A 
ATOM     18  F   UNL     1       2.753  -3.618   3.337  0.00  0.00    -0.205 F 
ENDBRANCH  11  12
ENDBRANCH   9  11
ENDBRANCH   1   2
BRANCH   1  20
ATOM     19  N   UNL     1       3.572  -3.482  -0.903  0.00  0.00    -0.311 N 
ATOM     20  C   UNL     1       3.233  -2.428  -0.135  0.00  0.00    +0.212 C 
ATOM     21  O   UNL     1       3.985  -2.047   0.738  0.00  0.00    -0.276 OA
ATOM     22  H   UNL     1       2.972  -3.786  -1.601  0.00  0.00    +0.149 HD
BRANCH  19  23
ATOM     23  C   UNL     1       4.849  -4.167  -0.685  0.00  0.00    +0.142 C 
BRANCH  23  26
ATOM     24  N   UNL     1       4.877  -7.279  -2.590  0.00  0.00    -0.239 N 
ATOM     25  C   UNL     1       4.577  -6.577  -1.474  0.00  0.00    +0.119 A 
ATOM     26  C   UNL     1       4.984  -5.301  -1.668  0.00  0.00    +0.007 A 
ATOM     27  C   UNL     1       5.560  -5.222  -2.941  0.00  0.00    +0.140 A 
ATOM     28  N   UNL     1       5.496  -6.407  -3.494  0.00  0.00    -0.174 NA
BRANCH  24  35
ATOM     29  C   UNL     1       3.744  -8.062  -5.081  0.00  0.00    +0.046 C 
ATOM     30  C   UNL     1       4.066  -9.065  -4.003  0.00  0.00    -0.025 A 
ATOM     31  C   UNL     1       3.813 -10.407  -4.209  0.00  0.00    +0.005 A 
ATOM     32  C   UNL     1       4.109 -11.328  -3.221  0.00  0.00    +0.000 A 
ATOM     33  C   UNL     1       4.660 -10.908  -2.024  0.00  0.00    +0.002 A 
ATOM     34  C   UNL     1       4.919  -9.568  -1.813  0.00  0.00    +0.028 A 
ATOM     35  C   UNL     1       4.618  -8.640  -2.802  0.00  0.00    +0.068 A 
ENDBRANCH  24  35
ENDBRANCH  23  26
ENDBRANCH  19  23
ENDBRANCH   1  20
TORSDOF 7
