REMARK  Name = ZINC49826012
REMARK  6 active torsions:
REMARK  status: ('A' for Active; 'I' for Inactive)
REMARK    1  A    between atoms: C_1  and  C_2
REMARK    2  A    between atoms: C_2  and  C_3
REMARK    3  A    between atoms: C_13  and  C_16
REMARK    4  A    between atoms: C_16  and  C_17
REMARK    5  A    between atoms: C_16  and  C_18
REMARK    6  A    between atoms: C_16  and  C_19
REMARK                            x       y       z     vdW  Elec       q    Type
REMARK                         _______ _______ _______ _____ _____    ______ ____
ROOT
ATOM      1  C   UNL     1       0.707  -0.490  -1.238  0.00  0.00    +0.017 A 
ATOM      2  C   UNL     1       2.031  -0.804  -1.202  0.00  0.00    +0.014 A 
ATOM      3  C   UNL     1       2.679  -1.253  -2.369  0.00  0.00    -0.027 A 
ATOM      4  C   UNL     1       1.983  -1.365  -3.518  0.00  0.00    +0.022 A 
ATOM      5  N   UNL     1       0.653  -1.058  -3.546  0.00  0.00    -0.326 N 
ATOM      6  H   UNL     1       0.162  -1.153  -4.377  0.00  0.00    +0.169 HD
ATOM      7  C   UNL     1       0.007  -0.631  -2.448  0.00  0.00    +0.252 A 
ATOM      8  O   UNL     1      -1.182  -0.363  -2.503  0.00  0.00    -0.268 OA
ATOM      9  C   UNL     1       2.613  -1.815  -4.812  0.00  0.00    +0.054 C 
ATOM     10  C   UNL     1       3.939  -2.525  -4.550  0.00  0.00    +0.010 C 
ATOM     11  C   UNL     1       4.792  -1.630  -3.643  0.00  0.00    -0.001 C 
ATOM     12  C   UNL     1       4.143  -1.593  -2.261  0.00  0.00    +0.041 C 
ENDROOT
BRANCH  11  13
ATOM     13  C   UNL     1       6.206  -2.204  -3.534  0.00  0.00    -0.035 C 
ATOM     14  C   UNL     1       6.840  -2.267  -4.926  0.00  0.00    +0.011 C 
ATOM     15  C   UNL     1       7.053  -1.307  -2.629  0.00  0.00    +0.011 C 
ATOM     16  C   UNL     1       6.141  -3.612  -2.940  0.00  0.00    +0.011 C 
ENDBRANCH  11  13
BRANCH   1  18
ATOM     17  C   UNL     1      -0.019   1.526   0.010  0.00  0.00    +0.009 C 
ATOM     18  C   UNL     1       0.002  -0.004   0.002  0.00  0.00    +0.037 C 
ENDBRANCH   1  18
TORSDOF 2
