REMARK  Name = ZINC64044291
REMARK  7 active torsions:
REMARK  status: ('A' for Active; 'I' for Inactive)
REMARK    1  A    between atoms: C_1  and  O_2
REMARK    2  A    between atoms: O_2  and  C_3
REMARK    3  A    between atoms: C_3  and  C_5
REMARK    4  A    between atoms: N_10  and  C_27
REMARK    5  A    between atoms: N_14  and  C_17
REMARK    6  A    between atoms: C_17  and  C_18
REMARK    7  A    between atoms: C_27  and  C_28
REMARK                            x       y       z     vdW  Elec       q    Type
REMARK                         _______ _______ _______ _____ _____    ______ ____
ROOT
ATOM      1  C   UNL     1       0.082  -2.845  -1.103  0.00  0.00    +0.130 C 
ATOM      2  C   UNL     1       0.951  -3.751  -0.199  0.00  0.00    +0.112 C 
ATOM      3  C   UNL     1       2.309  -3.748  -0.865  0.00  0.00    +0.217 C 
ATOM      4  O   UNL     1       3.342  -4.103  -0.339  0.00  0.00    -0.276 OA
ATOM      5  N   UNL     1       2.204  -3.295  -2.128  0.00  0.00    -0.291 N 
ATOM      6  C   UNL     1       0.817  -2.955  -2.453  0.00  0.00    +0.048 C 
ATOM      7  C   UNL     1       0.751  -1.618  -3.189  0.00  0.00    +0.008 C 
ATOM      8  C   UNL     1       1.419  -1.762  -4.559  0.00  0.00    -0.076 C 
ATOM      9  N   UNL     1       0.731  -2.800  -5.335  0.00  0.00    +0.382 N 
ATOM     10  C   UNL     1       0.872  -4.100  -4.668  0.00  0.00    -0.076 C 
ATOM     11  C   UNL     1       0.181  -4.053  -3.303  0.00  0.00    +0.008 C 
ATOM     12  H   UNL     1      -0.248  -2.567  -5.412  0.00  0.00    -0.081 HD
ENDROOT
BRANCH   1  13
ATOM     13  C   UNL     1       0.080  -1.424  -0.603  0.00  0.00    +0.312 C 
ATOM     14  O   UNL     1       0.961  -1.041   0.130  0.00  0.00    -0.250 OA
BRANCH  13  16
ATOM     15  C   UNL     1      -0.838   0.749  -0.460  0.00  0.00    +0.280 C 
ATOM     16  O   UNL     1      -0.899  -0.584  -0.972  0.00  0.00    -0.468 OA
ENDBRANCH  13  16
ENDBRANCH   1  13
BRANCH   9  17
ATOM     17  C   UNL     1       1.319  -2.875  -6.679  0.00  0.00    -0.045 C 
BRANCH  17  18
ATOM     18  C   UNL     1       1.030  -1.598  -7.426  0.00  0.00    -0.058 C 
ATOM     19  C   UNL     1       1.847  -0.527  -7.552  0.00  0.00    -0.003 A 
ATOM     20  C   UNL     1       3.196  -0.241  -7.050  0.00  0.00    +0.010 A 
ATOM     21  C   UNL     1       3.768   0.948  -7.347  0.00  0.00    +0.001 A 
ATOM     22  C   UNL     1       3.107   1.911  -8.120  0.00  0.00    +0.002 A 
ATOM     23  C   UNL     1       1.866   1.722  -8.617  0.00  0.00    +0.026 A 
ATOM     24  C   UNL     1       1.169   0.507  -8.366  0.00  0.00    +0.043 A 
ATOM     25  N   UNL     1      -0.020   0.092  -8.730  0.00  0.00    -0.380 N 
ATOM     26  C   UNL     1      -0.229  -1.257  -8.191  0.00  0.00    +0.142 C 
ATOM     27  H   UNL     1      -0.654   0.591  -9.268  0.00  0.00    +0.160 HD
ENDBRANCH  17  18
ENDBRANCH   9  17
BRANCH   5  28
ATOM     28  C   UNL     1       3.329  -3.159  -3.056  0.00  0.00    +0.135 C 
BRANCH  28  29
ATOM     29  C   UNL     1       3.884  -1.761  -2.972  0.00  0.00    -0.016 C 
ATOM     30  C   UNL     1       5.157  -1.575  -2.725  0.00  0.00    +0.005 C 
ENDBRANCH  28  29
ENDBRANCH   5  28
TORSDOF 6
