REMARK  Name = ZINC24579909
REMARK  7 active torsions:
REMARK  status: ('A' for Active; 'I' for Inactive)
REMARK    1  A    between atoms: C_1  and  C_2
REMARK    2  A    between atoms: C_8  and  N_10
REMARK    3  A    between atoms: C_11  and  C_13
REMARK    4  A    between atoms: C_17  and  S_19
REMARK    5  A    between atoms: S_19  and  N_22
REMARK    6  A    between atoms: N_22  and  C_23
REMARK    7  A    between atoms: C_23  and  C_24
REMARK                            x       y       z     vdW  Elec       q    Type
REMARK                         _______ _______ _______ _____ _____    ______ ____
ROOT
ATOM      1  C   UNL     1       8.269   2.854   0.838  0.00  0.00    +0.039 A 
ATOM      2  C   UNL     1       9.123   2.053   0.079  0.00  0.00    +0.013 A 
ATOM      3  C   UNL     1       8.786   1.725  -1.218  0.00  0.00    +0.003 A 
ATOM      4  C   UNL     1       7.604   2.190  -1.767  0.00  0.00    +0.028 A 
ATOM      5  C   UNL     1       6.753   2.985  -1.020  0.00  0.00    +0.106 A 
ATOM      6  C   UNL     1       7.081   3.324   0.277  0.00  0.00    +0.041 A 
ENDROOT
BRANCH   1   8
ATOM      7  N   UNL     1       9.775   2.759   2.766  0.00  0.00    -0.308 N 
ATOM      8  C   UNL     1       8.624   3.209   2.228  0.00  0.00    +0.244 C 
ATOM      9  O   UNL     1       7.878   3.907   2.887  0.00  0.00    -0.270 OA
ATOM     10  H   UNL     1      10.450   2.127   2.170  0.00  0.00    +0.149 HD
BRANCH   7  17
ATOM     11  C   UNL     1      10.373   0.687   4.699  0.00  0.00    +0.009 C 
ATOM     12  C   UNL     1      11.069   2.049   4.716  0.00  0.00    +0.006 C 
ATOM     13  C   UNL     1      11.437   2.416   6.155  0.00  0.00    +0.005 C 
ATOM     14  C   UNL     1      12.133   3.778   6.172  0.00  0.00    +0.000 C 
ATOM     15  C   UNL     1      11.192   4.840   5.599  0.00  0.00    +0.002 C 
ATOM     16  C   UNL     1      10.824   4.472   4.160  0.00  0.00    +0.022 C 
ATOM     17  C   UNL     1      10.127   3.110   4.144  0.00  0.00    +0.076 C 
ENDBRANCH   7  17
ENDBRANCH   1   8
BRANCH   5  18
ATOM     18  S   UNL     1       5.250   3.572  -1.729  0.00  0.00    +0.059 S 
ATOM     19  O   UNL     1       5.437   3.570  -3.137  0.00  0.00    -0.153 OA
ATOM     20  O   UNL     1       4.892   4.744  -1.009  0.00  0.00    -0.153 OA
BRANCH  18  21
ATOM     21  N   UNL     1       4.082   2.443  -1.405  0.00  0.00    -0.186 NA
ATOM     22  H   UNL     1       3.738   1.779  -2.212  0.00  0.00    +0.148 HD
BRANCH  21  23
ATOM     23  C   UNL     1       3.676   2.186  -0.021  0.00  0.00    +0.141 C 
BRANCH  23  24
ATOM     24  C   UNL     1       2.380   1.416  -0.013  0.00  0.00    -0.028 A 
ATOM     25  C   UNL     1       2.399   0.034  -0.021  0.00  0.00    +0.009 A 
ATOM     26  C   UNL     1       1.213  -0.677  -0.013  0.00  0.00    +0.050 A 
ATOM     27  C   UNL     1       0.002  -0.004   0.002  0.00  0.00    +0.166 A 
ATOM     28  C   UNL     1      -0.017   1.389   0.010  0.00  0.00    +0.167 A 
ATOM     29  C   UNL     1       1.176   2.094   0.002  0.00  0.00    +0.054 A 
ATOM     30  O   UNL     1      -1.316   1.807   0.019  0.00  0.00    -0.453 OA
ATOM     31  C   UNL     1      -2.092   0.666  -0.387  0.00  0.00    +0.466 C 
ATOM     32  O   UNL     1      -1.285  -0.458   0.012  0.00  0.00    -0.453 OA
ENDBRANCH  23  24
ENDBRANCH  21  23
ENDBRANCH  18  21
ENDBRANCH   5  18
TORSDOF 6
