REMARK  Name = ZINC00680563
REMARK  7 active torsions:
REMARK  status: ('A' for Active; 'I' for Inactive)
REMARK    1  A    between atoms: C_4  and  C_7
REMARK    2  A    between atoms: C_8  and  C_13
REMARK    3  A    between atoms: N_14  and  N_15
REMARK    4  A    between atoms: C_16  and  C_18
REMARK    5  A    between atoms: C_18  and  S_19
REMARK    6  A    between atoms: S_19  and  C_20
REMARK    7  A    between atoms: N_24  and  C_25
REMARK                            x       y       z     vdW  Elec       q    Type
REMARK                         _______ _______ _______ _____ _____    ______ ____
ROOT
ATOM      1  N   UNL     1       1.152   2.193  -0.152  0.00  0.00    -0.206 N 
ATOM      2  C   UNL     1       0.012   1.503  -0.353  0.00  0.00    +0.242 C 
ATOM      3  O   UNL     1      -1.029   2.096  -0.546  0.00  0.00    -0.273 OA
ATOM      4  H   UNL     1       1.986   1.719  -0.001  0.00  0.00    +0.177 HD
ENDROOT
BRANCH   1   6
ATOM      5  C   UNL     1       2.233   4.258   0.034  0.00  0.00    +0.142 C 
ATOM      6  N   UNL     1       1.135   3.594  -0.160  0.00  0.00    -0.188 NA
BRANCH   5   8
ATOM      7  C   UNL     1       1.033   6.591  -0.081  0.00  0.00    +0.101 A 
ATOM      8  C   UNL     1       2.214   5.731   0.025  0.00  0.00    +0.040 A 
ATOM      9  C   UNL     1       3.297   6.563   0.109  0.00  0.00    +0.115 A 
ATOM     10  N   UNL     1       2.852   7.832   0.067  0.00  0.00    -0.284 N 
ATOM     11  H   UNL     1       3.429   8.648   0.109  0.00  0.00    +0.188 HD
ATOM     12  N   UNL     1       1.459   7.835  -0.047  0.00  0.00    -0.173 NA
BRANCH   7  16
ATOM     13  C   UNL     1      -3.006   5.309  -0.422  0.00  0.00    +0.000 A 
ATOM     14  C   UNL     1      -2.166   4.703   0.494  0.00  0.00    +0.001 A 
ATOM     15  C   UNL     1      -0.853   5.114   0.609  0.00  0.00    +0.010 A 
ATOM     16  C   UNL     1      -0.375   6.144  -0.200  0.00  0.00    +0.003 A 
ATOM     17  C   UNL     1      -1.228   6.755  -1.118  0.00  0.00    +0.010 A 
ATOM     18  C   UNL     1      -2.537   6.331  -1.228  0.00  0.00    +0.001 A 
ENDBRANCH   7  16
ENDBRANCH   5   8
ENDBRANCH   1   6
BRANCH   2  19
ATOM     19  C   UNL     1       0.031  -0.004  -0.344  0.00  0.00    +0.174 C 
BRANCH  19  20
ATOM     20  S   UNL     1      -1.641  -0.630  -0.640  0.00  0.00    -0.075 S 
BRANCH  20  21
ATOM     21  C   UNL     1      -1.334  -2.364  -0.579  0.00  0.00    +0.214 A 
ATOM     22  N   UNL     1      -0.172  -2.946  -0.370  0.00  0.00    -0.101 NA
ATOM     23  N   UNL     1      -0.299  -4.223  -0.388  0.00  0.00    -0.022 NA
ATOM     24  N   UNL     1      -1.527  -4.550  -0.606  0.00  0.00    -0.038 NA
ATOM     25  N   UNL     1      -2.251  -3.352  -0.734  0.00  0.00    -0.187 N 
BRANCH  25  26
ATOM     26  C   UNL     1      -3.626  -3.208  -0.973  0.00  0.00    +0.070 A 
ATOM     27  C   UNL     1      -4.326  -2.158  -0.395  0.00  0.00    +0.029 A 
ATOM     28  C   UNL     1      -5.678  -2.015  -0.637  0.00  0.00    +0.022 A 
ATOM     29  C   UNL     1      -6.338  -2.925  -1.445  0.00  0.00    +0.041 A 
ATOM     30  C   UNL     1      -5.643  -3.976  -2.018  0.00  0.00    +0.022 A 
ATOM     31  C   UNL     1      -4.289  -4.119  -1.784  0.00  0.00    +0.029 A 
ATOM     32 CL   UNL     1      -8.039  -2.747  -1.741  0.00  0.00    -0.084 Cl
ENDBRANCH  25  26
ENDBRANCH  20  21
ENDBRANCH  19  20
ENDBRANCH   2  19
TORSDOF 7
