REMARK  Name = ZINC12363932
REMARK  9 active torsions:
REMARK  status: ('A' for Active; 'I' for Inactive)
REMARK    1  A    between atoms: C_1  and  C_2
REMARK    2  A    between atoms: C_2  and  C_22
REMARK    3  A    between atoms: N_3  and  N_4
REMARK    4  A    between atoms: C_5  and  C_7
REMARK    5  A    between atoms: C_7  and  S_8
REMARK    6  A    between atoms: S_8  and  C_9
REMARK    7  A    between atoms: C_12  and  C_15
REMARK    8  A    between atoms: N_13  and  C_14
REMARK    9  A    between atoms: C_25  and  N_28
REMARK                            x       y       z     vdW  Elec       q    Type
REMARK                         _______ _______ _______ _____ _____    ______ ____
ROOT
ATOM      1  N   UNL     1      -0.056   0.320   1.130  0.00  0.00    -0.206 N 
ATOM      2  C   UNL     1      -1.151   1.096   1.002  0.00  0.00    +0.242 C 
ATOM      3  O   UNL     1      -1.059   2.299   1.123  0.00  0.00    -0.273 OA
ATOM      4  H   UNL     1      -0.129  -0.642   1.033  0.00  0.00    +0.177 HD
ENDROOT
BRANCH   1   7
ATOM      5  C   UNL     1       2.130  -1.337   1.367  0.00  0.00    +0.068 C 
ATOM      6  C   UNL     1       2.243   0.158   1.518  0.00  0.00    +0.063 C 
ATOM      7  N   UNL     1       1.188   0.904   1.399  0.00  0.00    -0.185 NA
BRANCH   6   8
ATOM      8  C   UNL     1       3.554   0.773   1.801  0.00  0.00    -0.002 A 
ATOM      9  C   UNL     1       4.690  -0.028   1.935  0.00  0.00    +0.012 A 
ATOM     10  C   UNL     1       5.913   0.555   2.194  0.00  0.00    +0.033 A 
ATOM     11  C   UNL     1       6.014   1.928   2.332  0.00  0.00    +0.126 A 
ATOM     12  C   UNL     1       4.891   2.727   2.206  0.00  0.00    +0.033 A 
ATOM     13  C   UNL     1       3.663   2.159   1.941  0.00  0.00    +0.012 A 
BRANCH  11  14
ATOM     14  N   UNL     1       7.329   2.546   2.616  0.00  0.00    +0.056 N 
ATOM     15  O   UNL     1       7.421   3.754   2.738  0.00  0.00    -0.126 OA
ATOM     16  O   UNL     1       8.319   1.845   2.728  0.00  0.00    -0.126 OA
ENDBRANCH  11  14
ENDBRANCH   6   8
ENDBRANCH   1   7
BRANCH   2  17
ATOM     17  C   UNL     1      -2.489   0.468   0.706  0.00  0.00    +0.174 C 
BRANCH  17  18
ATOM     18  S   UNL     1      -3.750   1.761   0.593  0.00  0.00    -0.077 S 
BRANCH  18  19
ATOM     19  C   UNL     1      -5.170   0.774   0.252  0.00  0.00    +0.192 A 
ATOM     20  N   UNL     1      -5.198  -0.534   0.126  0.00  0.00    -0.122 NA
ATOM     21  N   UNL     1      -6.397  -0.928  -0.118  0.00  0.00    -0.128 NA
ATOM     22  C   UNL     1      -7.205   0.105  -0.173  0.00  0.00    +0.165 A 
ATOM     23  N   UNL     1      -6.444   1.226   0.062  0.00  0.00    -0.305 N 
ATOM     24  C   UNL     1      -6.905   2.617   0.100  0.00  0.00    +0.153 C 
BRANCH  22  25
ATOM     25  C   UNL     1      -8.660   0.069  -0.436  0.00  0.00    +0.020 A 
ATOM     26  C   UNL     1      -9.318   1.213  -0.890  0.00  0.00    +0.011 A 
ATOM     27  C   UNL     1     -10.675   1.174  -1.135  0.00  0.00    +0.002 A 
ATOM     28  C   UNL     1     -11.384   0.003  -0.932  0.00  0.00    +0.015 A 
ATOM     29  C   UNL     1     -10.738  -1.135  -0.483  0.00  0.00    +0.019 A 
ATOM     30  C   UNL     1      -9.379  -1.110  -0.239  0.00  0.00    +0.027 A 
ATOM     31 BR   UNL     1     -11.716  -2.730  -0.209  0.00  0.00    -0.050 Br
ENDBRANCH  22  25
ENDBRANCH  18  19
ENDBRANCH  17  18
ENDBRANCH   2  17
TORSDOF 7
