REMARK  Name = ZINC63480600
REMARK  7 active torsions:
REMARK  status: ('A' for Active; 'I' for Inactive)
REMARK    1  A    between atoms: C_1  and  C_2
REMARK    2  A    between atoms: C_2  and  C_3
REMARK    3  A    between atoms: C_2  and  C_4
REMARK    4  A    between atoms: C_4  and  C_5
REMARK    5  A    between atoms: C_5  and  N_6
REMARK    6  A    between atoms: C_7  and  C_9
REMARK    7  A    between atoms: N_23  and  C_24
REMARK                            x       y       z     vdW  Elec       q    Type
REMARK                         _______ _______ _______ _____ _____    ______ ____
ROOT
ATOM      1  C   UNL     1      -5.816  -0.925  -2.273  0.00  0.00    +0.183 C 
ATOM      2  C   UNL     1      -5.778  -2.435  -2.234  0.00  0.00    +0.019 C 
ATOM      3  C   UNL     1      -6.310  -2.874  -3.398  0.00  0.00    +0.057 C 
ATOM      4  C   UNL     1      -6.704  -1.724  -4.221  0.00  0.00    +0.051 C 
ATOM      5  C   UNL     1      -7.283  -1.990  -5.482  0.00  0.00    +0.018 A 
ATOM      6  C   UNL     1      -7.681  -0.934  -6.318  0.00  0.00    +0.011 A 
ATOM      7  C   UNL     1      -8.238  -1.205  -7.532  0.00  0.00    +0.001 A 
ATOM      8  C   UNL     1      -8.415  -2.519  -7.954  0.00  0.00    +0.002 A 
ATOM      9  C   UNL     1      -8.039  -3.566  -7.167  0.00  0.00    +0.024 A 
ATOM     10  C   UNL     1      -7.462  -3.330  -5.907  0.00  0.00    +0.043 A 
ATOM     11  N   UNL     1      -7.096  -4.368  -5.144  0.00  0.00    -0.281 N 
ATOM     12  C   UNL     1      -6.546  -4.229  -3.948  0.00  0.00    +0.250 C 
ATOM     13  O   UNL     1      -6.234  -5.215  -3.299  0.00  0.00    -0.270 OA
ATOM     14  N   UNL     1      -6.417  -0.567  -3.564  0.00  0.00    -0.317 N 
ATOM     15  C   UNL     1      -6.663   0.791  -4.056  0.00  0.00    +0.130 C 
ATOM     16  H   UNL     1      -7.241  -5.265  -5.483  0.00  0.00    +0.155 HD
ENDROOT
BRANCH   1  18
ATOM     17  N   UNL     1      -3.675  -0.597  -1.079  0.00  0.00    -0.314 N 
ATOM     18  C   UNL     1      -4.419  -0.368  -2.179  0.00  0.00    +0.237 C 
ATOM     19  O   UNL     1      -3.964   0.286  -3.094  0.00  0.00    -0.273 OA
ATOM     20  H   UNL     1      -4.038  -1.120  -0.348  0.00  0.00    +0.149 HD
BRANCH  17  21
ATOM     21  C   UNL     1      -2.316  -0.056  -0.988  0.00  0.00    +0.104 C 
BRANCH  21  22
ATOM     22  C   UNL     1      -1.696  -0.459   0.352  0.00  0.00    +0.022 C 
BRANCH  22  24
ATOM     23  C   UNL     1      -0.338   1.635   0.472  0.00  0.00    +0.007 C 
ATOM     24  C   UNL     1      -0.277   0.106   0.447  0.00  0.00    -0.016 C 
ATOM     25  C   UNL     1       0.388  -0.399   1.729  0.00  0.00    +0.007 C 
ENDBRANCH  22  24
ENDBRANCH  21  22
ENDBRANCH  17  21
ENDBRANCH   1  18
TORSDOF 4
