REMARK  Name = ZINC37527010
REMARK  3 active torsions:
REMARK  status: ('A' for Active; 'I' for Inactive)
REMARK    1  A    between atoms: C_3  and  N_10
REMARK    2  A    between atoms: C_6  and  C_7
REMARK    3  A    between atoms: N_10  and  C_11
REMARK                            x       y       z     vdW  Elec       q    Type
REMARK                         _______ _______ _______ _____ _____    ______ ____
ROOT
ATOM      1  N   UNL     1       3.599   1.923  -0.022  0.00  0.00    -0.322 N 
ATOM      2  H   UNL     1       4.410   1.393   0.023  0.00  0.00    +0.148 HD
ENDROOT
BRANCH   1   3
ATOM      3  C   UNL     1       3.682   3.382  -0.127  0.00  0.00    +0.034 C 
ATOM      4  C   UNL     1       3.064   4.018   1.120  0.00  0.00    +0.029 C 
ATOM      5  C   UNL     1       3.151   5.542   1.012  0.00  0.00    -0.008 C 
ATOM      6  C   UNL     1       4.618   5.962   0.898  0.00  0.00    +0.007 C 
ATOM      7  C   UNL     1       5.236   5.326  -0.348  0.00  0.00    -0.008 C 
ATOM      8  C   UNL     1       5.149   3.802  -0.240  0.00  0.00    +0.029 C 
ATOM      9  C   UNL     1       4.474   5.793  -1.590  0.00  0.00    +0.007 C 
ATOM     10  C   UNL     1       3.007   5.373  -1.477  0.00  0.00    -0.008 C 
ATOM     11  C   UNL     1       2.389   6.009  -0.230  0.00  0.00    +0.007 C 
ATOM     12  C   UNL     1       2.920   3.849  -1.368  0.00  0.00    +0.029 C 
ENDBRANCH   1   3
BRANCH   1  15
ATOM     13  C   UNL     1       1.025  -0.670   0.024  0.00  0.00    +0.038 A 
ATOM     14  C   UNL     1       2.281  -0.092  -0.011  0.00  0.00    +0.047 A 
ATOM     15  C   UNL     1       2.363   1.301   0.011  0.00  0.00    +0.139 A 
ATOM     16  N   UNL     1       1.252   2.030   0.063  0.00  0.00    -0.158 NA
ATOM     17  N   UNL     1       0.085   1.496   0.096  0.00  0.00    -0.269 N 
ATOM     18  C   UNL     1      -0.089   0.179   0.079  0.00  0.00    +0.145 A 
ATOM     19  H   UNL     1      -0.694   2.072   0.134  0.00  0.00    +0.189 HD
BRANCH  18  20
ATOM     20  C   UNL     1      -1.450  -0.389   0.117  0.00  0.00    +0.404 C 
ATOM     21  O   UNL     1      -2.421   0.354   0.165  0.00  0.00    -0.239 OA
ATOM     22  O   UNL     1      -1.608  -1.601   0.101  0.00  0.00    -0.239 OA
ENDBRANCH  18  20
ENDBRANCH   1  15
TORSDOF 3
