REMARK  Name = ZINC38965623
REMARK  7 active torsions:
REMARK  status: ('A' for Active; 'I' for Inactive)
REMARK    1  A    between atoms: C_1  and  C_2
REMARK    2  A    between atoms: C_2  and  O_3
REMARK    3  A    between atoms: O_3  and  C_4
REMARK    4  A    between atoms: C_9  and  N_10
REMARK    5  A    between atoms: N_10  and  C_11
REMARK    6  A    between atoms: N_14  and  S_15
REMARK    7  A    between atoms: S_15  and  C_18
REMARK                            x       y       z     vdW  Elec       q    Type
REMARK                         _______ _______ _______ _____ _____    ______ ____
ROOT
ATOM      1  C   UNL     1       2.719  -2.012  -4.547  0.00  0.00    +0.237 C 
ATOM      2  C   UNL     1       4.058  -1.310  -4.574  0.00  0.00    +0.192 C 
ATOM      3  N   UNL     1       4.845  -1.351  -3.540  0.00  0.00    -0.110 NA
ATOM      4  N   UNL     1       4.422  -0.644  -5.682  0.00  0.00    -0.226 NA
ATOM      5  C   UNL     1       3.643  -0.589  -6.742  0.00  0.00    +0.089 A 
ATOM      6  C   UNL     1       4.060   0.123  -7.895  0.00  0.00    +0.030 A 
ATOM      7  C   UNL     1       3.264   0.184  -8.985  0.00  0.00    +0.002 A 
ATOM      8  C   UNL     1       2.006  -0.439  -9.043  0.00  0.00    +0.002 A 
ATOM      9  C   UNL     1       1.513  -1.143  -8.000  0.00  0.00    +0.027 A 
ATOM     10  C   UNL     1       2.318  -1.257  -6.775  0.00  0.00    +0.063 A 
ATOM     11  N   UNL     1       1.875  -1.928  -5.750  0.00  0.00    -0.359 N 
ATOM     12  H   UNL     1       1.008  -2.362  -5.779  0.00  0.00    +0.162 HD
ENDROOT
BRANCH   3  13
ATOM     13  S   UNL     1       6.309  -0.578  -3.583  0.00  0.00    +0.100 S 
ATOM     14  O   UNL     1       7.097  -1.253  -4.554  0.00  0.00    -0.146 OA
ATOM     15  O   UNL     1       6.031   0.814  -3.661  0.00  0.00    -0.146 OA
BRANCH  13  16
ATOM     16  C   UNL     1       7.087  -0.849  -2.026  0.00  0.00    +0.113 A 
ATOM     17  C   UNL     1       6.875   0.035  -0.984  0.00  0.00    +0.032 A 
ATOM     18  C   UNL     1       7.485  -0.177   0.238  0.00  0.00    +0.040 A 
ATOM     19  C   UNL     1       8.308  -1.275   0.419  0.00  0.00    +0.124 A 
ATOM     20  C   UNL     1       8.519  -2.160  -0.625  0.00  0.00    +0.040 A 
ATOM     21  C   UNL     1       7.905  -1.949  -1.844  0.00  0.00    +0.032 A 
ATOM     22  F   UNL     1       8.905  -1.483   1.613  0.00  0.00    -0.205 F 
ENDBRANCH  13  16
ENDBRANCH   3  13
BRANCH   1  23
ATOM     23  N   UNL     1       1.952  -1.469  -3.424  0.00  0.00    -0.315 N 
ATOM     24  H   UNL     1       1.845  -0.509  -3.328  0.00  0.00    +0.149 HD
BRANCH  23  30
ATOM     25  C   UNL     1       0.761  -1.820  -1.347  0.00  0.00    +0.141 A 
ATOM     26  C   UNL     1       0.184  -2.680  -0.427  0.00  0.00    +0.047 A 
ATOM     27  C   UNL     1       0.221  -4.046  -0.640  0.00  0.00    +0.004 A 
ATOM     28  C   UNL     1       0.833  -4.557  -1.770  0.00  0.00    +0.002 A 
ATOM     29  C   UNL     1       1.411  -3.705  -2.692  0.00  0.00    +0.026 A 
ATOM     30  C   UNL     1       1.373  -2.334  -2.488  0.00  0.00    +0.071 A 
BRANCH  25  31
ATOM     31  O   UNL     1       0.725  -0.476  -1.139  0.00  0.00    -0.490 OA
BRANCH  31  33
ATOM     32  C   UNL     1       0.141   1.506   0.113  0.00  0.00    +0.048 C 
ATOM     33  C   UNL     1       0.081  -0.021   0.053  0.00  0.00    +0.226 C 
ENDBRANCH  31  33
ENDBRANCH  25  31
ENDBRANCH  23  30
ENDBRANCH   1  23
TORSDOF 6
