REMARK  Name = ZINC06072593
REMARK  4 active torsions:
REMARK  status: ('A' for Active; 'I' for Inactive)
REMARK    1  A    between atoms: C_1  and  C_2
REMARK    2  A    between atoms: C_7  and  C_8
REMARK    3  A    between atoms: C_8  and  C_9
REMARK    4  A    between atoms: N_15  and  C_16
REMARK                            x       y       z     vdW  Elec       q    Type
REMARK                         _______ _______ _______ _____ _____    ______ ____
ROOT
ATOM      1  C   UNL     1      -0.911   0.697   2.547  0.00  0.00    +0.144 C 
ATOM      2  C   UNL     1      -1.317   1.301   3.883  0.00  0.00    +0.232 C 
ATOM      3  O   UNL     1      -0.839   0.926   4.932  0.00  0.00    -0.274 OA
ATOM      4  N   UNL     1      -2.223   2.262   3.827  0.00  0.00    -0.264 N 
ATOM      5  C   UNL     1      -2.771   2.695   2.645  0.00  0.00    +0.164 C 
ATOM      6  N   UNL     1      -3.677   3.640   2.463  0.00  0.00    -0.193 NA
ATOM      7  S   UNL     1      -1.970   1.682   1.408  0.00  0.00    -0.077 S 
ATOM      8  H   UNL     1      -2.513   2.678   4.654  0.00  0.00    +0.157 HD
ENDROOT
BRANCH   6   9
ATOM      9  C   UNL     1      -4.133   3.905   1.228  0.00  0.00    +0.195 C 
ATOM     10  N   UNL     1      -4.277   5.173   0.825  0.00  0.00    -0.370 N 
ATOM     11  N   UNL     1      -4.444   2.900   0.399  0.00  0.00    -0.370 N 
ATOM     12  H   UNL     1      -4.052   5.901   1.425  0.00  0.00    +0.159 HD
ATOM     13  H   UNL     1      -4.473   1.989   0.731  0.00  0.00    +0.159 HD
ATOM     14  H   UNL     1      -4.639   3.083  -0.533  0.00  0.00    +0.159 HD
ATOM     15  H   UNL     1      -4.607   5.365  -0.067  0.00  0.00    +0.159 HD
ENDBRANCH   6   9
BRANCH   1  16
ATOM     16  C   UNL     1       0.574   0.928   2.262  0.00  0.00    +0.059 C 
BRANCH  16  23
ATOM     17  C   UNL     1       1.258  -1.859   1.923  0.00  0.00    +0.044 C 
ATOM     18  C   UNL     1       1.238  -0.938   0.731  0.00  0.00    -0.047 A 
ATOM     19  C   UNL     1       1.542  -1.427  -0.526  0.00  0.00    +0.003 A 
ATOM     20  C   UNL     1       1.523  -0.582  -1.620  0.00  0.00    +0.000 A 
ATOM     21  C   UNL     1       1.201   0.753  -1.457  0.00  0.00    +0.000 A 
ATOM     22  C   UNL     1       0.897   1.242  -0.201  0.00  0.00    +0.004 A 
ATOM     23  C   UNL     1       0.911   0.396   0.893  0.00  0.00    -0.043 A 
ENDBRANCH  16  23
ENDBRANCH   1  16
TORSDOF 3
