REMARK  Name = ZINC10695464
REMARK  10 active torsions:
REMARK  status: ('A' for Active; 'I' for Inactive)
REMARK    1  A    between atoms: C_1  and  C_2
REMARK    2  A    between atoms: C_5  and  N_9
REMARK    3  A    between atoms: C_6  and  C_8
REMARK    4  A    between atoms: C_12  and  C_15
REMARK    5  A    between atoms: C_15  and  O_16
REMARK    6  A    between atoms: O_16  and  C_17
REMARK    7  A    between atoms: C_17  and  C_19
REMARK    8  A    between atoms: C_19  and  N_20
REMARK    9  A    between atoms: C_28  and  C_30
REMARK   10  A    between atoms: C_34  and  C_36
REMARK                            x       y       z     vdW  Elec       q    Type
REMARK                         _______ _______ _______ _____ _____    ______ ____
ROOT
ATOM      1  C   UNL     1       4.508   0.647  -3.094  0.00  0.00    +0.288 C 
ENDROOT
BRANCH   1   5
ATOM      2  N   UNL     1       8.441  -0.875  -5.596  0.00  0.00    -0.219 N 
ATOM      3  C   UNL     1       7.698  -0.589  -4.454  0.00  0.00    +0.172 A 
ATOM      4  N   UNL     1       6.472  -0.114  -4.361  0.00  0.00    -0.226 NA
ATOM      5  C   UNL     1       5.910   0.102  -3.189  0.00  0.00    +0.088 A 
ATOM      6  C   UNL     1       6.624  -0.172  -2.070  0.00  0.00    +0.075 A 
ATOM      7  S   UNL     1       8.148  -0.767  -2.787  0.00  0.00    -0.060 S 
ATOM      8  C   UNL     1       7.909  -0.665  -6.816  0.00  0.00    +0.223 C 
ATOM      9  O   UNL     1       6.782  -0.228  -6.919  0.00  0.00    -0.275 OA
ATOM     10  C   UNL     1       8.713  -0.975  -8.052  0.00  0.00    +0.110 C 
BRANCH   2  15
ATOM     11  C   UNL     1      13.711  -2.922  -5.112  0.00  0.00    +0.044 C 
ATOM     12  C   UNL     1      12.311  -2.379  -5.241  0.00  0.00    -0.050 A 
ATOM     13  C   UNL     1      11.237  -3.247  -5.302  0.00  0.00    +0.005 A 
ATOM     14  C   UNL     1       9.953  -2.752  -5.414  0.00  0.00    +0.024 A 
ATOM     15  C   UNL     1       9.742  -1.380  -5.476  0.00  0.00    +0.046 A 
ATOM     16  C   UNL     1      10.823  -0.511  -5.414  0.00  0.00    -0.028 A 
ATOM     17  C   UNL     1      12.104  -1.013  -5.297  0.00  0.00    +0.008 A 
ATOM     18  C   UNL     1      10.598   0.978  -5.476  0.00  0.00    +0.046 C 
ENDBRANCH   2  15
ENDBRANCH   1   5
BRANCH   1  19
ATOM     19  O   UNL     1       4.136   0.789  -1.698  0.00  0.00    -0.457 OA
BRANCH  19  20
ATOM     20  C   UNL     1       2.909   1.266  -1.439  0.00  0.00    +0.326 C 
ATOM     21  O   UNL     1       2.169   1.555  -2.349  0.00  0.00    -0.249 OA
BRANCH  20  22
ATOM     22  C   UNL     1       2.453   1.440  -0.013  0.00  0.00    +0.238 C 
BRANCH  22  23
ATOM     23  N   UNL     1       1.088   1.971   0.002  0.00  0.00    -0.213 N 
ATOM     24  C   UNL     1       0.785   3.285   0.012  0.00  0.00    +0.247 C 
ATOM     25  O   UNL     1       1.561   4.217   0.010  0.00  0.00    -0.273 OA
ATOM     26  C   UNL     1      -0.725   3.352   0.027  0.00  0.00    +0.115 C 
ATOM     27  C   UNL     1      -1.237   4.066  -1.219  0.00  0.00    +0.035 C 
ATOM     28  C   UNL     1      -2.767   4.099  -1.199  0.00  0.00    +0.003 C 
ATOM     29  C   UNL     1      -3.244   4.828   0.059  0.00  0.00    +0.000 C 
ATOM     30  C   UNL     1      -2.743   4.086   1.300  0.00  0.00    +0.006 C 
ATOM     31  C   UNL     1      -1.213   4.053   1.290  0.00  0.00    +0.018 C 
ATOM     32  C   UNL     1      -0.712   3.293   2.520  0.00  0.00    +0.010 C 
ATOM     33  N   UNL     1      -1.144   1.945   0.018  0.00  0.00    -0.285 N 
ATOM     34  C   UNL     1      -0.014   1.211   0.009  0.00  0.00    +0.310 C 
ATOM     35  O   UNL     1       0.002  -0.004   0.002  0.00  0.00    -0.252 OA
ATOM     36  H   UNL     1      -2.054   1.610   0.019  0.00  0.00    +0.151 HD
ENDBRANCH  22  23
ENDBRANCH  20  22
ENDBRANCH  19  20
ENDBRANCH   1  19
TORSDOF 6
