REMARK  Name = ZINC18123151
REMARK  5 active torsions:
REMARK  status: ('A' for Active; 'I' for Inactive)
REMARK    1  A    between atoms: C_4  and  N_7
REMARK    2  A    between atoms: C_12  and  C_15
REMARK    3  A    between atoms: C_15  and  C_16
REMARK    4  A    between atoms: N_18  and  C_19
REMARK    5  A    between atoms: C_22  and  N_25
REMARK                            x       y       z     vdW  Elec       q    Type
REMARK                         _______ _______ _______ _____ _____    ______ ____
ROOT
ATOM      1  N   UNL     1       3.614  -0.637  -0.055  0.00  0.00    -0.226 NA
ATOM      2  C   UNL     1       3.802  -1.659   0.747  0.00  0.00    +0.161 C 
ATOM      3  N   UNL     1       2.918  -2.199   1.658  0.00  0.00    -0.264 N 
ATOM      4  C   UNL     1       3.227  -3.239   2.415  0.00  0.00    +0.232 C 
ATOM      5  O   UNL     1       2.445  -3.709   3.213  0.00  0.00    -0.274 OA
ATOM      6  C   UNL     1       4.624  -3.807   2.221  0.00  0.00    +0.149 C 
ATOM      7  S   UNL     1       5.258  -2.681   0.910  0.00  0.00    -0.077 S 
ATOM      8  H   UNL     1       2.038  -1.802   1.747  0.00  0.00    +0.157 HD
ENDROOT
BRANCH   1  12
ATOM      9  C   UNL     1       0.007   1.391  -0.016  0.00  0.00    +0.000 A 
ATOM     10  C   UNL     1       1.195   2.100  -0.029  0.00  0.00    +0.002 A 
ATOM     11  C   UNL     1       2.401   1.431  -0.042  0.00  0.00    +0.028 A 
ATOM     12  C   UNL     1       2.421   0.034  -0.042  0.00  0.00    +0.066 A 
ATOM     13  C   UNL     1       1.218  -0.675  -0.028  0.00  0.00    +0.028 A 
ATOM     14  C   UNL     1       0.019   0.008  -0.016  0.00  0.00    +0.002 A 
ENDBRANCH   1  12
BRANCH   6  15
ATOM     15  C   UNL     1       5.451  -3.696   3.503  0.00  0.00    +0.120 C 
BRANCH  15  16
ATOM     16  C   UNL     1       6.779  -4.379   3.305  0.00  0.00    +0.219 C 
ATOM     17  O   UNL     1       7.039  -4.903   2.242  0.00  0.00    -0.275 OA
ATOM     18  N   UNL     1       7.679  -4.408   4.308  0.00  0.00    -0.285 N 
ATOM     19  H   UNL     1       7.499  -3.933   5.134  0.00  0.00    +0.155 HD
BRANCH  18  20
ATOM     20  C   UNL     1       8.871  -5.124   4.158  0.00  0.00    +0.034 A 
ATOM     21  C   UNL     1       9.430  -5.782   5.246  0.00  0.00    +0.025 A 
ATOM     22  C   UNL     1      10.607  -6.488   5.095  0.00  0.00    +0.034 A 
ATOM     23  C   UNL     1      11.230  -6.540   3.862  0.00  0.00    +0.126 A 
ATOM     24  C   UNL     1      10.677  -5.886   2.776  0.00  0.00    +0.034 A 
ATOM     25  C   UNL     1       9.497  -5.183   2.919  0.00  0.00    +0.025 A 
BRANCH  23  26
ATOM     26  N   UNL     1      12.492  -7.297   3.703  0.00  0.00    +0.056 N 
ATOM     27  O   UNL     1      12.977  -7.870   4.651  0.00  0.00    -0.126 OA
ATOM     28  O   UNL     1      13.038  -7.344   2.625  0.00  0.00    -0.126 OA
ENDBRANCH  23  26
ENDBRANCH  18  20
ENDBRANCH  15  16
ENDBRANCH   6  15
TORSDOF 5
