REMARK  Name = ZINC40129759
REMARK  9 active torsions:
REMARK  status: ('A' for Active; 'I' for Inactive)
REMARK    1  A    between atoms: C_1  and  C_2
REMARK    2  A    between atoms: C_2  and  O_3
REMARK    3  A    between atoms: O_3  and  C_4
REMARK    4  A    between atoms: C_6  and  C_24
REMARK    5  A    between atoms: C_9  and  O_10
REMARK    6  A    between atoms: O_10  and  C_11
REMARK    7  A    between atoms: C_11  and  C_13
REMARK    8  A    between atoms: C_29  and  C_36
REMARK    9  A    between atoms: C_31  and  C_35
REMARK                            x       y       z     vdW  Elec       q    Type
REMARK                         _______ _______ _______ _____ _____    ______ ____
ROOT
ATOM      1  C   UNL     1      -1.903  -2.163  -0.110  0.00  0.00    +0.163 A 
ATOM      2  C   UNL     1      -0.692  -2.826  -0.087  0.00  0.00    +0.057 A 
ATOM      3  C   UNL     1      -0.666  -4.226  -0.056  0.00  0.00    -0.018 A 
ATOM      4  C   UNL     1      -1.868  -4.945  -0.047  0.00  0.00    +0.012 A 
ATOM      5  C   UNL     1      -3.070  -4.275  -0.070  0.00  0.00    +0.051 A 
ATOM      6  C   UNL     1      -3.096  -2.886  -0.096  0.00  0.00    +0.173 A 
ENDROOT
BRANCH   3   7
ATOM      7  C   UNL     1       0.618  -4.938  -0.032  0.00  0.00    +0.058 C 
ATOM      8  C   UNL     1       0.644  -6.285   0.133  0.00  0.00    +0.176 C 
ATOM      9  C   UNL     1       1.831  -7.148   0.043  0.00  0.00    +0.232 C 
ATOM     10  O   UNL     1       2.980  -6.815  -0.190  0.00  0.00    -0.283 OA
ATOM     11  C   UNL     1       1.318  -8.508   0.299  0.00  0.00    +0.070 A 
ATOM     12  C   UNL     1       1.925  -9.762   0.355  0.00  0.00    -0.036 A 
ATOM     13  C   UNL     1       1.162 -10.879   0.622  0.00  0.00    +0.007 A 
ATOM     14  C   UNL     1      -0.202 -10.753   0.834  0.00  0.00    -0.047 A 
ATOM     15  C   UNL     1      -0.813  -9.518   0.780  0.00  0.00    +0.050 A 
ATOM     16  C   UNL     1      -0.062  -8.377   0.513  0.00  0.00    +0.140 A 
ATOM     17  O   UNL     1      -0.416  -7.078   0.415  0.00  0.00    -0.451 OA
ATOM     18  C   UNL     1      -1.027 -11.980   1.126  0.00  0.00    +0.044 C 
ATOM     19  C   UNL     1       3.408  -9.897   0.124  0.00  0.00    +0.044 C 
ENDBRANCH   3   7
BRANCH   1  20
ATOM     20  O   UNL     1      -1.933  -0.804  -0.141  0.00  0.00    -0.489 OA
BRANCH  20  22
ATOM     21  C   UNL     1      -0.909   1.384  -0.188  0.00  0.00    +0.048 C 
ATOM     22  C   UNL     1      -0.675  -0.127  -0.154  0.00  0.00    +0.226 C 
ENDBRANCH  20  22
ENDBRANCH   1  20
BRANCH   6  23
ATOM     23  O   UNL     1      -4.285  -2.231  -0.113  0.00  0.00    -0.419 OA
BRANCH  23  24
ATOM     24  C   UNL     1      -4.795  -1.880  -1.305  0.00  0.00    +0.357 C 
ATOM     25  O   UNL     1      -4.245  -2.228  -2.323  0.00  0.00    -0.246 OA
BRANCH  24  26
ATOM     26  C   UNL     1      -6.052  -1.052  -1.373  0.00  0.00    +0.319 C 
ATOM     27  C   UNL     1      -5.787   0.341  -0.785  0.00  0.00    +0.285 C 
ATOM     28  O   UNL     1      -6.995   1.104  -0.877  0.00  0.00    -0.484 OA
ATOM     29  C   UNL     1      -7.654   1.063  -2.067  0.00  0.00    +0.162 A 
ATOM     30  C   UNL     1      -8.603   2.033  -2.354  0.00  0.00    +0.049 A 
ATOM     31  C   UNL     1      -9.283   2.003  -3.556  0.00  0.00    +0.004 A 
ATOM     32  C   UNL     1      -9.019   1.006  -4.477  0.00  0.00    +0.004 A 
ATOM     33  C   UNL     1      -8.074   0.037  -4.199  0.00  0.00    +0.049 A 
ATOM     34  C   UNL     1      -7.387   0.063  -2.994  0.00  0.00    +0.163 A 
ATOM     35  O   UNL     1      -6.453  -0.894  -2.738  0.00  0.00    -0.470 OA
ENDBRANCH  24  26
ENDBRANCH  23  24
ENDBRANCH   6  23
TORSDOF 6
