REMARK  Name = ZINC63731552
REMARK  9 active torsions:
REMARK  status: ('A' for Active; 'I' for Inactive)
REMARK    1  A    between atoms: C_1  and  C_2
REMARK    2  A    between atoms: C_4  and  N_9
REMARK    3  A    between atoms: C_10  and  S_21
REMARK    4  A    between atoms: C_15  and  C_18
REMARK    5  A    between atoms: S_21  and  C_22
REMARK    6  A    between atoms: C_22  and  C_23
REMARK    7  A    between atoms: N_25  and  C_26
REMARK    8  A    between atoms: C_31  and  O_32
REMARK    9  A    between atoms: O_32  and  C_33
REMARK                            x       y       z     vdW  Elec       q    Type
REMARK                         _______ _______ _______ _____ _____    ______ ____
ROOT
ATOM      1  N   UNL     1      -0.015  -2.841  -2.438  0.00  0.00    -0.253 N 
ATOM      2  C   UNL     1       0.113  -4.300  -2.490  0.00  0.00    +0.260 C 
ATOM      3  N   UNL     1      -0.886  -4.924  -3.364  0.00  0.00    -0.230 NA
ATOM      4  C   UNL     1      -1.368  -4.273  -4.372  0.00  0.00    +0.185 C 
ATOM      5  C   UNL     1      -1.013  -2.831  -4.607  0.00  0.00    +0.083 C 
ATOM      6  C   UNL     1      -1.666  -2.482  -5.719  0.00  0.00    +0.075 C 
ATOM      7  N   UNL     1      -2.380  -3.549  -6.139  0.00  0.00    -0.152 NA
ATOM      8  N   UNL     1      -2.231  -4.576  -5.373  0.00  0.00    -0.129 NA
ATOM      9  C   UNL     1      -1.617  -1.132  -6.388  0.00  0.00    +0.068 C 
ATOM     10  C   UNL     1      -0.126  -2.141  -3.653  0.00  0.00    +0.133 C 
ATOM     11  N   UNL     1       0.483  -1.015  -3.907  0.00  0.00    -0.285 NA
ATOM     12  H   UNL     1       0.364  -0.582  -4.767  0.00  0.00    +0.188 HD
ENDROOT
BRANCH   1  16
ATOM     13  C   UNL     1      -0.122   1.396   0.052  0.00  0.00    +0.045 C 
ATOM     14  C   UNL     1      -0.084  -0.110   0.022  0.00  0.00    -0.030 A 
ATOM     15  C   UNL     1      -0.067  -0.776  -1.188  0.00  0.00    +0.028 A 
ATOM     16  C   UNL     1      -0.032  -2.164  -1.214  0.00  0.00    +0.038 A 
ATOM     17  C   UNL     1      -0.014  -2.879  -0.023  0.00  0.00    +0.025 A 
ATOM     18  C   UNL     1      -0.031  -2.208   1.183  0.00  0.00    +0.022 A 
ATOM     19  C   UNL     1      -0.060  -0.825   1.207  0.00  0.00    +0.044 A 
ATOM     20 CL   UNL     1      -0.075   0.016   2.726  0.00  0.00    -0.083 Cl
ENDBRANCH   1  16
BRANCH   2  21
ATOM     21  S   UNL     1       1.768  -4.723  -3.100  0.00  0.00    -0.106 S 
BRANCH  21  22
ATOM     22  C   UNL     1       1.835  -3.965  -4.747  0.00  0.00    +0.168 C 
BRANCH  22  23
ATOM     23  C   UNL     1       3.177  -4.243  -5.374  0.00  0.00    +0.227 C 
ATOM     24  O   UNL     1       4.006  -4.890  -4.769  0.00  0.00    -0.275 OA
ATOM     25  N   UNL     1       3.455  -3.774  -6.606  0.00  0.00    -0.282 N 
ATOM     26  H   UNL     1       2.826  -3.188  -7.056  0.00  0.00    +0.155 HD
BRANCH  25  27
ATOM     27  C   UNL     1       4.653  -4.133  -7.239  0.00  0.00    +0.076 A 
ATOM     28  C   UNL     1       5.200  -5.391  -7.030  0.00  0.00    +0.027 A 
ATOM     29  C   UNL     1       6.381  -5.743  -7.655  0.00  0.00    +0.002 A 
ATOM     30  C   UNL     1       7.021  -4.844  -8.488  0.00  0.00    +0.004 A 
ATOM     31  C   UNL     1       6.482  -3.589  -8.701  0.00  0.00    +0.047 A 
ATOM     32  C   UNL     1       5.295  -3.230  -8.083  0.00  0.00    +0.141 A 
BRANCH  32  33
ATOM     33  O   UNL     1       4.761  -1.998  -8.295  0.00  0.00    -0.493 OA
ATOM     34  C   UNL     1       5.474  -1.125  -9.173  0.00  0.00    +0.277 C 
ENDBRANCH  32  33
ENDBRANCH  25  27
ENDBRANCH  22  23
ENDBRANCH  21  22
ENDBRANCH   2  21
TORSDOF 6
