REMARK  Name = ZINC20732844
REMARK  9 active torsions:
REMARK  status: ('A' for Active; 'I' for Inactive)
REMARK    1  A    between atoms: C_1  and  O_2
REMARK    2  A    between atoms: O_2  and  C_3
REMARK    3  A    between atoms: C_3  and  C_5
REMARK    4  A    between atoms: C_5  and  C_7
REMARK    5  A    between atoms: C_5  and  N_11
REMARK    6  A    between atoms: C_7  and  C_8
REMARK    7  A    between atoms: C_8  and  S_9
REMARK    8  A    between atoms: S_9  and  C_10
REMARK    9  A    between atoms: C_23  and  C_25
REMARK                            x       y       z     vdW  Elec       q    Type
REMARK                         _______ _______ _______ _____ _____    ______ ____
ROOT
ATOM      1  N   UNL     1      -2.689  -2.357   2.447  0.00  0.00    -0.286 N 
ATOM      2  C   UNL     1      -3.262  -2.656   1.264  0.00  0.00    +0.304 C 
ATOM      3  O   UNL     1      -2.655  -2.465   0.229  0.00  0.00    -0.253 OA
ATOM      4  N   UNL     1      -4.509  -3.167   1.230  0.00  0.00    -0.273 N 
ATOM      5  C   UNL     1      -5.107  -3.607  -0.040  0.00  0.00    +0.116 C 
ATOM      6  C   UNL     1      -6.322  -2.725  -0.354  0.00  0.00    +0.074 C 
ATOM      7  C   UNL     1      -7.145  -2.568   0.897  0.00  0.00    +0.040 A 
ATOM      8  C   UNL     1      -6.702  -2.815   2.148  0.00  0.00    +0.062 A 
ATOM      9  N   UNL     1      -7.699  -2.564   3.000  0.00  0.00    -0.348 N 
ATOM     10  C   UNL     1      -8.748  -2.172   2.325  0.00  0.00    +0.171 A 
ATOM     11  N   UNL     1      -8.441  -2.163   1.008  0.00  0.00    -0.349 N 
ATOM     12  H   UNL     1      -9.032  -1.915   0.280  0.00  0.00    +0.166 HD
ATOM     13  C   UNL     1      -5.304  -3.303   2.463  0.00  0.00    +0.159 C 
ATOM     14  H   UNL     1      -3.198  -2.444   3.268  0.00  0.00    +0.151 HD
ATOM     15  H   UNL     1      -7.652  -2.657   3.964  0.00  0.00    +0.167 HD
ENDROOT
BRANCH  13  16
ATOM     16  C   UNL     1      -5.345  -4.748   2.890  0.00  0.00    +0.017 A 
ATOM     17  C   UNL     1      -6.474  -5.507   2.650  0.00  0.00    +0.011 A 
ATOM     18  C   UNL     1      -6.514  -6.833   3.040  0.00  0.00    +0.042 A 
ATOM     19  C   UNL     1      -5.422  -7.402   3.672  0.00  0.00    +0.161 A 
ATOM     20  C   UNL     1      -4.289  -6.643   3.914  0.00  0.00    +0.194 A 
ATOM     21  C   UNL     1      -4.249  -5.315   3.517  0.00  0.00    +0.167 A 
ATOM     22  F   UNL     1      -3.143  -4.574   3.747  0.00  0.00    -0.202 F 
ATOM     23  F   UNL     1      -3.223  -7.196   4.532  0.00  0.00    -0.199 F 
ATOM     24  F   UNL     1      -5.462  -8.697   4.054  0.00  0.00    -0.202 F 
ENDBRANCH  13  16
BRANCH   1  25
ATOM     25  C   UNL     1      -1.298  -1.900   2.492  0.00  0.00    +0.184 C 
BRANCH  25  26
ATOM     26  C   UNL     1      -0.378  -3.094   2.512  0.00  0.00    +0.327 C 
ATOM     27  O   UNL     1      -0.837  -4.211   2.491  0.00  0.00    -0.249 OA
BRANCH  26  29
ATOM     28  C   UNL     1       1.764  -4.091   2.570  0.00  0.00    +0.280 C 
ATOM     29  O   UNL     1       0.952  -2.915   2.554  0.00  0.00    -0.467 OA
ENDBRANCH  26  29
ENDBRANCH  25  26
BRANCH  25  30
ATOM     30  C   UNL     1      -1.077  -1.064   3.755  0.00  0.00    +0.044 C 
BRANCH  30  31
ATOM     31  C   UNL     1      -1.919   0.210   3.676  0.00  0.00    +0.071 C 
BRANCH  31  32
ATOM     32  S   UNL     1      -1.656   1.202   5.173  0.00  0.00    -0.164 S 
ATOM     33  C   UNL     1      -2.710   2.657   4.926  0.00  0.00    +0.084 C 
ENDBRANCH  31  32
ENDBRANCH  30  31
ENDBRANCH  25  30
ENDBRANCH   1  25
TORSDOF 7
