REMARK  Name = ZINC44033047
REMARK  8 active torsions:
REMARK  status: ('A' for Active; 'I' for Inactive)
REMARK    1  A    between atoms: C_1  and  C_2
REMARK    2  A    between atoms: C_3  and  C_22
REMARK    3  A    between atoms: N_5  and  C_8
REMARK    4  A    between atoms: C_6  and  C_7
REMARK    5  A    between atoms: C_8  and  C_9
REMARK    6  A    between atoms: C_9  and  C_11
REMARK    7  A    between atoms: C_9  and  N_20
REMARK    8  A    between atoms: N_20  and  C_21
REMARK                            x       y       z     vdW  Elec       q    Type
REMARK                         _______ _______ _______ _____ _____    ______ ____
ROOT
ATOM      1  C   UNL     1       1.582  -3.509   1.650  0.00  0.00    -0.019 C 
ENDROOT
BRANCH   1   2
ATOM      2  C   UNL     1       1.508  -4.601   2.686  0.00  0.00    -0.056 A 
ATOM      3  C   UNL     1       1.075  -5.864   2.328  0.00  0.00    +0.006 A 
ATOM      4  C   UNL     1       1.006  -6.868   3.275  0.00  0.00    +0.050 A 
ATOM      5  C   UNL     1       1.372  -6.611   4.587  0.00  0.00    +0.166 A 
ATOM      6  C   UNL     1       1.808  -5.339   4.947  0.00  0.00    +0.166 A 
ATOM      7  C   UNL     1       1.880  -4.338   3.991  0.00  0.00    +0.051 A 
ATOM      8  O   UNL     1       2.106  -5.341   6.279  0.00  0.00    -0.453 OA
ATOM      9  C   UNL     1       1.461  -6.511   6.816  0.00  0.00    +0.466 C 
ATOM     10  O   UNL     1       1.396  -7.410   5.693  0.00  0.00    -0.453 OA
ENDBRANCH   1   2
BRANCH   1  11
ATOM     11  N   UNL     1       2.083  -4.067   0.386  0.00  0.00    +0.383 N 
ATOM     12  C   UNL     1       3.470  -4.516   0.566  0.00  0.00    -0.100 C 
ATOM     13  H   UNL     1       1.509  -4.849   0.113  0.00  0.00    -0.085 HD
ATOM     14  H   UNL     1       2.050  -3.358  -0.331  0.00  0.00    -0.085 HD
ENDBRANCH   1  11
BRANCH   1  15
ATOM     15  C   UNL     1       0.187  -2.920   1.429  0.00  0.00    +0.132 C 
BRANCH  15  20
ATOM     16  C   UNL     1       0.805   1.721  -0.358  0.00  0.00    +0.047 C 
ATOM     17  C   UNL     1       0.545   0.239  -0.271  0.00  0.00    -0.007 A 
ATOM     18  C   UNL     1       0.252  -0.609  -1.343  0.00  0.00    +0.063 A 
ATOM     19  N   UNL     1       0.091  -1.820  -0.874  0.00  0.00    -0.176 NA
ATOM     20  N   UNL     1       0.277  -1.780   0.514  0.00  0.00    -0.269 N 
ATOM     21  C   UNL     1       0.560  -0.506   0.859  0.00  0.00    +0.039 A 
ATOM     22  C   UNL     1       0.838  -0.003   2.252  0.00  0.00    +0.065 C 
ATOM     23  C   UNL     1       0.141  -0.200  -2.789  0.00  0.00    +0.068 C 
ENDBRANCH  15  20
ENDBRANCH   1  15
TORSDOF 4
