REMARK  Name = ZINC17446440
REMARK  11 active torsions:
REMARK  status: ('A' for Active; 'I' for Inactive)
REMARK    1  A    between atoms: C_1  and  C_2
REMARK    2  A    between atoms: C_5  and  S_8
REMARK    3  A    between atoms: S_8  and  N_11
REMARK    4  A    between atoms: N_11  and  C_12
REMARK    5  A    between atoms: C_12  and  C_14
REMARK    6  A    between atoms: C_12  and  C_18
REMARK    7  A    between atoms: C_14  and  C_15
REMARK    8  A    between atoms: C_15  and  S_16
REMARK    9  A    between atoms: S_16  and  C_17
REMARK   10  A    between atoms: N_20  and  N_21
REMARK   11  A    between atoms: C_22  and  C_24
REMARK                            x       y       z     vdW  Elec       q    Type
REMARK                         _______ _______ _______ _____ _____    ______ ____
ROOT
ATOM      1  C   UNL     1       3.266   4.095   0.113  0.00  0.00    +0.164 C 
ENDROOT
BRANCH   1   2
ATOM      2  C   UNL     1       3.396   5.592  -0.002  0.00  0.00    +0.248 C 
ATOM      3  O   UNL     1       3.951   6.222   0.873  0.00  0.00    -0.273 OA
ATOM      4  N   UNL     1       2.895   6.231  -1.078  0.00  0.00    -0.233 N 
ATOM      5  H   UNL     1       2.450   5.728  -1.778  0.00  0.00    +0.173 HD
BRANCH   4   6
ATOM      6  N   UNL     1       3.015   7.623  -1.185  0.00  0.00    -0.230 N 
ATOM      7  C   UNL     1       2.514   8.262  -2.261  0.00  0.00    +0.267 C 
ATOM      8  O   UNL     1       1.957   7.630  -3.139  0.00  0.00    -0.268 OA
ATOM      9  H   UNL     1       3.459   8.127  -0.485  0.00  0.00    +0.173 HD
BRANCH   7  10
ATOM     10  C   UNL     1       2.640   9.718  -2.373  0.00  0.00    +0.076 A 
ATOM     11  C   UNL     1       2.203  10.555  -3.379  0.00  0.00    +0.024 A 
ATOM     12  C   UNL     1       2.447  11.922  -3.252  0.00  0.00    -0.036 A 
ATOM     13  C   UNL     1       3.107  12.324  -2.133  0.00  0.00    -0.006 A 
ATOM     14  S   UNL     1       3.393  10.872  -1.241  0.00  0.00    -0.088 S 
ATOM     15  C   UNL     1       3.316  13.813  -2.110  0.00  0.00    +0.043 C 
ATOM     16  C   UNL     1       3.085  14.263  -3.569  0.00  0.00    +0.010 C 
ATOM     17  C   UNL     1       2.143  13.163  -4.096  0.00  0.00    +0.036 C 
ENDBRANCH   7  10
ENDBRANCH   4   6
ENDBRANCH   1   2
BRANCH   1  18
ATOM     18  N   UNL     1       3.885   3.646   1.362  0.00  0.00    -0.178 NA
ATOM     19  H   UNL     1       3.506   3.912   2.215  0.00  0.00    +0.149 HD
BRANCH  18  20
ATOM     20  S   UNL     1       5.234   2.686   1.319  0.00  0.00    +0.059 S 
ATOM     21  O   UNL     1       5.603   2.444   2.670  0.00  0.00    -0.153 OA
ATOM     22  O   UNL     1       4.954   1.633   0.406  0.00  0.00    -0.153 OA
BRANCH  20  27
ATOM     23  C   UNL     1       9.677   5.954  -1.126  0.00  0.00    +0.044 C 
ATOM     24  C   UNL     1       8.567   5.137  -0.515  0.00  0.00    -0.050 A 
ATOM     25  C   UNL     1       8.370   5.153   0.853  0.00  0.00    +0.005 A 
ATOM     26  C   UNL     1       7.352   4.404   1.413  0.00  0.00    +0.029 A 
ATOM     27  C   UNL     1       6.531   3.640   0.605  0.00  0.00    +0.105 A 
ATOM     28  C   UNL     1       6.731   3.621  -0.762  0.00  0.00    +0.029 A 
ATOM     29  C   UNL     1       7.747   4.373  -1.323  0.00  0.00    +0.005 A 
ENDBRANCH  20  27
ENDBRANCH  18  20
ENDBRANCH   1  18
BRANCH   1  30
ATOM     30  C   UNL     1       1.785   3.710   0.111  0.00  0.00    +0.040 C 
BRANCH  30  31
ATOM     31  C   UNL     1       1.655   2.186   0.093  0.00  0.00    +0.071 C 
BRANCH  31  32
ATOM     32  S   UNL     1      -0.095   1.727   0.227  0.00  0.00    -0.164 S 
ATOM     33  C   UNL     1      -0.077  -0.087   0.192  0.00  0.00    +0.084 C 
ENDBRANCH  31  32
ENDBRANCH  30  31
ENDBRANCH   1  30
TORSDOF 9
