REMARK  Name = ZINC23128446
REMARK  5 active torsions:
REMARK  status: ('A' for Active; 'I' for Inactive)
REMARK    1  A    between atoms: C_2  and  C_13
REMARK    2  A    between atoms: C_3  and  C_7
REMARK    3  A    between atoms: C_18  and  N_21
REMARK    4  A    between atoms: C_23  and  C_26
REMARK    5  A    between atoms: C_26  and  O_27
REMARK                            x       y       z     vdW  Elec       q    Type
REMARK                         _______ _______ _______ _____ _____    ______ ____
ROOT
ATOM      1  C   UNL     1       0.920   7.044  -0.925  0.00  0.00    +0.250 C 
ATOM      2  O   UNL     1       0.941   7.305  -2.112  0.00  0.00    -0.270 OA
ATOM      3  N   UNL     1       1.724   6.081  -0.432  0.00  0.00    -0.297 N 
ATOM      4  C   UNL     1       2.562   5.274  -1.329  0.00  0.00    +0.110 C 
ATOM      5  C   UNL     1       2.284   3.791  -1.062  0.00  0.00    +0.046 C 
ATOM      6  C   UNL     1       2.492   3.497   0.425  0.00  0.00    +0.112 C 
ATOM      7  C   UNL     1       1.510   4.330   1.253  0.00  0.00    +0.046 C 
ATOM      8  C   UNL     1       1.780   5.818   1.012  0.00  0.00    +0.110 C 
ENDROOT
BRANCH   1  10
ATOM      9  C   UNL     1       0.361   8.392   1.165  0.00  0.00    +0.118 A 
ATOM     10  C   UNL     1       0.016   7.781  -0.024  0.00  0.00    +0.077 A 
ATOM     11  C   UNL     1      -1.366   8.001  -0.219  0.00  0.00    +0.078 A 
ATOM     12  N   UNL     1      -1.813   8.690   0.795  0.00  0.00    -0.178 NA
ATOM     13  N   UNL     1      -0.751   8.948   1.669  0.00  0.00    -0.284 N 
ATOM     14  H   UNL     1      -0.709   9.494   2.624  0.00  0.00    +0.188 HD
BRANCH  11  15
ATOM     15  C   UNL     1      -2.183   7.520  -1.391  0.00  0.00    +0.040 C 
ATOM     16  C   UNL     1      -2.793   8.722  -2.115  0.00  0.00    +0.010 C 
ATOM     17  C   UNL     1      -3.622   8.234  -3.305  0.00  0.00    +0.001 C 
ATOM     18  C   UNL     1      -4.740   7.317  -2.805  0.00  0.00    +0.000 C 
ATOM     19  C   UNL     1      -4.130   6.115  -2.082  0.00  0.00    +0.001 C 
ATOM     20  C   UNL     1      -3.301   6.603  -0.892  0.00  0.00    +0.010 C 
ENDBRANCH  11  15
ENDBRANCH   1  10
BRANCH   6  21
ATOM     21  N   UNL     1       2.259   2.073   0.679  0.00  0.00    -0.248 N 
ATOM     22  C   UNL     1       1.058   1.496   0.912  0.00  0.00    +0.136 A 
ATOM     23  C   UNL     1       1.303   0.176   1.092  0.00  0.00    +0.108 A 
ATOM     24  N   UNL     1       2.624   0.014   0.962  0.00  0.00    -0.132 NA
ATOM     25  N   UNL     1       3.162   1.157   0.718  0.00  0.00    -0.065 NA
BRANCH  23  26
ATOM     26  C   UNL     1       0.287  -0.898   1.383  0.00  0.00    +0.214 C 
BRANCH  26  27
ATOM     27  O   UNL     1      -1.017  -0.316   1.445  0.00  0.00    -0.389 OA
ATOM     28  H   UNL     1      -1.893  -0.949   1.649  0.00  0.00    +0.210 HD
ENDBRANCH  26  27
ENDBRANCH  23  26
ENDBRANCH   6  21
TORSDOF 5
