REMARK  Name = ZINC12004627
REMARK  9 active torsions:
REMARK  status: ('A' for Active; 'I' for Inactive)
REMARK    1  A    between atoms: C_1  and  C_2
REMARK    2  A    between atoms: C_2  and  N_3
REMARK    3  A    between atoms: N_6  and  C_7
REMARK    4  A    between atoms: C_10  and  C_22
REMARK    5  A    between atoms: C_10  and  C_23
REMARK    6  A    between atoms: C_16  and  C_18
REMARK    7  A    between atoms: C_18  and  C_19
REMARK    8  A    between atoms: C_18  and  C_20
REMARK    9  A    between atoms: C_18  and  C_21
REMARK                            x       y       z     vdW  Elec       q    Type
REMARK                         _______ _______ _______ _____ _____    ______ ____
ROOT
ATOM      1  C   UNL     1      -0.760   1.596  -1.224  0.00  0.00    +0.108 C 
ATOM      2  C   UNL     1      -0.013   1.086   0.008  0.00  0.00    +0.034 C 
ATOM      3  C   UNL     1      -0.738   1.584   1.263  0.00  0.00    -0.027 C 
ATOM      4  C   UNL     1      -0.545   3.096   1.369  0.00  0.00    +0.062 C 
ATOM      5  C   UNL     1      -0.901   3.766   0.070  0.00  0.00    +0.050 A 
ATOM      6  C   UNL     1      -0.993   3.078  -1.120  0.00  0.00    +0.012 A 
ATOM      7  C   UNL     1      -1.315   3.785  -2.272  0.00  0.00    +0.120 A 
ATOM      8  N   UNL     1      -1.526   5.088  -2.192  0.00  0.00    -0.239 NA
ATOM      9  C   UNL     1      -1.434   5.714  -1.036  0.00  0.00    +0.135 A 
ATOM     10  N   UNL     1      -1.129   5.075   0.073  0.00  0.00    -0.236 NA
ATOM     11  C   UNL     1      -2.231   1.268   1.153  0.00  0.00    +0.011 C 
ATOM     12  C   UNL     1      -0.154   0.900   2.501  0.00  0.00    +0.011 C 
ENDROOT
BRANCH   1  16
ATOM     13  N   UNL     1       0.154   0.931  -4.723  0.00  0.00    -0.300 N 
ATOM     14  C   UNL     1      -0.576   1.191  -3.619  0.00  0.00    +0.300 C 
ATOM     15  O   UNL     1      -1.782   1.317  -3.704  0.00  0.00    -0.253 OA
ATOM     16  N   UNL     1       0.033   1.313  -2.423  0.00  0.00    -0.292 N 
ATOM     17  H   UNL     1       1.116   0.831  -4.655  0.00  0.00    +0.150 HD
ATOM     18  H   UNL     1       0.995   1.213  -2.356  0.00  0.00    +0.151 HD
BRANCH  13  20
ATOM     19  C   UNL     1       0.539   0.506  -7.100  0.00  0.00    +0.024 C 
ATOM     20  C   UNL     1      -0.507   0.799  -6.023  0.00  0.00    +0.102 C 
ENDBRANCH  13  20
ENDBRANCH   1  16
BRANCH   9  21
ATOM     21  C   UNL     1      -1.683   7.200  -0.984  0.00  0.00    +0.022 C 
ATOM     22  C   UNL     1      -2.016   7.711  -2.387  0.00  0.00    +0.019 C 
ATOM     23  C   UNL     1      -2.856   7.487  -0.044  0.00  0.00    +0.019 C 
ATOM     24  C   UNL     1      -0.430   7.909  -0.467  0.00  0.00    +0.019 C 
ENDBRANCH   9  21
TORSDOF 3
