REMARK  Name = ZINC14094263
REMARK  6 active torsions:
REMARK  status: ('A' for Active; 'I' for Inactive)
REMARK    1  A    between atoms: C_3  and  C_6
REMARK    2  A    between atoms: C_8  and  C_11
REMARK    3  A    between atoms: C_11  and  S_12
REMARK    4  A    between atoms: S_12  and  C_13
REMARK    5  A    between atoms: C_16  and  C_19
REMARK    6  A    between atoms: N_17  and  N_18
REMARK                            x       y       z     vdW  Elec       q    Type
REMARK                         _______ _______ _______ _____ _____    ______ ____
ROOT
ATOM      1  C   UNL     1       2.408  -4.131   1.375  0.00  0.00    +0.209 A 
ATOM      2  N   UNL     1       2.573  -4.694   0.199  0.00  0.00    -0.121 NA
ATOM      3  N   UNL     1       2.949  -5.914   0.342  0.00  0.00    -0.127 NA
ATOM      4  C   UNL     1       3.049  -6.205   1.619  0.00  0.00    +0.182 A 
ATOM      5  N   UNL     1       2.711  -5.071   2.319  0.00  0.00    -0.224 N 
ENDROOT
BRANCH   4   6
ATOM      6  C   UNL     1       3.454  -7.506   2.194  0.00  0.00    +0.021 A 
ATOM      7  C   UNL     1       3.227  -7.775   3.544  0.00  0.00    +0.014 A 
ATOM      8  C   UNL     1       3.602  -8.992   4.075  0.00  0.00    +0.039 A 
ATOM      9  C   UNL     1       4.213  -9.942   3.272  0.00  0.00    +0.123 A 
ATOM     10  C   UNL     1       4.446  -9.677   1.931  0.00  0.00    +0.039 A 
ATOM     11  C   UNL     1       4.071  -8.466   1.390  0.00  0.00    +0.014 A 
ATOM     12  F   UNL     1       4.585 -11.129   3.798  0.00  0.00    -0.205 F 
ENDBRANCH   4   6
BRANCH   5  13
ATOM     13  N   UNL     1       2.680  -4.917   3.676  0.00  0.00    -0.295 N 
ATOM     14  H   UNL     1       1.773  -5.155   4.047  0.00  0.00    +0.163 HD
ATOM     15  H   UNL     1       3.405  -5.463   4.118  0.00  0.00    +0.163 HD
ENDBRANCH   5  13
BRANCH   1  16
ATOM     16  S   UNL     1       1.900  -2.471   1.678  0.00  0.00    -0.075 S 
BRANCH  16  17
ATOM     17  C   UNL     1       1.707  -1.886  -0.024  0.00  0.00    +0.176 C 
BRANCH  17  20
ATOM     18  C   UNL     1       1.210   1.675  -0.001  0.00  0.00    +0.209 A 
ATOM     19  N   UNL     1       2.042   0.607  -0.014  0.00  0.00    -0.190 NA
ATOM     20  C   UNL     1       1.264  -0.446  -0.012  0.00  0.00    +0.238 A 
ATOM     21  O   UNL     1       0.002  -0.004   0.002  0.00  0.00    -0.337 OA
ATOM     22  N   UNL     1      -0.014   1.209   0.009  0.00  0.00    -0.056 NA
BRANCH  18  25
ATOM     23  C   UNL     1       1.419   5.453   0.018  0.00  0.00    +0.008 A 
ATOM     24  C   UNL     1       0.817   4.215   0.017  0.00  0.00    +0.019 A 
ATOM     25  C   UNL     1       1.608   3.097   0.003  0.00  0.00    +0.060 A 
ATOM     26  S   UNL     1       3.247   3.807  -0.001  0.00  0.00    -0.093 S 
ATOM     27  C   UNL     1       2.775   5.529   0.005  0.00  0.00    +0.046 A 
ENDBRANCH  18  25
ENDBRANCH  17  20
ENDBRANCH  16  17
ENDBRANCH   1  16
TORSDOF 6
