REMARK  Name = ZINC40120922
REMARK  2 active torsions:
REMARK  status: ('A' for Active; 'I' for Inactive)
REMARK    1  A    between atoms: C_9  and  C_11
REMARK    2  A    between atoms: N_13  and  C_14
REMARK                            x       y       z     vdW  Elec       q    Type
REMARK                         _______ _______ _______ _____ _____    ______ ____
ROOT
ATOM      1  C   UNL     1      -1.128  -3.489  -0.007  0.00  0.00    +0.261 C 
ATOM      2  O   UNL     1      -0.510  -4.537  -0.018  0.00  0.00    -0.269 OA
ATOM      3  N   UNL     1      -2.475  -3.501   0.006  0.00  0.00    -0.299 N 
ATOM      4  H   UNL     1      -2.968  -2.665   0.016  0.00  0.00    +0.150 HD
ENDROOT
BRANCH   1  13
ATOM      5  C   UNL     1      -0.017   1.387   0.010  0.00  0.00    +0.028 A 
ATOM      6  C   UNL     1       1.166   2.092   0.002  0.00  0.00    +0.023 A 
ATOM      7  C   UNL     1       2.387   1.427  -0.013  0.00  0.00    +0.060 A 
ATOM      8  C   UNL     1       2.431   0.051  -0.021  0.00  0.00    +0.068 A 
ATOM      9  C   UNL     1       1.237  -0.682  -0.013  0.00  0.00    +0.020 A 
ATOM     10  C   UNL     1       0.002  -0.004   0.002  0.00  0.00    +0.049 A 
ATOM     11  N   UNL     1      -0.990  -0.957   0.006  0.00  0.00    -0.351 N 
ATOM     12  H   UNL     1      -1.943  -0.780   0.016  0.00  0.00    +0.166 HD
ATOM     13  C   UNL     1      -0.404  -2.209  -0.007  0.00  0.00    +0.103 A 
ATOM     14  C   UNL     1       0.947  -2.068  -0.018  0.00  0.00    +0.042 A 
ATOM     15 CL   UNL     1       3.960  -0.772  -0.041  0.00  0.00    -0.081 Cl
ATOM     16 CL   UNL     1       3.865   2.338  -0.023  0.00  0.00    -0.082 Cl
ENDBRANCH   1  13
BRANCH   3  17
ATOM     17  C   UNL     1      -3.196  -4.776   0.006  0.00  0.00    +0.159 C 
ATOM     18  C   UNL     1      -4.584  -4.582   0.621  0.00  0.00    +0.032 C 
ATOM     19  C   UNL     1      -5.109  -5.889   1.187  0.00  0.00    +0.004 C 
ATOM     20  C   UNL     1      -5.399  -6.941   0.132  0.00  0.00    +0.019 C 
ATOM     21  C   UNL     1      -4.107  -7.412  -0.538  0.00  0.00    +0.104 C 
ATOM     22  N   UNL     1      -3.796  -6.505  -1.654  0.00  0.00    -0.314 N 
ATOM     23  C   UNL     1      -3.361  -5.267  -1.417  0.00  0.00    +0.233 C 
ATOM     24  O   UNL     1      -3.100  -4.531  -2.344  0.00  0.00    -0.274 OA
ATOM     25  H   UNL     1      -3.906  -6.810  -2.568  0.00  0.00    +0.149 HD
ENDBRANCH   3  17
TORSDOF 2
