REMARK  Name = ZINC66269266
REMARK  5 active torsions:
REMARK  status: ('A' for Active; 'I' for Inactive)
REMARK    1  A    between atoms: C_1  and  N_2
REMARK    2  A    between atoms: C_3  and  C_24
REMARK    3  A    between atoms: C_4  and  C_7
REMARK    4  A    between atoms: N_9  and  N_10
REMARK    5  A    between atoms: C_11  and  C_13
REMARK                            x       y       z     vdW  Elec       q    Type
REMARK                         _______ _______ _______ _____ _____    ______ ____
ROOT
ATOM      1  N   UNL     1       0.072  -5.661  -1.780  0.00  0.00    -0.231 N 
ATOM      2  C   UNL     1       0.092  -6.888  -1.222  0.00  0.00    +0.273 C 
ATOM      3  O   UNL     1       0.099  -7.005  -0.015  0.00  0.00    -0.270 OA
ATOM      4  H   UNL     1       0.066  -5.567  -2.745  0.00  0.00    +0.173 HD
ENDROOT
BRANCH   2   5
ATOM      5  C   UNL     1       0.105  -8.114  -2.098  0.00  0.00    +0.297 C 
ATOM      6  C   UNL     1       1.417  -8.169  -2.892  0.00  0.00    +0.283 C 
ATOM      7  O   UNL     1       1.403  -9.350  -3.701  0.00  0.00    -0.484 OA
ATOM      8  C   UNL     1       1.012 -10.503  -3.093  0.00  0.00    +0.162 A 
ATOM      9  C   UNL     1       1.312 -11.721  -3.686  0.00  0.00    +0.049 A 
ATOM     10  C   UNL     1       0.918 -12.900  -3.082  0.00  0.00    +0.004 A 
ATOM     11  C   UNL     1       0.226 -12.870  -1.886  0.00  0.00    +0.004 A 
ATOM     12  C   UNL     1      -0.075 -11.660  -1.289  0.00  0.00    +0.049 A 
ATOM     13  C   UNL     1       0.318 -10.473  -1.889  0.00  0.00    +0.163 A 
ATOM     14  O   UNL     1       0.021  -9.289  -1.286  0.00  0.00    -0.472 OA
ENDBRANCH   2   5
BRANCH   1  17
ATOM     15  C   UNL     1       0.041  -3.294  -1.522  0.00  0.00    +0.264 C 
ATOM     16  O   UNL     1       0.033  -3.176  -2.732  0.00  0.00    -0.269 OA
ATOM     17  N   UNL     1       0.060  -4.521  -0.965  0.00  0.00    -0.230 N 
ATOM     18  H   UNL     1       0.066  -4.615   0.001  0.00  0.00    +0.173 HD
BRANCH  15  22
ATOM     19  C   UNL     1      -0.018   1.461   0.010  0.00  0.00    +0.173 C 
ATOM     20  N   UNL     1       0.002  -0.004   0.002  0.00  0.00    -0.265 N 
ATOM     21  C   UNL     1       0.008  -0.782  -1.092  0.00  0.00    +0.116 A 
ATOM     22  C   UNL     1       0.028  -2.095  -0.665  0.00  0.00    +0.084 A 
ATOM     23  C   UNL     1       0.034  -2.074   0.748  0.00  0.00    +0.148 A 
ATOM     24  N   UNL     1       0.025  -0.828   1.133  0.00  0.00    -0.179 NA
BRANCH  21  25
ATOM     25  C   UNL     1      -0.006  -0.310  -2.523  0.00  0.00    +0.390 C 
ATOM     26  F   UNL     1       0.636   0.930  -2.611  0.00  0.00    -0.202 F 
ATOM     27  F   UNL     1       0.662  -1.240  -3.327  0.00  0.00    -0.202 F 
ENDBRANCH  21  25
ENDBRANCH  15  22
ENDBRANCH   1  17
TORSDOF 4
