REMARK  Name = ZINC63384365
REMARK  8 active torsions:
REMARK  status: ('A' for Active; 'I' for Inactive)
REMARK    1  A    between atoms: C_1  and  C_2
REMARK    2  A    between atoms: C_2  and  C_3
REMARK    3  A    between atoms: C_3  and  N_4
REMARK    4  A    between atoms: C_5  and  C_7
REMARK    5  A    between atoms: C_7  and  C_9
REMARK    6  A    between atoms: C_7  and  N_16
REMARK    7  A    between atoms: C_9  and  C_10
REMARK    8  A    between atoms: C_17  and  C_19
REMARK                            x       y       z     vdW  Elec       q    Type
REMARK                         _______ _______ _______ _____ _____    ______ ____
ROOT
ATOM      1  C   UNL     1      -5.601  -6.452   0.514  0.00  0.00    +0.167 C 
ATOM      2  C   UNL     1      -6.460  -5.601   1.470  0.00  0.00    +0.065 C 
ATOM      3  C   UNL     1      -7.705  -6.398   1.773  0.00  0.00    -0.034 C 
ATOM      4  C   UNL     1      -8.989  -6.073   1.671  0.00  0.00    -0.001 A 
ATOM      5  C   UNL     1      -9.652  -4.805   1.325  0.00  0.00    +0.010 A 
ATOM      6  C   UNL     1     -11.011  -4.829   1.295  0.00  0.00    +0.001 A 
ATOM      7  C   UNL     1     -11.767  -5.972   1.570  0.00  0.00    +0.002 A 
ATOM      8  C   UNL     1     -11.241  -7.177   1.906  0.00  0.00    +0.026 A 
ATOM      9  C   UNL     1      -9.821  -7.276   1.978  0.00  0.00    +0.043 A 
ATOM     10  N   UNL     1      -9.062  -8.284   2.292  0.00  0.00    -0.375 N 
ATOM     11  C   UNL     1      -7.668  -7.837   2.275  0.00  0.00    +0.131 C 
ATOM     12  C   UNL     1      -6.834  -8.630   1.262  0.00  0.00    +0.134 C 
ATOM     13  N   UNL     1      -5.612  -7.841   0.991  0.00  0.00    -0.276 N 
ATOM     14  C   UNL     1      -4.537  -8.603   1.264  0.00  0.00    +0.248 C 
ATOM     15  O   UNL     1      -3.383  -8.277   1.066  0.00  0.00    -0.270 OA
ATOM     16  C   UNL     1      -4.959  -9.884   1.835  0.00  0.00    +0.042 A 
ATOM     17  C   UNL     1      -6.388  -9.933   1.841  0.00  0.00    -0.013 A 
ATOM     18  C   UNL     1      -7.095 -11.016   2.315  0.00  0.00    +0.006 A 
ATOM     19  C   UNL     1      -6.355 -12.095   2.791  0.00  0.00    +0.000 A 
ATOM     20  C   UNL     1      -4.975 -12.087   2.790  0.00  0.00    +0.001 A 
ATOM     21  C   UNL     1      -4.209 -10.961   2.314  0.00  0.00    +0.013 A 
ATOM     22  H   UNL     1      -9.368  -9.180   2.502  0.00  0.00    +0.160 HD
ENDROOT
BRANCH   1  24
ATOM     23  N   UNL     1      -3.421  -6.038   1.607  0.00  0.00    -0.302 N 
ATOM     24  C   UNL     1      -4.187  -5.930   0.503  0.00  0.00    +0.235 C 
ATOM     25  O   UNL     1      -3.738  -5.414  -0.498  0.00  0.00    -0.274 OA
ATOM     26  H   UNL     1      -3.779  -6.451   2.408  0.00  0.00    +0.150 HD
BRANCH  23  27
ATOM     27  C   UNL     1      -2.046  -5.531   1.597  0.00  0.00    +0.163 C 
BRANCH  27  29
ATOM     28  N   UNL     1       0.072  -5.967   2.798  0.00  0.00    -0.314 N 
ATOM     29  C   UNL     1      -1.231  -6.268   2.628  0.00  0.00    +0.234 C 
ATOM     30  O   UNL     1      -1.747  -7.132   3.304  0.00  0.00    -0.274 OA
ATOM     31  H   UNL     1       0.485  -5.276   2.256  0.00  0.00    +0.149 HD
BRANCH  28  32
ATOM     32  C   UNL     1       0.864  -6.684   3.800  0.00  0.00    +0.104 C 
BRANCH  32  34
ATOM     33  C   UNL     1       3.127  -6.903   4.836  0.00  0.00    +0.005 C 
ATOM     34  C   UNL     1       2.300  -6.154   3.789  0.00  0.00    +0.015 C 
ENDBRANCH  32  34
ENDBRANCH  28  32
ENDBRANCH  27  29
BRANCH  27  35
ATOM     35  C   UNL     1      -2.051  -4.036   1.924  0.00  0.00    +0.067 C 
BRANCH  35  36
ATOM     36  C   UNL     1      -2.762  -3.284   0.828  0.00  0.00    -0.045 A 
ATOM     37  C   UNL     1      -2.051  -2.813  -0.260  0.00  0.00    +0.004 A 
ATOM     38  C   UNL     1      -2.703  -2.123  -1.265  0.00  0.00    +0.000 A 
ATOM     39  C   UNL     1      -4.066  -1.905  -1.182  0.00  0.00    +0.000 A 
ATOM     40  C   UNL     1      -4.777  -2.377  -0.095  0.00  0.00    +0.000 A 
ATOM     41  C   UNL     1      -4.125  -3.071   0.908  0.00  0.00    +0.004 A 
ENDBRANCH  35  36
ENDBRANCH  27  35
ENDBRANCH  23  27
ENDBRANCH   1  24
TORSDOF 7
