REMARK  Name = ZINC60481510
REMARK  5 active torsions:
REMARK  status: ('A' for Active; 'I' for Inactive)
REMARK    1  A    between atoms: C_1  and  C_2
REMARK    2  A    between atoms: C_2  and  C_3
REMARK    3  A    between atoms: C_2  and  C_4
REMARK    4  A    between atoms: C_4  and  O_5
REMARK    5  A    between atoms: O_5  and  C_6
REMARK                            x       y       z     vdW  Elec       q    Type
REMARK                         _______ _______ _______ _____ _____    ______ ____
ROOT
ATOM      1  C   UNL     1      -2.608  -2.584  -0.120  0.00  0.00    +0.403 C 
ATOM      2  O   UNL     1      -3.634  -1.940  -0.022  0.00  0.00    -0.226 OA
ATOM      3  N   UNL     1      -2.663  -3.926  -0.235  0.00  0.00    -0.267 N 
ATOM      4  C   UNL     1      -1.431  -4.717  -0.347  0.00  0.00    +0.113 C 
ATOM      5  C   UNL     1      -1.521  -5.594  -1.601  0.00  0.00    +0.054 C 
ATOM      6  C   UNL     1      -2.808  -6.412  -1.555  0.00  0.00    +0.115 C 
ATOM      7  C   UNL     1      -4.028  -5.499  -1.505  0.00  0.00    +0.054 C 
ATOM      8  C   UNL     1      -3.957  -4.622  -0.244  0.00  0.00    +0.113 C 
ATOM      9  C   UNL     1      -2.888  -7.336  -2.748  0.00  0.00    +0.244 C 
ATOM     10  O   UNL     1      -2.921  -7.022  -3.919  0.00  0.00    -0.273 OA
ATOM     11  N   UNL     1      -2.915  -8.584  -2.236  0.00  0.00    -0.238 N 
ATOM     12  C   UNL     1      -2.864  -8.569  -0.899  0.00  0.00    +0.307 C 
ATOM     13  O   UNL     1      -2.875  -9.571  -0.211  0.00  0.00    -0.252 OA
ATOM     14  N   UNL     1      -2.797  -7.320  -0.401  0.00  0.00    -0.285 N 
ATOM     15  H   UNL     1      -2.967  -9.392  -2.771  0.00  0.00    +0.159 HD
ATOM     16  H   UNL     1      -2.752  -7.069   0.535  0.00  0.00    +0.151 HD
ENDROOT
BRANCH   1  17
ATOM     17  O   UNL     1      -1.417  -1.957  -0.112  0.00  0.00    -0.450 OA
BRANCH  17  18
ATOM     18  C   UNL     1      -1.433  -0.534   0.013  0.00  0.00    +0.236 C 
BRANCH  18  20
ATOM     19  C   UNL     1      -0.019   1.526   0.010  0.00  0.00    +0.010 C 
ATOM     20  C   UNL     1       0.002  -0.004   0.002  0.00  0.00    +0.021 C 
ATOM     21  C   UNL     1       0.742  -0.511   1.242  0.00  0.00    +0.010 C 
ENDBRANCH  18  20
ENDBRANCH  17  18
ENDBRANCH   1  17
TORSDOF 3
