REMARK  Name = ZINC22522856
REMARK  10 active torsions:
REMARK  status: ('A' for Active; 'I' for Inactive)
REMARK    1  A    between atoms: C_1  and  C_2
REMARK    2  A    between atoms: C_5  and  N_9
REMARK    3  A    between atoms: C_6  and  C_8
REMARK    4  A    between atoms: C_13  and  C_15
REMARK    5  A    between atoms: C_15  and  O_16
REMARK    6  A    between atoms: O_16  and  C_17
REMARK    7  A    between atoms: C_17  and  C_19
REMARK    8  A    between atoms: C_19  and  C_21
REMARK    9  A    between atoms: C_19  and  N_22
REMARK   10  A    between atoms: C_28  and  C_33
REMARK                            x       y       z     vdW  Elec       q    Type
REMARK                         _______ _______ _______ _____ _____    ______ ____
ROOT
ATOM      1  C   UNL     1       3.614   2.015  -0.056  0.00  0.00    +0.328 C 
ENDROOT
BRANCH   1   6
ATOM      2  N   UNL     1      -1.191   1.869   0.018  0.00  0.00    -0.269 N 
ATOM      3  C   UNL     1      -0.014   1.212   0.005  0.00  0.00    +0.310 C 
ATOM      4  O   UNL     1       0.003  -0.004   0.006  0.00  0.00    -0.252 OA
ATOM      5  N   UNL     1       1.143   1.901  -0.015  0.00  0.00    -0.237 N 
ATOM      6  C   UNL     1       2.320   1.244  -0.034  0.00  0.00    +0.258 C 
ATOM      7  O   UNL     1       2.336   0.032  -0.032  0.00  0.00    -0.272 OA
ATOM      8  H   UNL     1      -1.207   2.965   0.110  0.00  0.00    +0.156 HD
ATOM      9  H   UNL     1       1.128   3.001  -0.016  0.00  0.00    +0.159 HD
BRANCH   2  14
ATOM     10  C   UNL     1      -6.057  -1.016  -0.401  0.00  0.00    +0.044 C 
ATOM     11  C   UNL     1      -4.765  -0.250  -0.290  0.00  0.00    -0.050 A 
ATOM     12  C   UNL     1      -3.597  -0.788  -0.799  0.00  0.00    +0.005 A 
ATOM     13  C   UNL     1      -2.411  -0.089  -0.699  0.00  0.00    +0.024 A 
ATOM     14  C   UNL     1      -2.391   1.158  -0.086  0.00  0.00    +0.038 A 
ATOM     15  C   UNL     1      -3.564   1.694   0.428  0.00  0.00    -0.029 A 
ATOM     16  C   UNL     1      -4.748   0.991   0.321  0.00  0.00    +0.008 A 
ATOM     17  C   UNL     1      -3.546   3.043   1.099  0.00  0.00    +0.045 C 
ENDBRANCH   2  14
ENDBRANCH   1   6
BRANCH   1  18
ATOM     18  O   UNL     1       4.730   1.087  -0.073  0.00  0.00    -0.454 OA
BRANCH  18  19
ATOM     19  C   UNL     1       5.963   1.617  -0.094  0.00  0.00    +0.328 C 
ATOM     20  O   UNL     1       6.105   2.817  -0.098  0.00  0.00    -0.249 OA
BRANCH  19  21
ATOM     21  C   UNL     1       7.171   0.716  -0.113  0.00  0.00    +0.190 C 
ATOM     22  C   UNL     1       7.128  -0.169  -1.360  0.00  0.00    +0.040 C 
BRANCH  21  23
ATOM     23  N   UNL     1       8.388   1.531  -0.134  0.00  0.00    -0.220 N 
ATOM     24  C   UNL     1       8.699   2.410  -1.104  0.00  0.00    +0.255 C 
ATOM     25  O   UNL     1       8.026   2.650  -2.086  0.00  0.00    -0.270 OA
ATOM     26  C   UNL     1       9.997   3.036  -0.774  0.00  0.00    +0.049 A 
ATOM     27  C   UNL     1      10.794   3.990  -1.385  0.00  0.00    +0.014 A 
ATOM     28  C   UNL     1      11.993   4.362  -0.797  0.00  0.00    +0.004 A 
ATOM     29  C   UNL     1      12.397   3.790   0.394  0.00  0.00    -0.050 A 
ATOM     30  C   UNL     1      11.609   2.835   1.017  0.00  0.00    +0.017 A 
ATOM     31  C   UNL     1      10.409   2.452   0.441  0.00  0.00    +0.050 A 
ATOM     32  C   UNL     1       9.345   1.495   0.811  0.00  0.00    +0.255 C 
ATOM     33  O   UNL     1       9.337   0.792   1.802  0.00  0.00    -0.270 OA
ATOM     34  C   UNL     1      13.703   4.207   1.020  0.00  0.00    +0.044 C 
ENDBRANCH  21  23
ENDBRANCH  19  21
ENDBRANCH  18  19
ENDBRANCH   1  18
TORSDOF 6
