REMARK  Name = ZINC31810109
REMARK  7 active torsions:
REMARK  status: ('A' for Active; 'I' for Inactive)
REMARK    1  A    between atoms: C_1  and  O_2
REMARK    2  A    between atoms: O_2  and  C_3
REMARK    3  A    between atoms: C_3  and  C_5
REMARK    4  A    between atoms: C_5  and  C_6
REMARK    5  A    between atoms: C_6  and  C_7
REMARK    6  A    between atoms: C_7  and  N_8
REMARK    7  A    between atoms: C_20  and  C_22
REMARK                            x       y       z     vdW  Elec       q    Type
REMARK                         _______ _______ _______ _____ _____    ______ ____
ROOT
ATOM      1  N   UNL     1      -3.492  -6.727   0.012  0.00  0.00    -0.299 N 
ATOM      2  C   UNL     1      -4.500  -5.833   0.007  0.00  0.00    +0.303 C 
ATOM      3  O   UNL     1      -4.258  -4.644   0.088  0.00  0.00    -0.253 OA
ATOM      4  N   UNL     1      -5.776  -6.256  -0.089  0.00  0.00    -0.273 N 
ATOM      5  C   UNL     1      -6.882  -5.295  -0.207  0.00  0.00    +0.116 C 
ATOM      6  C   UNL     1      -7.563  -5.474  -1.569  0.00  0.00    +0.076 C 
ATOM      7  C   UNL     1      -7.771  -6.947  -1.819  0.00  0.00    +0.066 A 
ATOM      8  C   UNL     1      -7.120  -7.931  -1.163  0.00  0.00    +0.064 A 
ATOM      9  N   UNL     1      -7.567  -9.114  -1.664  0.00  0.00    -0.346 N 
ATOM     10  H   UNL     1      -7.282 -10.001  -1.392  0.00  0.00    +0.167 HD
ATOM     11  C   UNL     1      -8.485  -8.819  -2.613  0.00  0.00    +0.197 A 
ATOM     12  N   UNL     1      -8.600  -7.520  -2.698  0.00  0.00    -0.240 NA
ATOM     13  C   UNL     1      -6.098  -7.695  -0.085  0.00  0.00    +0.156 C 
ATOM     14  H   UNL     1      -3.686  -7.677   0.025  0.00  0.00    +0.150 HD
ENDROOT
BRANCH  13  15
ATOM     15  C   UNL     1      -6.669  -8.089   1.253  0.00  0.00    -0.021 A 
ATOM     16  C   UNL     1      -7.871  -7.553   1.676  0.00  0.00    +0.007 A 
ATOM     17  C   UNL     1      -8.395  -7.914   2.903  0.00  0.00    +0.020 A 
ATOM     18  C   UNL     1      -7.717  -8.812   3.707  0.00  0.00    +0.041 A 
ATOM     19  C   UNL     1      -6.514  -9.348   3.283  0.00  0.00    +0.020 A 
ATOM     20  C   UNL     1      -5.993  -8.991   2.054  0.00  0.00    +0.007 A 
ATOM     21 CL   UNL     1      -8.374  -9.265   5.249  0.00  0.00    -0.084 Cl
ENDBRANCH  13  15
BRANCH   1  22
ATOM     22  C   UNL     1      -2.102  -6.264  -0.002  0.00  0.00    +0.106 C 
BRANCH  22  23
ATOM     23  C   UNL     1      -1.162  -7.472   0.007  0.00  0.00    +0.030 C 
BRANCH  23  24
ATOM     24  C   UNL     1       0.289  -6.989  -0.008  0.00  0.00    +0.122 C 
BRANCH  24  25
ATOM     25  C   UNL     1       1.215  -8.178   0.002  0.00  0.00    +0.307 C 
ATOM     26  O   UNL     1       0.760  -9.297   0.019  0.00  0.00    -0.251 OA
BRANCH  25  28
ATOM     27  C   UNL     1       3.362  -9.166   0.001  0.00  0.00    +0.280 C 
ATOM     28  O   UNL     1       2.545  -7.994  -0.009  0.00  0.00    -0.468 OA
ENDBRANCH  25  28
ENDBRANCH  24  25
ENDBRANCH  23  24
ENDBRANCH  22  23
ENDBRANCH   1  22
TORSDOF 6
