REMARK  Name = ZINC58049047
REMARK  12 active torsions:
REMARK  status: ('A' for Active; 'I' for Inactive)
REMARK    1  A    between atoms: C_1  and  C_2
REMARK    2  A    between atoms: C_2  and  C_3
REMARK    3  A    between atoms: C_3  and  N_4
REMARK    4  A    between atoms: C_7  and  C_14
REMARK    5  A    between atoms: C_9  and  C_11
REMARK    6  A    between atoms: C_11  and  C_12
REMARK    7  A    between atoms: C_11  and  C_13
REMARK    8  A    between atoms: N_16  and  C_17
REMARK    9  A    between atoms: C_17  and  C_18
REMARK   10  A    between atoms: N_22  and  C_24
REMARK   11  A    between atoms: C_24  and  C_25
REMARK   12  A    between atoms: C_24  and  C_26
REMARK                            x       y       z     vdW  Elec       q    Type
REMARK                         _______ _______ _______ _____ _____    ______ ____
ROOT
ATOM      1  N   UNL     1       0.533  -1.967  -0.790  0.00  0.00    -0.278 N 
ATOM      2  C   UNL     1       1.692  -2.637  -0.438  0.00  0.00    +0.151 A 
ATOM      3  C   UNL     1       1.682  -4.042  -0.451  0.00  0.00    +0.094 A 
ATOM      4  C   UNL     1       2.846  -4.744  -0.098  0.00  0.00    +0.054 A 
ATOM      5  C   UNL     1       3.971  -3.996   0.254  0.00  0.00    +0.037 A 
ATOM      6  C   UNL     1       3.897  -2.613   0.240  0.00  0.00    +0.047 A 
ATOM      7  N   UNL     1       2.789  -1.983  -0.096  0.00  0.00    -0.233 NA
ATOM      8  C   UNL     1       0.442  -4.735  -0.838  0.00  0.00    +0.264 A 
ATOM      9  O   UNL     1       0.386  -5.949  -0.864  0.00  0.00    -0.267 OA
ATOM     10  N   UNL     1      -0.633  -3.984  -1.164  0.00  0.00    -0.274 N 
ATOM     11  H   UNL     1      -1.460  -4.420  -1.422  0.00  0.00    +0.173 HD
ATOM     12  C   UNL     1      -0.577  -2.643  -1.132  0.00  0.00    +0.331 A 
ATOM     13  O   UNL     1      -1.572  -2.012  -1.429  0.00  0.00    -0.246 OA
ENDROOT
BRANCH   4  14
ATOM     14  C   UNL     1       2.878  -6.226  -0.098  0.00  0.00    +0.245 C 
ATOM     15  O   UNL     1       2.033  -6.852   0.510  0.00  0.00    -0.270 OA
ATOM     16  N   UNL     1       3.845  -6.879  -0.772  0.00  0.00    -0.311 N 
ATOM     17  H   UNL     1       4.520  -6.379  -1.258  0.00  0.00    +0.149 HD
BRANCH  16  18
ATOM     18  C   UNL     1       3.877  -8.343  -0.772  0.00  0.00    +0.106 C 
BRANCH  18  19
ATOM     19  C   UNL     1       5.066  -8.828  -1.606  0.00  0.00    -0.012 C 
ATOM     20  C   UNL     1       4.841  -8.540  -3.114  0.00  0.00    -0.015 C 
ATOM     21  C   UNL     1       5.696  -9.623  -3.805  0.00  0.00    -0.078 C 
ATOM     22  N   UNL     1       5.880 -10.719  -2.836  0.00  0.00    +0.381 N 
ATOM     23  C   UNL     1       5.160 -10.374  -1.592  0.00  0.00    -0.074 C 
ATOM     24  H   UNL     1       6.862 -10.836  -2.639  0.00  0.00    -0.081 HD
BRANCH  22  25
ATOM     25  C   UNL     1       5.338 -11.966  -3.392  0.00  0.00    -0.075 C 
ATOM     26  C   UNL     1       6.095 -12.326  -4.671  0.00  0.00    -0.014 C 
ATOM     27  C   UNL     1       5.499 -13.092  -2.369  0.00  0.00    -0.014 C 
ENDBRANCH  22  25
ENDBRANCH  18  19
ENDBRANCH  16  18
ENDBRANCH   4  14
BRANCH   6  28
ATOM     28  C   UNL     1       5.113  -1.808   0.621  0.00  0.00    +0.032 C 
ATOM     29  C   UNL     1       5.166  -1.652   2.142  0.00  0.00    +0.014 C 
ATOM     30  C   UNL     1       6.373  -2.529   0.138  0.00  0.00    +0.014 C 
ENDBRANCH   6  28
BRANCH   1  31
ATOM     31  C   UNL     1       0.514  -0.502  -0.785  0.00  0.00    +0.128 C 
BRANCH  31  33
ATOM     32  C   UNL     1       0.071   1.528   0.603  0.00  0.00    +0.005 C 
ATOM     33  C   UNL     1       0.090  -0.002   0.597  0.00  0.00    +0.018 C 
ENDBRANCH  31  33
ENDBRANCH   1  31
TORSDOF 7
