REMARK  Name = ZINC12402036
REMARK  13 active torsions:
REMARK  status: ('A' for Active; 'I' for Inactive)
REMARK    1  A    between atoms: C_1  and  C_2
REMARK    2  A    between atoms: C_2  and  C_28
REMARK    3  A    between atoms: C_3  and  C_26
REMARK    4  A    between atoms: C_3  and  O_27
REMARK    5  A    between atoms: N_4  and  C_8
REMARK    6  A    between atoms: C_8  and  C_9
REMARK    7  A    between atoms: C_9  and  N_10
REMARK    8  A    between atoms: C_14  and  C_18
REMARK    9  A    between atoms: C_14  and  C_19
REMARK   10  A    between atoms: C_15  and  C_16
REMARK   11  A    between atoms: C_15  and  O_17
REMARK   12  A    between atoms: C_19  and  C_20
REMARK   13  A    between atoms: C_28  and  C_29
REMARK                            x       y       z     vdW  Elec       q    Type
REMARK                         _______ _______ _______ _____ _____    ______ ____
ROOT
ATOM      1  C   UNL     1      -6.601   0.368   2.452  0.00  0.00    +0.133 C 
ENDROOT
BRANCH   1   5
ATOM      2  C   UNL     1      -1.821   0.019   2.237  0.00  0.00    +0.061 C 
ATOM      3  C   UNL     1      -2.945   0.711   1.462  0.00  0.00    +0.161 C 
ATOM      4  C   UNL     1      -4.227  -0.143   1.493  0.00  0.00    +0.175 C 
ATOM      5  N   UNL     1      -5.207   0.720   2.171  0.00  0.00    -0.234 N 
ATOM      6  C   UNL     1      -4.616   1.880   2.488  0.00  0.00    +0.406 C 
ATOM      7  O   UNL     1      -5.194   2.784   3.058  0.00  0.00    -0.226 OA
ATOM      8  O   UNL     1      -3.329   1.953   2.120  0.00  0.00    -0.439 OA
ATOM      9  C   UNL     1      -3.999  -1.428   2.292  0.00  0.00    +0.068 C 
BRANCH   4  10
ATOM     10  O   UNL     1      -4.660  -0.447   0.165  0.00  0.00    -0.368 OA
ATOM     11  H   UNL     1      -5.464  -0.983   0.126  0.00  0.00    +0.212 HD
ENDBRANCH   4  10
BRANCH   3  12
ATOM     12  C   UNL     1      -2.514   0.980   0.019  0.00  0.00    +0.087 C 
BRANCH  12  13
ATOM     13  C   UNL     1      -1.219   1.751   0.017  0.00  0.00    -0.043 A 
ATOM     14  C   UNL     1      -0.013   1.076   0.008  0.00  0.00    +0.004 A 
ATOM     15  C   UNL     1       1.175   1.783   0.000  0.00  0.00    +0.000 A 
ATOM     16  C   UNL     1       1.156   3.165   0.008  0.00  0.00    +0.000 A 
ATOM     17  C   UNL     1      -0.050   3.840   0.023  0.00  0.00    +0.000 A 
ATOM     18  C   UNL     1      -1.238   3.133   0.030  0.00  0.00    +0.004 A 
ENDBRANCH  12  13
ENDBRANCH   3  12
ENDBRANCH   1   5
BRANCH   1  19
ATOM     19  C   UNL     1      -6.690  -0.305   3.823  0.00  0.00    +0.133 C 
BRANCH  19  20
ATOM     20  N   UNL     1      -8.085  -0.656   4.105  0.00  0.00    -0.234 N 
ATOM     21  C   UNL     1      -8.675  -1.816   3.787  0.00  0.00    +0.406 C 
ATOM     22  O   UNL     1      -8.098  -2.720   3.216  0.00  0.00    -0.226 OA
ATOM     23  O   UNL     1      -9.959  -1.888   4.156  0.00  0.00    -0.439 OA
ATOM     24  C   UNL     1     -10.346  -0.647   4.813  0.00  0.00    +0.161 C 
ATOM     25  C   UNL     1      -9.062   0.205   4.788  0.00  0.00    +0.175 C 
ATOM     26  C   UNL     1      -9.291   1.493   3.995  0.00  0.00    +0.068 C 
ATOM     27  C   UNL     1     -11.469   0.044   4.037  0.00  0.00    +0.061 C 
BRANCH  25  28
ATOM     28  O   UNL     1      -8.628   0.502   6.117  0.00  0.00    -0.368 OA
ATOM     29  H   UNL     1      -7.790   0.982   6.158  0.00  0.00    +0.212 HD
ENDBRANCH  25  28
BRANCH  24  30
ATOM     30  C   UNL     1     -10.781  -0.917   6.255  0.00  0.00    +0.087 C 
BRANCH  30  31
ATOM     31  C   UNL     1     -11.979  -1.831   6.256  0.00  0.00    -0.043 A 
ATOM     32  C   UNL     1     -13.254  -1.299   6.222  0.00  0.00    +0.004 A 
ATOM     33  C   UNL     1     -14.353  -2.137   6.218  0.00  0.00    +0.000 A 
ATOM     34  C   UNL     1     -14.177  -3.508   6.259  0.00  0.00    +0.000 A 
ATOM     35  C   UNL     1     -12.902  -4.040   6.299  0.00  0.00    +0.000 A 
ATOM     36  C   UNL     1     -11.803  -3.201   6.298  0.00  0.00    +0.004 A 
ENDBRANCH  30  31
ENDBRANCH  24  30
ENDBRANCH  19  20
ENDBRANCH   1  19
TORSDOF 9
