REMARK  Name = ZINC39834430
REMARK  7 active torsions:
REMARK  status: ('A' for Active; 'I' for Inactive)
REMARK    1  A    between atoms: C_1  and  C_2
REMARK    2  A    between atoms: C_5  and  C_7
REMARK    3  A    between atoms: C_10  and  C_12
REMARK    4  A    between atoms: N_14  and  N_15
REMARK    5  A    between atoms: C_16  and  C_17
REMARK    6  A    between atoms: C_16  and  C_18
REMARK    7  A    between atoms: C_21  and  N_24
REMARK                            x       y       z     vdW  Elec       q    Type
REMARK                         _______ _______ _______ _____ _____    ______ ____
ROOT
ATOM      1  C   UNL     1       4.805  -5.239  -0.040  0.00  0.00    +0.280 C 
ATOM      2  O   UNL     1       5.801  -4.537  -0.034  0.00  0.00    -0.267 OA
ATOM      3  N   UNL     1       4.926  -6.581  -0.051  0.00  0.00    -0.202 N 
ATOM      4  H   UNL     1       4.133  -7.139  -0.056  0.00  0.00    +0.178 HD
ENDROOT
BRANCH   1   8
ATOM      5  C   UNL     1       1.627  -3.169  -0.022  0.00  0.00    +0.112 C 
ATOM      6  N   UNL     1       1.312  -4.450  -0.033  0.00  0.00    -0.150 NA
ATOM      7  N   UNL     1       2.318  -5.234  -0.040  0.00  0.00    -0.148 NA
ATOM      8  C   UNL     1       3.479  -4.625  -0.035  0.00  0.00    +0.132 C 
ATOM      9  C   UNL     1       3.147  -3.142  -0.029  0.00  0.00    +0.123 C 
BRANCH   5  14
ATOM     10  C   UNL     1      -0.018   1.503   0.010  0.00  0.00    +0.086 C 
ATOM     11  C   UNL     1       0.002  -0.004   0.002  0.00  0.00    +0.103 A 
ATOM     12  C   UNL     1      -1.090  -0.804   0.003  0.00  0.00    +0.045 A 
ATOM     13  C   UNL     1      -0.635  -2.128  -0.007  0.00  0.00    +0.051 A 
ATOM     14  C   UNL     1       0.749  -2.069  -0.013  0.00  0.00    +0.151 A 
ATOM     15  O   UNL     1       1.103  -0.766  -0.013  0.00  0.00    -0.459 OA
ENDBRANCH   5  14
ENDBRANCH   1   8
BRANCH   3  16
ATOM     16  N   UNL     1       6.197  -7.170  -0.056  0.00  0.00    -0.184 NA
ATOM     17  C   UNL     1       6.314  -8.463  -0.067  0.00  0.00    +0.063 C 
ATOM     18  C   UNL     1       5.082  -9.331  -0.074  0.00  0.00    +0.068 C 
BRANCH  17  19
ATOM     19  C   UNL     1       7.651  -9.082  -0.071  0.00  0.00    -0.002 A 
ATOM     20  C   UNL     1       7.779 -10.474  -0.089  0.00  0.00    +0.011 A 
ATOM     21  C   UNL     1       9.030 -11.049  -0.094  0.00  0.00    +0.023 A 
ATOM     22  C   UNL     1      10.166 -10.247  -0.082  0.00  0.00    +0.025 A 
ATOM     23  C   UNL     1      10.043  -8.861  -0.064  0.00  0.00    +0.023 A 
ATOM     24  C   UNL     1       8.795  -8.279  -0.065  0.00  0.00    +0.011 A 
BRANCH  22  25
ATOM     25  N   UNL     1      11.432 -10.833  -0.087  0.00  0.00    -0.358 N 
ATOM     26  H   UNL     1      11.519 -11.799  -0.099  0.00  0.00    +0.142 HD
ATOM     27  H   UNL     1      12.225 -10.274  -0.078  0.00  0.00    +0.142 HD
ENDBRANCH  22  25
ENDBRANCH  17  19
ENDBRANCH   3  16
TORSDOF 5
