REMARK  Name = ZINC64851347
REMARK  8 active torsions:
REMARK  status: ('A' for Active; 'I' for Inactive)
REMARK    1  A    between atoms: C_1  and  C_2
REMARK    2  A    between atoms: C_5  and  N_22
REMARK    3  A    between atoms: C_7  and  N_8
REMARK    4  A    between atoms: C_9  and  C_11
REMARK    5  A    between atoms: C_11  and  C_12
REMARK    6  A    between atoms: C_11  and  N_13
REMARK    7  A    between atoms: N_13  and  S_14
REMARK    8  A    between atoms: S_14  and  C_17
REMARK                            x       y       z     vdW  Elec       q    Type
REMARK                         _______ _______ _______ _____ _____    ______ ____
ROOT
ATOM      1  N   UNL     1       0.025  -0.015   2.417  0.00  0.00    -0.284 N 
ATOM      2  C   UNL     1      -0.057  -0.694   3.578  0.00  0.00    +0.236 C 
ATOM      3  O   UNL     1      -0.040  -1.907   3.573  0.00  0.00    -0.274 OA
ATOM      4  H   UNL     1       0.077   0.954   2.425  0.00  0.00    +0.155 HD
ENDROOT
BRANCH   1  11
ATOM      5  C   UNL     1      -1.265   1.182   0.181  0.00  0.00    +0.045 C 
ATOM      6  C   UNL     1      -0.584  -0.158   0.084  0.00  0.00    -0.029 A 
ATOM      7  C   UNL     1      -0.569  -0.841  -1.117  0.00  0.00    +0.007 A 
ATOM      8  C   UNL     1       0.056  -2.071  -1.206  0.00  0.00    +0.033 A 
ATOM      9  C   UNL     1       0.667  -2.622  -0.095  0.00  0.00    +0.128 A 
ATOM     10  C   UNL     1       0.656  -1.944   1.109  0.00  0.00    +0.056 A 
ATOM     11  C   UNL     1       0.034  -0.706   1.201  0.00  0.00    +0.039 A 
BRANCH   9  12
ATOM     12  N   UNL     1       1.335  -3.940  -0.195  0.00  0.00    +0.056 N 
ATOM     13  O   UNL     1       1.345  -4.534  -1.248  0.00  0.00    -0.126 OA
ATOM     14  O   UNL     1       1.869  -4.422   0.776  0.00  0.00    -0.126 OA
ENDBRANCH   9  12
ENDBRANCH   1  11
BRANCH   2  15
ATOM     15  C   UNL     1      -0.169   0.052   4.882  0.00  0.00    +0.159 C 
ATOM     16  C   UNL     1       1.058   0.948   5.064  0.00  0.00    +0.035 C 
BRANCH  15  17
ATOM     17  N   UNL     1      -0.242  -0.905   5.988  0.00  0.00    -0.178 NA
ATOM     18  H   UNL     1       0.256  -1.736   5.944  0.00  0.00    +0.149 HD
BRANCH  17  19
ATOM     19  S   UNL     1      -1.175  -0.569   7.314  0.00  0.00    +0.065 S 
ATOM     20  O   UNL     1      -1.061  -1.685   8.185  0.00  0.00    -0.153 OA
ATOM     21  O   UNL     1      -0.842   0.752   7.721  0.00  0.00    -0.153 OA
BRANCH  19  22
ATOM     22  C   UNL     1      -2.852  -0.521   6.773  0.00  0.00    +0.142 A 
ATOM     23  C   UNL     1      -3.758  -1.527   6.713  0.00  0.00    +0.036 A 
ATOM     24  C   UNL     1      -5.032  -1.255   6.249  0.00  0.00    +0.010 A 
ATOM     25  C   UNL     1      -5.337   0.009   5.869  0.00  0.00    +0.047 A 
ATOM     26  S   UNL     1      -3.799   0.866   6.170  0.00  0.00    -0.077 S 
ENDBRANCH  19  22
ENDBRANCH  17  19
ENDBRANCH  15  17
ENDBRANCH   2  15
TORSDOF 6
