REMARK  Name = ZINC63061549
REMARK  4 active torsions:
REMARK  status: ('A' for Active; 'I' for Inactive)
REMARK    1  A    between atoms: C_1  and  C_2
REMARK    2  A    between atoms: C_7  and  O_8
REMARK    3  A    between atoms: O_8  and  C_9
REMARK    4  A    between atoms: C_14  and  N_15
REMARK                            x       y       z     vdW  Elec       q    Type
REMARK                         _______ _______ _______ _____ _____    ______ ____
ROOT
ATOM      1  C   UNL     1       0.054  -0.846   3.468  0.00  0.00    +0.151 A 
ATOM      2  C   UNL     1       0.136  -2.214   3.297  0.00  0.00    +0.076 A 
ATOM      3  C   UNL     1       0.166  -3.051   4.413  0.00  0.00    +0.081 A 
ATOM      4  C   UNL     1       0.112  -2.486   5.708  0.00  0.00    +0.067 A 
ATOM      5  C   UNL     1       0.030  -1.103   5.868  0.00  0.00    +0.041 A 
ATOM      6  C   UNL     1       0.006  -0.289   4.752  0.00  0.00    +0.068 A 
ATOM      7  C   UNL     1       0.146  -3.398   6.859  0.00  0.00    +0.259 A 
ATOM      8  O   UNL     1       0.102  -2.976   8.001  0.00  0.00    -0.267 OA
ATOM      9  N   UNL     1       0.226  -4.724   6.603  0.00  0.00    -0.313 N 
ATOM     10  H   UNL     1       0.250  -5.355   7.339  0.00  0.00    +0.170 HD
ATOM     11  C   UNL     1       0.273  -5.180   5.323  0.00  0.00    +0.199 A 
ATOM     12  N   UNL     1       0.245  -4.400   4.286  0.00  0.00    -0.237 NA
ENDROOT
BRANCH   6  13
ATOM     13  N   UNL     1      -0.071   1.100   4.905  0.00  0.00    -0.355 N 
ATOM     14  H   UNL     1      -0.092   1.674   4.124  0.00  0.00    +0.142 HD
ATOM     15  H   UNL     1      -0.104   1.489   5.794  0.00  0.00    +0.142 HD
ENDBRANCH   6  13
BRANCH   1  16
ATOM     16  O   UNL     1       0.025  -0.033   2.381  0.00  0.00    -0.454 OA
BRANCH  16  23
ATOM     17  C   UNL     1      -0.086   1.822   0.254  0.00  0.00    +0.047 C 
ATOM     18  C   UNL     1       1.209   1.405   0.901  0.00  0.00    -0.007 A 
ATOM     19  C   UNL     1       2.405   1.938   0.461  0.00  0.00    +0.022 A 
ATOM     20  C   UNL     1       3.595   1.555   1.055  0.00  0.00    +0.018 A 
ATOM     21  C   UNL     1       3.589   0.636   2.090  0.00  0.00    +0.019 A 
ATOM     22  C   UNL     1       2.396   0.101   2.533  0.00  0.00    +0.047 A 
ATOM     23  C   UNL     1       1.201   0.488   1.943  0.00  0.00    +0.131 A 
ATOM     24 BR   UNL     1       5.230   2.286   0.450  0.00  0.00    -0.050 Br
ENDBRANCH  16  23
ENDBRANCH   1  16
TORSDOF 3
