REMARK  Name = ZINC09172723
REMARK  6 active torsions:
REMARK  status: ('A' for Active; 'I' for Inactive)
REMARK    1  A    between atoms: C_1  and  C_2
REMARK    2  A    between atoms: C_2  and  C_3
REMARK    3  A    between atoms: C_3  and  C_4
REMARK    4  A    between atoms: C_4  and  C_5
REMARK    5  A    between atoms: C_5  and  C_6
REMARK    6  A    between atoms: C_6  and  N_7
REMARK                            x       y       z     vdW  Elec       q    Type
REMARK                         _______ _______ _______ _____ _____    ______ ____
ROOT
ATOM      1  N   UNL     1      -6.969   1.781   2.711  0.00  0.00    -0.225 N 
ATOM      2  C   UNL     1      -5.974   2.117   1.877  0.00  0.00    +0.241 C 
ATOM      3  O   UNL     1      -5.000   2.686   2.321  0.00  0.00    -0.274 OA
ATOM      4  C   UNL     1      -6.032   1.808   0.408  0.00  0.00    +0.150 C 
ATOM      5  C   UNL     1      -4.850   0.907   0.031  0.00  0.00    +0.072 C 
ATOM      6  C   UNL     1      -3.576   1.710   0.034  0.00  0.00    +0.057 A 
ATOM      7  C   UNL     1      -3.572   3.098   0.048  0.00  0.00    +0.109 A 
ATOM      8  N   UNL     1      -2.404   3.748   0.048  0.00  0.00    -0.329 N 
ATOM      9  C   UNL     1      -1.245   3.100   0.030  0.00  0.00    +0.119 A 
ATOM     10  C   UNL     1      -0.040   3.829   0.019  0.00  0.00    +0.045 A 
ATOM     11  C   UNL     1       1.147   3.162   0.005  0.00  0.00    +0.005 A 
ATOM     12  C   UNL     1       1.153   1.760   0.001  0.00  0.00    +0.018 A 
ATOM     13  C   UNL     1      -0.013   1.076   0.008  0.00  0.00    +0.096 A 
ATOM     14  N   UNL     1      -1.206   1.733   0.017  0.00  0.00    -0.269 N 
ATOM     15  C   UNL     1      -2.356   1.030   0.017  0.00  0.00    +0.263 A 
ATOM     16  O   UNL     1      -2.332  -0.191   0.000  0.00  0.00    -0.267 OA
ATOM     17  N   UNL     1      -4.731   3.836   0.082  0.00  0.00    -0.307 N 
ATOM     18  C   UNL     1      -5.900   3.103  -0.397  0.00  0.00    +0.129 C 
ATOM     19  C   UNL     1      -7.138   3.945  -0.263  0.00  0.00    -0.022 A 
ATOM     20  C   UNL     1      -8.376   3.322  -0.264  0.00  0.00    +0.006 A 
ATOM     21  C   UNL     1      -9.533   4.067  -0.151  0.00  0.00    +0.000 A 
ATOM     22  C   UNL     1      -9.455   5.443  -0.037  0.00  0.00    +0.000 A 
ATOM     23  C   UNL     1      -8.223   6.065  -0.031  0.00  0.00    +0.004 A 
ATOM     24  C   UNL     1      -7.060   5.317  -0.140  0.00  0.00    -0.041 A 
ATOM     25  C   UNL     1      -5.738   6.040  -0.107  0.00  0.00    +0.054 C 
ATOM     26  C   UNL     1      -4.614   5.128  -0.604  0.00  0.00    +0.112 C 
ATOM     27  C   UNL     1      -7.320   1.120   0.060  0.00  0.00    +0.238 C 
ATOM     28  O   UNL     1      -7.530   0.812  -1.094  0.00  0.00    -0.274 OA
ATOM     29  N   UNL     1      -8.245   0.836   0.988  0.00  0.00    -0.239 N 
ATOM     30  C   UNL     1      -8.074   1.154   2.280  0.00  0.00    +0.315 C 
ATOM     31  O   UNL     1      -8.942   0.867   3.080  0.00  0.00    -0.252 OA
ATOM     32  H   UNL     1      -9.177   0.329   0.699  0.00  0.00    +0.159 HD
ATOM     33  H   UNL     1      -2.386   4.848   0.063  0.00  0.00    +0.168 HD
ENDROOT
BRANCH   1  34
ATOM     34  C   UNL     1      -6.845   2.107   4.134  0.00  0.00    +0.118 C 
BRANCH  34  35
ATOM     35  C   UNL     1      -7.432   3.496   4.392  0.00  0.00    +0.019 C 
BRANCH  35  36
ATOM     36  C   UNL     1      -7.302   3.836   5.878  0.00  0.00    +0.002 C 
BRANCH  36  37
ATOM     37  C   UNL     1      -7.889   5.225   6.136  0.00  0.00    -0.000 C 
BRANCH  37  39
ATOM     38  C   UNL     1      -8.347   6.955   7.880  0.00  0.00    +0.004 C 
ATOM     39  C   UNL     1      -7.760   5.566   7.622  0.00  0.00    -0.003 C 
ENDBRANCH  37  39
ENDBRANCH  36  37
ENDBRANCH  35  36
ENDBRANCH  34  35
ENDBRANCH   1  34
TORSDOF 5
