REMARK  Name = ZINC16684946
REMARK  6 active torsions:
REMARK  status: ('A' for Active; 'I' for Inactive)
REMARK    1  A    between atoms: C_1  and  C_2
REMARK    2  A    between atoms: C_5  and  C_22
REMARK    3  A    between atoms: C_10  and  C_12
REMARK    4  A    between atoms: C_12  and  C_14
REMARK    5  A    between atoms: C_12  and  S_15
REMARK    6  A    between atoms: S_15  and  C_16
REMARK                            x       y       z     vdW  Elec       q    Type
REMARK                         _______ _______ _______ _____ _____    ______ ____
ROOT
ATOM      1  C   UNL     1       3.109  -2.098   1.356  0.00  0.00    +0.136 C 
ATOM      2  C   UNL     1       3.538  -1.727   2.777  0.00  0.00    +0.029 C 
ENDROOT
BRANCH   1  10
ATOM      3  C   UNL     1      -0.054   1.637   0.483  0.00  0.00    +0.009 C 
ATOM      4  C   UNL     1      -0.040   0.115   0.332  0.00  0.00    +0.004 C 
ATOM      5  C   UNL     1      -1.476  -0.414   0.352  0.00  0.00    +0.009 C 
ATOM      6  C   UNL     1      -1.465  -1.933   0.168  0.00  0.00    +0.004 C 
ATOM      7  C   UNL     1      -0.696  -2.578   1.325  0.00  0.00    +0.111 C 
ATOM      8  N   UNL     1       0.639  -1.970   1.403  0.00  0.00    -0.300 N 
ATOM      9  C   UNL     1       0.746  -0.507   1.491  0.00  0.00    +0.111 C 
ATOM     10  C   UNL     1       1.746  -2.740   1.395  0.00  0.00    +0.229 C 
ATOM     11  O   UNL     1       1.644  -3.948   1.419  0.00  0.00    -0.274 OA
ATOM     12  C   UNL     1      -0.782  -2.282  -1.156  0.00  0.00    +0.009 C 
ENDBRANCH   1  10
BRANCH   1  13
ATOM     13  S   UNL     1       4.305  -3.264   0.648  0.00  0.00    -0.084 S 
BRANCH  13  14
ATOM     14  C   UNL     1       5.794  -2.329   0.534  0.00  0.00    +0.161 A 
ATOM     15  N   UNL     1       6.024  -1.077   0.879  0.00  0.00    -0.133 NA
ATOM     16  N   UNL     1       7.277  -0.537   0.703  0.00  0.00    -0.125 NA
ATOM     17  C   UNL     1       8.243  -1.274   0.189  0.00  0.00    +0.180 A 
ATOM     18  S   UNL     1       7.399  -2.826  -0.073  0.00  0.00    -0.025 S 
ATOM     19  N   UNL     1       9.565  -0.934  -0.072  0.00  0.00    -0.336 N 
ATOM     20  H   UNL     1       9.886  -0.042   0.130  0.00  0.00    +0.144 HD
ATOM     21  H   UNL     1      10.167  -1.591  -0.457  0.00  0.00    +0.144 HD
ENDBRANCH  13  14
ENDBRANCH   1  13
TORSDOF 3
