REMARK  Name = ZINC37865078
REMARK  5 active torsions:
REMARK  status: ('A' for Active; 'I' for Inactive)
REMARK    1  A    between atoms: C_1  and  C_2
REMARK    2  A    between atoms: C_6  and  N_17
REMARK    3  A    between atoms: C_7  and  N_8
REMARK    4  A    between atoms: C_9  and  C_11
REMARK    5  A    between atoms: C_11  and  C_12
REMARK                            x       y       z     vdW  Elec       q    Type
REMARK                         _______ _______ _______ _____ _____    ______ ____
ROOT
ATOM      1  C   UNL     1       1.671  -2.166   2.197  0.00  0.00    +0.046 C 
ATOM      2  C   UNL     1       0.787  -1.759   1.046  0.00  0.00    -0.026 A 
ATOM      3  C   UNL     1       0.893  -2.407  -0.170  0.00  0.00    +0.020 A 
ATOM      4  C   UNL     1       0.082  -2.037  -1.228  0.00  0.00    +0.020 A 
ATOM      5  C   UNL     1      -0.839  -1.016  -1.075  0.00  0.00    +0.040 A 
ATOM      6  C   UNL     1      -0.951  -0.361   0.142  0.00  0.00    +0.047 A 
ATOM      7  C   UNL     1      -0.137  -0.738   1.210  0.00  0.00    +0.057 A 
ATOM      8 BR   UNL     1       0.235  -2.929  -2.889  0.00  0.00    -0.050 Br
ENDROOT
BRANCH   7   9
ATOM      9  N   UNL     1      -0.250  -0.084   2.445  0.00  0.00    -0.284 N 
ATOM     10  C   UNL     1      -0.469  -0.796   3.568  0.00  0.00    +0.218 C 
ATOM     11  O   UNL     1      -0.639  -1.995   3.502  0.00  0.00    -0.275 OA
ATOM     12  H   UNL     1      -0.171   0.882   2.491  0.00  0.00    +0.155 HD
BRANCH  10  13
ATOM     13  C   UNL     1      -0.503  -0.103   4.905  0.00  0.00    +0.099 C 
BRANCH  13  14
ATOM     14  C   UNL     1      -0.766  -1.132   6.006  0.00  0.00    -0.002 C 
ATOM     15  C   UNL     1      -2.199  -1.690   5.877  0.00  0.00    +0.004 C 
ATOM     16  C   UNL     1      -2.671  -1.868   7.341  0.00  0.00    +0.000 C 
ATOM     17  C   UNL     1      -2.063  -0.632   8.049  0.00  0.00    +0.000 C 
ATOM     18  C   UNL     1      -0.680  -0.459   7.388  0.00  0.00    +0.004 C 
ENDBRANCH  13  14
ENDBRANCH  10  13
ENDBRANCH   7   9
BRANCH   6  19
ATOM     19  N   UNL     1      -1.881   0.672   0.299  0.00  0.00    -0.356 N 
ATOM     20  H   UNL     1      -2.520   0.861  -0.406  0.00  0.00    +0.142 HD
ATOM     21  H   UNL     1      -1.888   1.198   1.113  0.00  0.00    +0.142 HD
ENDBRANCH   6  19
TORSDOF 4
