REMARK  Name = ZINC64155792
REMARK  8 active torsions:
REMARK  status: ('A' for Active; 'I' for Inactive)
REMARK    1  A    between atoms: C_1  and  C_2
REMARK    2  A    between atoms: C_2  and  O_3
REMARK    3  A    between atoms: O_3  and  C_4
REMARK    4  A    between atoms: C_4  and  C_6
REMARK    5  A    between atoms: C_9  and  N_13
REMARK    6  A    between atoms: C_14  and  C_16
REMARK    7  A    between atoms: C_16  and  N_17
REMARK    8  A    between atoms: C_18  and  C_23
REMARK                            x       y       z     vdW  Elec       q    Type
REMARK                         _______ _______ _______ _____ _____    ______ ____
ROOT
ATOM      1  N   UNL     1      -0.391  -7.101   1.532  0.00  0.00    -0.287 N 
ATOM      2  C   UNL     1       0.170  -8.282   1.204  0.00  0.00    +0.235 C 
ATOM      3  O   UNL     1       1.326  -8.506   1.496  0.00  0.00    -0.274 OA
ATOM      4  H   UNL     1      -1.316  -6.922   1.298  0.00  0.00    +0.151 HD
ENDROOT
BRANCH   1   8
ATOM      5  C   UNL     1      -0.227  -2.619   3.160  0.00  0.00    +0.110 C 
ATOM      6  C   UNL     1      -0.099  -3.960   3.259  0.00  0.00    +0.023 C 
ATOM      7  N   UNL     1      -0.266  -4.766   2.191  0.00  0.00    -0.320 N 
ATOM      8  C   UNL     1       0.394  -6.089   2.242  0.00  0.00    +0.219 C 
ATOM      9  S   UNL     1       0.391  -6.394   4.061  0.00  0.00    -0.114 S 
ATOM     10  C   UNL     1       0.248  -4.630   4.579  0.00  0.00    +0.123 C 
ATOM     11  H   UNL     1      -0.795  -4.491   1.426  0.00  0.00    +0.148 HD
BRANCH   5  12
ATOM     12  C   UNL     1      -0.410  -2.020   1.895  0.00  0.00    +0.333 C 
ATOM     13  O   UNL     1      -0.342  -2.696   0.885  0.00  0.00    -0.246 OA
BRANCH  12  14
ATOM     14  O   UNL     1      -0.662  -0.697   1.805  0.00  0.00    -0.462 OA
BRANCH  14  16
ATOM     15  C   UNL     1      -1.111   1.345   0.593  0.00  0.00    +0.048 C 
ATOM     16  C   UNL     1      -0.837  -0.157   0.494  0.00  0.00    +0.229 C 
ENDBRANCH  14  16
ENDBRANCH  12  14
ENDBRANCH   5  12
ENDBRANCH   1   8
BRANCH   2  17
ATOM     17  C   UNL     1      -0.638  -9.323   0.474  0.00  0.00    +0.221 C 
BRANCH  17  18
ATOM     18  N   UNL     1       0.192 -10.507   0.235  0.00  0.00    -0.293 N 
ATOM     19  C   UNL     1       0.900 -10.809  -0.905  0.00  0.00    +0.165 A 
ATOM     20  N   UNL     1       1.501 -11.956  -0.693  0.00  0.00    -0.128 NA
ATOM     21  N   UNL     1       1.221 -12.386   0.486  0.00  0.00    -0.121 NA
ATOM     22  C   UNL     1       0.428 -11.537   1.100  0.00  0.00    +0.203 A 
ATOM     23  S   UNL     1      -0.213 -11.699   2.733  0.00  0.00    -0.009 SA
BRANCH  19  24
ATOM     24  C   UNL     1       0.971  -9.995  -2.137  0.00  0.00    +0.019 A 
ATOM     25  C   UNL     1       0.654  -8.636  -2.099  0.00  0.00    +0.013 A 
ATOM     26  C   UNL     1       0.722  -7.882  -3.251  0.00  0.00    +0.021 A 
ATOM     27  C   UNL     1       1.104  -8.470  -4.445  0.00  0.00    +0.041 A 
ATOM     28  C   UNL     1       1.420  -9.817  -4.490  0.00  0.00    +0.021 A 
ATOM     29  C   UNL     1       1.362 -10.581  -3.343  0.00  0.00    +0.013 A 
ATOM     30 CL   UNL     1       1.187  -7.514  -5.892  0.00  0.00    -0.084 Cl
ENDBRANCH  19  24
ENDBRANCH  17  18
ENDBRANCH   2  17
TORSDOF 7
