REMARK  Name = ZINC35280910
REMARK  3 active torsions:
REMARK  status: ('A' for Active; 'I' for Inactive)
REMARK    1  A    between atoms: C_1  and  C_2
REMARK    2  A    between atoms: C_3  and  N_21
REMARK    3  A    between atoms: C_7  and  N_8
REMARK                            x       y       z     vdW  Elec       q    Type
REMARK                         _______ _______ _______ _____ _____    ______ ____
ROOT
ATOM      1  N   UNL     1       0.025  -0.013   2.417  0.00  0.00    -0.210 N 
ATOM      2  C   UNL     1      -1.099   0.324   3.060  0.00  0.00    +0.227 C 
ATOM      3  O   UNL     1      -2.225   0.081   2.681  0.00  0.00    -0.275 OA
ATOM      4  C   UNL     1      -0.744   1.057   4.335  0.00  0.00    +0.113 C 
ATOM      5  C   UNL     1       0.802   1.084   4.322  0.00  0.00    +0.056 C 
ATOM      6  C   UNL     1       1.151   0.360   3.036  0.00  0.00    +0.233 C 
ATOM      7  O   UNL     1       2.275   0.153   2.630  0.00  0.00    -0.274 OA
ATOM      8  C   UNL     1       1.296   0.217   5.502  0.00  0.00    +0.016 C 
ATOM      9  C   UNL     1       2.694  -0.252   5.206  0.00  0.00    +0.001 C 
ATOM     10  C   UNL     1       3.770   0.673   5.808  0.00  0.00    +0.000 C 
ATOM     11  C   UNL     1       3.435   2.167   5.643  0.00  0.00    +0.000 C 
ATOM     12  C   UNL     1       2.871   2.479   4.283  0.00  0.00    +0.001 C 
ATOM     13  C   UNL     1       1.333   2.440   4.373  0.00  0.00    +0.016 C 
ENDROOT
BRANCH   1  20
ATOM     14  C   UNL     1      -0.018   1.503   0.010  0.00  0.00    +0.047 C 
ATOM     15  C   UNL     1       0.002  -0.004   0.002  0.00  0.00    -0.008 A 
ATOM     16  C   UNL     1       0.006  -0.693  -1.203  0.00  0.00    +0.029 A 
ATOM     17  C   UNL     1       0.025  -2.082  -1.207  0.00  0.00    +0.023 A 
ATOM     18  C   UNL     1       0.040  -2.777  -0.013  0.00  0.00    +0.004 A 
ATOM     19  C   UNL     1       0.036  -2.094   1.188  0.00  0.00    +0.024 A 
ATOM     20  C   UNL     1       0.023  -0.705   1.198  0.00  0.00    +0.049 A 
BRANCH  16  21
ATOM     21  N   UNL     1      -0.010   0.009  -2.410  0.00  0.00    -0.358 N 
ATOM     22  H   UNL     1      -0.024   0.979  -2.407  0.00  0.00    +0.142 HD
ATOM     23  H   UNL     1      -0.008  -0.472  -3.252  0.00  0.00    +0.142 HD
ENDBRANCH  16  21
ENDBRANCH   1  20
TORSDOF 2
