REMARK  Name = ZINC66255198
REMARK  4 active torsions:
REMARK  status: ('A' for Active; 'I' for Inactive)
REMARK    1  A    between atoms: C_1  and  N_2
REMARK    2  A    between atoms: C_4  and  S_7
REMARK    3  A    between atoms: S_7  and  N_10
REMARK    4  A    between atoms: N_10  and  C_11
REMARK                            x       y       z     vdW  Elec       q    Type
REMARK                         _______ _______ _______ _____ _____    ______ ____
ROOT
ATOM      1  N   UNL     1      -1.534  -3.954  -1.936  0.00  0.00    -0.069 NA
ENDROOT
BRANCH   1   2
ATOM      2  C   UNL     1      -1.827  -5.061  -2.699  0.00  0.00    +0.202 A 
ATOM      3  N   UNL     1      -3.019  -5.541  -3.021  0.00  0.00    -0.226 NA
ATOM      4  C   UNL     1      -3.162  -6.612  -3.763  0.00  0.00    +0.061 A 
ATOM      5  C   UNL     1      -1.956  -7.192  -4.179  0.00  0.00    +0.079 A 
ATOM      6  S   UNL     1      -0.753  -6.122  -3.451  0.00  0.00    -0.046 S 
ATOM      7  C   UNL     1      -1.839  -8.324  -4.975  0.00  0.00    +0.172 C 
ATOM      8  O   UNL     1      -0.753  -8.779  -5.274  0.00  0.00    -0.291 OA
ATOM      9  C   UNL     1      -3.127  -8.970  -5.454  0.00  0.00    +0.080 C 
ATOM     10  C   UNL     1      -4.224  -8.747  -4.413  0.00  0.00    +0.014 C 
ATOM     11  C   UNL     1      -4.475  -7.253  -4.188  0.00  0.00    +0.057 C 
ENDBRANCH   1   2
BRANCH   1  12
ATOM     12  S   UNL     1       0.044  -3.529  -1.664  0.00  0.00    +0.110 S 
ATOM     13  O   UNL     1       0.583  -3.145  -2.921  0.00  0.00    -0.147 OA
ATOM     14  O   UNL     1       0.613  -4.565  -0.875  0.00  0.00    -0.147 OA
BRANCH  12  18
ATOM     15  C   UNL     1      -0.018   1.461   0.010  0.00  0.00    +0.150 C 
ATOM     16  N   UNL     1       0.002  -0.004   0.002  0.00  0.00    -0.340 N 
ATOM     17  C   UNL     1       0.008  -0.810  -1.104  0.00  0.00    +0.134 A 
ATOM     18  C   UNL     1       0.028  -2.081  -0.660  0.00  0.00    +0.195 A 
ATOM     19  N   UNL     1       0.034  -2.052   0.681  0.00  0.00    -0.330 N 
ATOM     20  C   UNL     1       0.024  -0.811   1.085  0.00  0.00    +0.175 A 
ATOM     21  H   UNL     1       0.048  -2.831   1.260  0.00  0.00    +0.168 HD
ENDBRANCH  12  18
ENDBRANCH   1  12
TORSDOF 3
