REMARK  Name = ZINC40842286
REMARK  6 active torsions:
REMARK  status: ('A' for Active; 'I' for Inactive)
REMARK    1  A    between atoms: C_1  and  C_2
REMARK    2  A    between atoms: N_13  and  C_16
REMARK    3  A    between atoms: C_16  and  C_17
REMARK    4  A    between atoms: C_17  and  C_18
REMARK    5  A    between atoms: N_20  and  C_21
REMARK    6  A    between atoms: C_21  and  C_22
REMARK                            x       y       z     vdW  Elec       q    Type
REMARK                         _______ _______ _______ _____ _____    ______ ____
ROOT
ATOM      1  C   UNL     1      -0.018   1.503   0.010  0.00  0.00    +0.088 C 
ATOM      2  C   UNL     1       0.002  -0.004   0.002  0.00  0.00    +0.135 A 
ATOM      3  N   UNL     1      -0.084  -0.775  -1.056  0.00  0.00    -0.134 NA
ATOM      4  N   UNL     1      -0.034  -2.013  -0.705  0.00  0.00    -0.124 NA
ATOM      5  C   UNL     1       0.086  -2.090   0.601  0.00  0.00    +0.227 A 
ATOM      6  N   UNL     1       0.118  -0.804   1.078  0.00  0.00    -0.273 N 
ATOM      7  C   UNL     1       0.247  -0.572   2.445  0.00  0.00    +0.073 A 
ATOM      8  C   UNL     1       0.276   0.729   2.931  0.00  0.00    +0.028 A 
ATOM      9  C   UNL     1       0.404   0.959   4.286  0.00  0.00    +0.002 A 
ATOM     10  C   UNL     1       0.504  -0.105   5.166  0.00  0.00    +0.002 A 
ATOM     11  C   UNL     1       0.477  -1.402   4.695  0.00  0.00    +0.028 A 
ATOM     12  C   UNL     1       0.348  -1.645   3.332  0.00  0.00    +0.069 A 
ATOM     13  N   UNL     1       0.321  -2.957   2.864  0.00  0.00    -0.303 N 
ATOM     14  C   UNL     1       0.188  -3.211   1.546  0.00  0.00    +0.297 A 
ATOM     15  O   UNL     1       0.167  -4.359   1.142  0.00  0.00    -0.264 OA
ENDROOT
BRANCH  13  16
ATOM     16  C   UNL     1       0.428  -4.069   3.812  0.00  0.00    +0.135 C 
BRANCH  16  17
ATOM     17  C   UNL     1      -0.970  -4.476   4.281  0.00  0.00    +0.117 C 
BRANCH  17  18
ATOM     18  C   UNL     1      -0.860  -5.620   5.256  0.00  0.00    +0.215 C 
ATOM     19  O   UNL     1       0.230  -6.066   5.547  0.00  0.00    -0.276 OA
ATOM     20  N   UNL     1      -1.972  -6.147   5.805  0.00  0.00    -0.315 N 
ATOM     21  H   UNL     1      -2.844  -5.791   5.572  0.00  0.00    +0.149 HD
BRANCH  20  22
ATOM     22  C   UNL     1      -1.865  -7.260   6.752  0.00  0.00    +0.107 C 
BRANCH  22  23
ATOM     23  C   UNL     1      -3.263  -7.666   7.222  0.00  0.00    +0.006 C 
ATOM     24  C   UNL     1      -3.589  -7.492   8.706  0.00  0.00    +0.005 C 
ATOM     25  C   UNL     1      -3.374  -8.893   8.130  0.00  0.00    +0.005 C 
ENDBRANCH  22  23
ENDBRANCH  20  22
ENDBRANCH  17  18
ENDBRANCH  16  17
ENDBRANCH  13  16
TORSDOF 5
