REMARK  Name = ZINC41005939
REMARK  8 active torsions:
REMARK  status: ('A' for Active; 'I' for Inactive)
REMARK    1  A    between atoms: C_1  and  C_2
REMARK    2  A    between atoms: C_5  and  C_8
REMARK    3  A    between atoms: C_17  and  C_19
REMARK    4  A    between atoms: C_19  and  C_21
REMARK    5  A    between atoms: C_19  and  O_22
REMARK    6  A    between atoms: O_22  and  C_23
REMARK    7  A    between atoms: C_25  and  C_31
REMARK    8  A    between atoms: C_27  and  C_29
REMARK                            x       y       z     vdW  Elec       q    Type
REMARK                         _______ _______ _______ _____ _____    ______ ____
ROOT
ATOM      1  C   UNL     1      -0.881  -4.356   0.262  0.00  0.00    +0.186 A 
ATOM      2  N   UNL     1      -1.351  -5.144  -0.678  0.00  0.00    -0.126 NA
ATOM      3  N   UNL     1      -1.240  -6.374  -0.315  0.00  0.00    -0.120 NA
ATOM      4  C   UNL     1      -0.697  -6.432   0.866  0.00  0.00    +0.220 A 
ATOM      5  N   UNL     1      -0.431  -5.158   1.300  0.00  0.00    -0.184 N 
ATOM      6  N   UNL     1       0.160  -5.039   2.551  0.00  0.00    -0.140 NA
ATOM      7  C   UNL     1       0.447  -6.093   3.268  0.00  0.00    +0.188 A 
ATOM      8  S   UNL     1      -0.117  -7.425   2.220  0.00  0.00    -0.011 S 
ATOM      9  N   UNL     1       1.033  -6.160   4.526  0.00  0.00    -0.260 N 
ATOM     10  C   UNL     1       1.249  -7.358   5.105  0.00  0.00    +0.259 C 
ATOM     11  O   UNL     1       0.932  -8.376   4.529  0.00  0.00    -0.271 OA
ATOM     12  H   UNL     1       1.287  -5.345   4.987  0.00  0.00    +0.157 HD
ENDROOT
BRANCH   1  17
ATOM     13  C   UNL     1      -0.698   1.392   0.092  0.00  0.00    +0.044 C 
ATOM     14  C   UNL     1      -0.746  -0.113   0.136  0.00  0.00    -0.050 A 
ATOM     15  C   UNL     1      -0.978  -0.830  -1.025  0.00  0.00    +0.004 A 
ATOM     16  C   UNL     1      -1.023  -2.208  -0.991  0.00  0.00    +0.012 A 
ATOM     17  C   UNL     1      -0.833  -2.880   0.218  0.00  0.00    +0.021 A 
ATOM     18  C   UNL     1      -0.599  -2.151   1.385  0.00  0.00    +0.012 A 
ATOM     19  C   UNL     1      -0.551  -0.773   1.337  0.00  0.00    +0.004 A 
ENDBRANCH   1  17
BRANCH  10  20
ATOM     20  C   UNL     1       1.885  -7.431   6.470  0.00  0.00    +0.256 C 
ATOM     21  C   UNL     1       0.954  -6.792   7.502  0.00  0.00    +0.062 C 
BRANCH  20  22
ATOM     22  O   UNL     1       2.114  -8.798   6.816  0.00  0.00    -0.480 OA
BRANCH  22  23
ATOM     23  C   UNL     1       3.103  -9.050   7.713  0.00  0.00    +0.122 A 
ATOM     24  C   UNL     1       3.458 -10.359   8.007  0.00  0.00    +0.050 A 
ATOM     25  C   UNL     1       4.463 -10.614   8.919  0.00  0.00    -0.028 A 
ATOM     26  C   UNL     1       5.117  -9.564   9.540  0.00  0.00    +0.047 A 
ATOM     27  C   UNL     1       4.764  -8.258   9.249  0.00  0.00    -0.028 A 
ATOM     28  C   UNL     1       3.763  -7.999   8.333  0.00  0.00    +0.050 A 
ATOM     29  C   UNL     1       5.477  -7.117   9.928  0.00  0.00    +0.045 C 
ATOM     30 CL   UNL     1       6.380  -9.886  10.687  0.00  0.00    -0.083 Cl
ATOM     31  C   UNL     1       4.849 -12.035   9.238  0.00  0.00    +0.045 C 
ENDBRANCH  22  23
ENDBRANCH  20  22
ENDBRANCH  10  20
TORSDOF 4
