REMARK  Name = ZINC60331542
REMARK  5 active torsions:
REMARK  status: ('A' for Active; 'I' for Inactive)
REMARK    1  A    between atoms: C_10  and  C_12
REMARK    2  A    between atoms: N_14  and  C_15
REMARK    3  A    between atoms: C_20  and  C_21
REMARK    4  A    between atoms: C_21  and  N_22
REMARK    5  A    between atoms: C_26  and  C_29
REMARK                            x       y       z     vdW  Elec       q    Type
REMARK                         _______ _______ _______ _____ _____    ______ ____
ROOT
ATOM      1  C   UNL     1       5.992   2.317   1.573  0.00  0.00    +0.035 A 
ATOM      2  C   UNL     1       6.669   1.840   2.688  0.00  0.00    +0.023 A 
ATOM      3  C   UNL     1       7.318   2.723   3.529  0.00  0.00    +0.002 A 
ATOM      4  C   UNL     1       7.295   4.079   3.261  0.00  0.00    +0.000 A 
ATOM      5  C   UNL     1       6.622   4.557   2.152  0.00  0.00    +0.003 A 
ATOM      6  C   UNL     1       5.976   3.679   1.304  0.00  0.00    -0.043 A 
ENDROOT
BRANCH   1   9
ATOM      7  C   UNL     1       5.858   1.136  -0.488  0.00  0.00    +0.225 C 
ATOM      8  O   UNL     1       6.946   1.575  -0.798  0.00  0.00    -0.275 OA
ATOM      9  N   UNL     1       5.333   1.426   0.719  0.00  0.00    -0.285 N 
ATOM     10  H   UNL     1       4.498   1.017   0.995  0.00  0.00    +0.155 HD
BRANCH   7  20
ATOM     11  C   UNL     1       5.576  -3.806  -0.236  0.00  0.00    +0.000 A 
ATOM     12  C   UNL     1       5.369  -2.808   0.698  0.00  0.00    +0.000 A 
ATOM     13  C   UNL     1       5.218  -1.502   0.282  0.00  0.00    +0.004 A 
ATOM     14  C   UNL     1       5.275  -1.180  -1.068  0.00  0.00    -0.032 A 
ATOM     15  C   UNL     1       5.486  -2.173  -1.998  0.00  0.00    -0.043 A 
ATOM     16  C   UNL     1       5.634  -3.489  -1.577  0.00  0.00    +0.004 A 
ATOM     17  C   UNL     1       5.575  -1.895  -3.475  0.00  0.00    +0.035 C 
ATOM     18  C   UNL     1       4.977  -0.528  -3.802  0.00  0.00    +0.006 C 
ATOM     19  C   UNL     1       5.609   0.512  -2.869  0.00  0.00    +0.018 C 
ATOM     20  C   UNL     1       5.094   0.266  -1.453  0.00  0.00    +0.105 C 
ENDBRANCH   7  20
ENDBRANCH   1   9
BRANCH   6  21
ATOM     21  C   UNL     1       5.249   4.200   0.091  0.00  0.00    -0.041 C 
BRANCH  21  22
ATOM     22  N   UNL     1       3.828   4.384   0.414  0.00  0.00    +0.383 N 
ATOM     23  C   UNL     1       3.215   3.078   0.683  0.00  0.00    -0.078 C 
ATOM     24  C   UNL     1       1.755   3.270   1.099  0.00  0.00    -0.018 C 
ATOM     25  C   UNL     1       0.996   3.969  -0.033  0.00  0.00    +0.009 C 
ATOM     26  C   UNL     1       1.687   5.296  -0.356  0.00  0.00    +0.058 C 
ATOM     27  C   UNL     1       3.150   5.028  -0.718  0.00  0.00    -0.066 C 
ATOM     28  H   UNL     1       3.743   4.968   1.232  0.00  0.00    -0.081 HD
BRANCH  26  29
ATOM     29  C   UNL     1       0.993   5.956  -1.519  0.00  0.00    +0.212 C 
ATOM     30  O   UNL     1       1.607   6.193  -2.537  0.00  0.00    -0.276 OA
ATOM     31  N   UNL     1      -0.312   6.283  -1.428  0.00  0.00    -0.329 N 
ATOM     32  H   UNL     1      -0.803   6.093  -0.613  0.00  0.00    +0.145 HD
ATOM     33  H   UNL     1      -0.759   6.707  -2.177  0.00  0.00    +0.145 HD
ENDBRANCH  26  29
ENDBRANCH  21  22
ENDBRANCH   6  21
TORSDOF 5
