REMARK  Name = ZINC32109951
REMARK  1 active torsions:
REMARK  status: ('A' for Active; 'I' for Inactive)
REMARK    1  A    between atoms: C_4  and  N_7
REMARK                            x       y       z     vdW  Elec       q    Type
REMARK                         _______ _______ _______ _____ _____    ______ ____
ROOT
ATOM      1  N   UNL     1      -0.337   1.220  -2.531  0.00  0.00    -0.276 N 
ATOM      2  C   UNL     1      -0.779   1.575  -1.189  0.00  0.00    +0.103 C 
ATOM      3  C   UNL     1      -0.027   1.025   0.006  0.00  0.00    +0.025 C 
ATOM      4  C   UNL     1      -0.781   1.515   1.258  0.00  0.00    +0.002 C 
ATOM      5  C   UNL     1      -2.240   1.061   1.252  0.00  0.00    +0.002 C 
ATOM      6  C   UNL     1      -2.962   1.455  -0.049  0.00  0.00    +0.026 C 
ATOM      7  C   UNL     1      -2.165   0.870  -1.187  0.00  0.00    +0.102 C 
ATOM      8  N   UNL     1      -2.584   1.035  -2.559  0.00  0.00    -0.362 N 
ATOM      9  C   UNL     1      -1.507   1.235  -3.289  0.00  0.00    +0.146 C 
ATOM     10  S   UNL     1      -1.541   1.494  -5.032  0.00  0.00    -0.016 SA
ATOM     11  H   UNL     1      -3.576   1.020  -3.034  0.00  0.00    +0.162 HD
ENDROOT
BRANCH   1  15
ATOM     12  C   UNL     1       3.532   0.355  -3.808  0.00  0.00    +0.000 A 
ATOM     13  C   UNL     1       2.566  -0.634  -3.815  0.00  0.00    +0.002 A 
ATOM     14  C   UNL     1       1.283  -0.351  -3.392  0.00  0.00    +0.023 A 
ATOM     15  C   UNL     1       0.962   0.930  -2.960  0.00  0.00    +0.036 A 
ATOM     16  C   UNL     1       1.933   1.923  -2.960  0.00  0.00    +0.023 A 
ATOM     17  C   UNL     1       3.216   1.631  -3.378  0.00  0.00    +0.002 A 
ENDBRANCH   1  15
TORSDOF 1
