REMARK  Name = ZINC67203601
REMARK  1 active torsions:
REMARK  status: ('A' for Active; 'I' for Inactive)
REMARK    1  A    between atoms: C_16  and  C_18
REMARK                            x       y       z     vdW  Elec       q    Type
REMARK                         _______ _______ _______ _____ _____    ______ ____
ROOT
ATOM      1  C   UNL     1      -0.017   1.371   0.010  0.00  0.00    +0.078 A 
ATOM      2  C   UNL     1       1.186   2.115   0.002  0.00  0.00    +0.084 A 
ATOM      3  C   UNL     1       2.385   1.369  -0.014  0.00  0.00    +0.044 A 
ATOM      4  C   UNL     1       2.405  -0.004  -0.023  0.00  0.00    +0.067 A 
ATOM      5  C   UNL     1       1.211  -0.705  -0.016  0.00  0.00    +0.174 A 
ATOM      6  C   UNL     1       0.002  -0.004   0.002  0.00  0.00    +0.175 A 
ATOM      7  O   UNL     1      -1.020  -0.914   0.008  0.00  0.00    -0.395 OA
ATOM      8  C   UNL     1      -0.434  -2.157  -0.419  0.00  0.00    +0.589 C 
ATOM      9  O   UNL     1       0.945  -2.043  -0.022  0.00  0.00    -0.395 OA
ATOM     10  F   UNL     1      -0.532  -2.296  -1.807  0.00  0.00    -0.125 F 
ATOM     11  F   UNL     1      -1.045  -3.236   0.228  0.00  0.00    -0.125 F 
ATOM     12  S   UNL     1       3.625   2.642  -0.018  0.00  0.00    -0.052 S 
ATOM     13  C   UNL     1       2.511   4.040   0.002  0.00  0.00    +0.166 A 
ATOM     14  N   UNL     1       1.334   3.459   0.009  0.00  0.00    -0.224 NA
ATOM     15  N   UNL     1       2.813   5.391   0.008  0.00  0.00    -0.260 N 
ATOM     16  C   UNL     1       1.821   6.303   0.023  0.00  0.00    +0.259 C 
ATOM     17  O   UNL     1       0.660   5.939   0.032  0.00  0.00    -0.269 OA
ATOM     18  H   UNL     1       3.738   5.681   0.001  0.00  0.00    +0.157 HD
ENDROOT
BRANCH  16  19
ATOM     19  C   UNL     1       2.141   7.739   0.029  0.00  0.00    +0.114 A 
ATOM     20  C   UNL     1       1.296   8.843   0.050  0.00  0.00    +0.157 A 
ATOM     21  N   UNL     1       1.914   9.998   0.050  0.00  0.00    -0.149 NA
ATOM     22  N   UNL     1       3.196  10.092   0.032  0.00  0.00    -0.110 NA
ATOM     23  S   UNL     1       3.727   8.560   0.020  0.00  0.00    +0.041 S 
ENDBRANCH  16  19
TORSDOF 1
