REMARK  Name = ZINC61242172
REMARK  7 active torsions:
REMARK  status: ('A' for Active; 'I' for Inactive)
REMARK    1  A    between atoms: C_1  and  C_2
REMARK    2  A    between atoms: C_2  and  C_3
REMARK    3  A    between atoms: C_2  and  N_13
REMARK    4  A    between atoms: C_7  and  S_9
REMARK    5  A    between atoms: S_9  and  N_12
REMARK    6  A    between atoms: C_14  and  C_15
REMARK    7  A    between atoms: C_19  and  N_22
REMARK                            x       y       z     vdW  Elec       q    Type
REMARK                         _______ _______ _______ _____ _____    ______ ____
ROOT
ATOM      1  C   UNL     1       0.050   1.313  -0.369  0.00  0.00    +0.035 C 
ATOM      2  C   UNL     1       0.055  -0.197  -0.122  0.00  0.00    +0.106 C 
ENDROOT
BRANCH   2   3
ATOM      3  C   UNL     1       0.806  -0.885  -1.233  0.00  0.00    -0.024 A 
ATOM      4  C   UNL     1       0.186  -1.116  -2.447  0.00  0.00    +0.006 A 
ATOM      5  C   UNL     1       0.874  -1.747  -3.466  0.00  0.00    +0.002 A 
ATOM      6  C   UNL     1       2.183  -2.147  -3.271  0.00  0.00    +0.028 A 
ATOM      7  C   UNL     1       2.803  -1.916  -2.058  0.00  0.00    +0.105 A 
ATOM      8  C   UNL     1       2.116  -1.281  -1.040  0.00  0.00    +0.034 A 
BRANCH   7   9
ATOM      9  S   UNL     1       4.471  -2.426  -1.810  0.00  0.00    +0.056 S 
ATOM     10  O   UNL     1       4.644  -2.583  -0.408  0.00  0.00    -0.153 OA
ATOM     11  O   UNL     1       4.714  -3.481  -2.730  0.00  0.00    -0.153 OA
BRANCH   9  12
ATOM     12  N   UNL     1       5.443  -1.166  -2.268  0.00  0.00    -0.204 NA
ATOM     13  H   UNL     1       5.047  -0.344  -2.598  0.00  0.00    +0.144 HD
ATOM     14  H   UNL     1       6.407  -1.249  -2.206  0.00  0.00    +0.144 HD
ENDBRANCH   9  12
ENDBRANCH   7   9
ENDBRANCH   2   3
BRANCH   2  15
ATOM     15  N   UNL     1      -1.324  -0.691  -0.085  0.00  0.00    -0.383 N 
ATOM     16  C   UNL     1      -1.791  -1.294   1.018  0.00  0.00    +0.090 C 
ATOM     17  H   UNL     1      -1.899  -0.582  -0.859  0.00  0.00    +0.160 HD
BRANCH  16  18
ATOM     18  C   UNL     1      -3.129  -1.692   1.083  0.00  0.00    +0.041 A 
ATOM     19  C   UNL     1      -3.610  -2.427   2.189  0.00  0.00    +0.033 A 
ATOM     20  C   UNL     1      -4.915  -2.805   2.234  0.00  0.00    +0.044 A 
ATOM     21  C   UNL     1      -5.801  -2.484   1.209  0.00  0.00    +0.056 A 
ATOM     22  C   UNL     1      -5.401  -1.777   0.117  0.00  0.00    +0.175 A 
ATOM     23  C   UNL     1      -4.067  -1.349   0.007  0.00  0.00    +0.217 A 
ATOM     24  O   UNL     1      -3.694  -0.709  -0.967  0.00  0.00    -0.285 OA
ATOM     25 CL   UNL     1      -5.490  -3.709   3.600  0.00  0.00    -0.083 Cl
BRANCH  22  26
ATOM     26  N   UNL     1      -6.372  -1.455  -0.954  0.00  0.00    +0.060 N 
ATOM     27  O   UNL     1      -7.520  -1.819  -0.857  0.00  0.00    -0.126 OA
ATOM     28  O   UNL     1      -6.016  -0.828  -1.924  0.00  0.00    -0.126 OA
ENDBRANCH  22  26
ENDBRANCH  16  18
ENDBRANCH   2  15
TORSDOF 6
