REMARK  Name = ZINC48279631
REMARK  7 active torsions:
REMARK  status: ('A' for Active; 'I' for Inactive)
REMARK    1  A    between atoms: C_1  and  C_2
REMARK    2  A    between atoms: C_2  and  C_3
REMARK    3  A    between atoms: C_2  and  C_4
REMARK    4  A    between atoms: C_4  and  N_5
REMARK    5  A    between atoms: C_6  and  C_8
REMARK    6  A    between atoms: N_13  and  C_15
REMARK    7  A    between atoms: C_15  and  N_16
REMARK                            x       y       z     vdW  Elec       q    Type
REMARK                         _______ _______ _______ _____ _____    ______ ____
ROOT
ATOM      1  C   UNL     1      -4.078  -0.112  -2.723  0.00  0.00    +0.058 C 
ATOM      2  C   UNL     1      -3.326  -0.707  -3.916  0.00  0.00    +0.009 C 
ATOM      3  C   UNL     1      -4.080  -0.364  -5.204  0.00  0.00    -0.018 C 
ATOM      4  C   UNL     1      -5.514  -0.887  -5.104  0.00  0.00    -0.076 C 
ATOM      5  N   UNL     1      -6.188  -0.261  -3.960  0.00  0.00    +0.392 N 
ATOM      6  C   UNL     1      -5.513  -0.643  -2.713  0.00  0.00    -0.064 C 
ATOM      7  H   UNL     1      -6.160   0.742  -4.062  0.00  0.00    -0.079 HD
ENDROOT
BRANCH   1   9
ATOM      8  N   UNL     1      -2.105  -0.148  -1.230  0.00  0.00    -0.315 N 
ATOM      9  C   UNL     1      -3.387  -0.508  -1.443  0.00  0.00    +0.214 C 
ATOM     10  O   UNL     1      -3.983  -1.151  -0.606  0.00  0.00    -0.276 OA
ATOM     11  H   UNL     1      -1.628   0.366  -1.901  0.00  0.00    +0.149 HD
BRANCH   8  12
ATOM     12  C   UNL     1      -1.433  -0.534   0.013  0.00  0.00    +0.107 C 
BRANCH  12  14
ATOM     13  C   UNL     1      -0.019   1.526   0.010  0.00  0.00    +0.009 C 
ATOM     14  C   UNL     1       0.002  -0.004   0.002  0.00  0.00    -0.000 C 
ATOM     15  C   UNL     1       0.742  -0.511   1.242  0.00  0.00    +0.009 C 
ENDBRANCH  12  14
ENDBRANCH   8  12
ENDBRANCH   1   9
BRANCH   5  16
ATOM     16  C   UNL     1      -7.587  -0.707  -3.914  0.00  0.00    +0.054 C 
BRANCH  16  17
ATOM     17  N   UNL     1      -8.295  -0.215  -5.098  0.00  0.00    -0.291 N 
ATOM     18  C   UNL     1      -8.969   1.001  -5.210  0.00  0.00    +0.088 A 
ATOM     19  C   UNL     1      -9.182   2.055  -4.336  0.00  0.00    +0.029 A 
ATOM     20  C   UNL     1      -9.910   3.154  -4.749  0.00  0.00    +0.002 A 
ATOM     21  C   UNL     1     -10.428   3.204  -6.032  0.00  0.00    +0.004 A 
ATOM     22  C   UNL     1     -10.220   2.157  -6.909  0.00  0.00    +0.048 A 
ATOM     23  C   UNL     1      -9.489   1.050  -6.503  0.00  0.00    +0.157 A 
ATOM     24  O   UNL     1      -9.131  -0.099  -7.126  0.00  0.00    -0.407 OA
ATOM     25  C   UNL     1      -8.410  -0.852  -6.280  0.00  0.00    +0.420 A 
ATOM     26  O   UNL     1      -7.936  -1.942  -6.539  0.00  0.00    -0.223 OA
ENDBRANCH  16  17
ENDBRANCH   5  16
TORSDOF 5
