REMARK  Name = ZINC09440903
REMARK  6 active torsions:
REMARK  status: ('A' for Active; 'I' for Inactive)
REMARK    1  A    between atoms: C_11  and  C_13
REMARK    2  A    between atoms: C_13  and  O_14
REMARK    3  A    between atoms: O_14  and  C_15
REMARK    4  A    between atoms: C_15  and  C_17
REMARK    5  A    between atoms: C_21  and  S_23
REMARK    6  A    between atoms: S_23  and  N_26
REMARK                            x       y       z     vdW  Elec       q    Type
REMARK                         _______ _______ _______ _____ _____    ______ ____
ROOT
ATOM      1  C   UNL     1      -0.346   0.960   0.062  0.00  0.00    +0.340 C 
ATOM      2  O   UNL     1      -0.500  -0.244   0.095  0.00  0.00    -0.245 OA
ENDROOT
BRANCH   1   3
ATOM      3  C   UNL     1      -1.520   1.853  -0.011  0.00  0.00    +0.061 A 
ATOM      4  C   UNL     1      -1.346   3.239  -0.042  0.00  0.00    +0.016 A 
ATOM      5  C   UNL     1      -2.446   4.067  -0.116  0.00  0.00    +0.023 A 
ATOM      6  C   UNL     1      -3.722   3.527  -0.147  0.00  0.00    +0.067 A 
ATOM      7  C   UNL     1      -3.901   2.155  -0.111  0.00  0.00    +0.124 A 
ATOM      8  C   UNL     1      -2.808   1.316  -0.043  0.00  0.00    +0.045 A 
ATOM      9 CL   UNL     1      -5.102   4.577  -0.233  0.00  0.00    -0.082 Cl
BRANCH   7  10
ATOM     10  S   UNL     1      -5.527   1.478  -0.152  0.00  0.00    +0.062 S 
ATOM     11  O   UNL     1      -5.383   0.067  -0.073  0.00  0.00    -0.153 OA
ATOM     12  O   UNL     1      -6.299   2.219   0.785  0.00  0.00    -0.153 OA
BRANCH  10  13
ATOM     13  N   UNL     1      -6.157   1.807  -1.648  0.00  0.00    -0.177 NA
ATOM     14  C   UNL     1      -7.042   2.962  -1.850  0.00  0.00    +0.109 C 
ATOM     15  C   UNL     1      -6.479   3.814  -2.998  0.00  0.00    +0.017 C 
ATOM     16  C   UNL     1      -6.300   2.934  -4.238  0.00  0.00    +0.003 C 
ATOM     17  C   UNL     1      -5.300   1.817  -3.933  0.00  0.00    +0.017 C 
ATOM     18  C   UNL     1      -5.845   0.946  -2.796  0.00  0.00    +0.109 C 
ENDBRANCH  10  13
ENDBRANCH   7  10
ENDBRANCH   1   3
BRANCH   1  19
ATOM     19  O   UNL     1       0.896   1.482   0.087  0.00  0.00    -0.452 OA
BRANCH  19  20
ATOM     20  C   UNL     1       2.003   0.544   0.154  0.00  0.00    +0.328 C 
BRANCH  20  31
ATOM     21  C   UNL     1       8.042   2.770   0.609  0.00  0.00    +0.000 A 
ATOM     22  C   UNL     1       6.890   3.401   0.174  0.00  0.00    +0.002 A 
ATOM     23  C   UNL     1       5.709   2.692   0.084  0.00  0.00    +0.024 A 
ATOM     24  C   UNL     1       5.679   1.345   0.422  0.00  0.00    +0.040 A 
ATOM     25  C   UNL     1       6.833   0.713   0.861  0.00  0.00    -0.026 A 
ATOM     26  C   UNL     1       8.013   1.432   0.950  0.00  0.00    +0.005 A 
ATOM     27  C   UNL     1       6.838  -0.745   1.238  0.00  0.00    +0.038 C 
ATOM     28  C   UNL     1       5.421  -1.219   1.562  0.00  0.00    +0.024 C 
ATOM     29  C   UNL     1       4.490  -0.823   0.408  0.00  0.00    +0.114 C 
ATOM     30  N   UNL     1       4.468   0.644   0.333  0.00  0.00    -0.268 N 
ATOM     31  C   UNL     1       3.304   1.304   0.173  0.00  0.00    +0.258 C 
ATOM     32  O   UNL     1       3.304   2.511   0.046  0.00  0.00    -0.272 OA
ENDBRANCH  20  31
ENDBRANCH  19  20
ENDBRANCH   1  19
TORSDOF 6
