REMARK  Name = ZINC59942150
REMARK  9 active torsions:
REMARK  status: ('A' for Active; 'I' for Inactive)
REMARK    1  A    between atoms: C_1  and  C_2
REMARK    2  A    between atoms: C_2  and  O_3
REMARK    3  A    between atoms: O_3  and  C_4
REMARK    4  A    between atoms: C_4  and  C_6
REMARK    5  A    between atoms: N_8  and  C_26
REMARK    6  A    between atoms: N_11  and  C_25
REMARK    7  A    between atoms: C_15  and  C_17
REMARK    8  A    between atoms: C_20  and  O_23
REMARK    9  A    between atoms: O_23  and  C_24
REMARK                            x       y       z     vdW  Elec       q    Type
REMARK                         _______ _______ _______ _____ _____    ______ ____
ROOT
ATOM      1  C   UNL     1       1.432  -2.424  -2.476  0.00  0.00    +0.204 C 
ATOM      2  N   UNL     1       1.951  -1.719  -3.447  0.00  0.00    -0.162 NA
ATOM      3  N   UNL     1       2.570  -2.293  -4.543  0.00  0.00    -0.172 N 
ATOM      4  C   UNL     1       2.601  -3.755  -4.536  0.00  0.00    +0.271 C 
ATOM      5  S   UNL     1       1.747  -4.116  -2.959  0.00  0.00    -0.028 S 
ATOM      6  N   UNL     1       3.947  -4.309  -4.547  0.00  0.00    -0.207 N 
ATOM      7  N   UNL     1       3.980  -5.179  -5.651  0.00  0.00    -0.173 NA
ATOM      8  C   UNL     1       2.852  -5.201  -6.268  0.00  0.00    +0.214 C 
ATOM      9  N   UNL     1       1.917  -4.359  -5.669  0.00  0.00    -0.206 N 
ATOM     10  C   UNL     1       0.644  -4.148  -6.059  0.00  0.00    +0.255 C 
ATOM     11  O   UNL     1      -0.085  -3.434  -5.396  0.00  0.00    -0.269 OA
ATOM     12  C   UNL     1       5.035  -4.022  -3.609  0.00  0.00    +0.157 C 
ENDROOT
BRANCH   3  13
ATOM     13  C   UNL     1       3.122  -1.535  -5.576  0.00  0.00    +0.056 A 
ATOM     14  C   UNL     1       3.726  -2.166  -6.657  0.00  0.00    +0.026 A 
ATOM     15  C   UNL     1       4.271  -1.413  -7.678  0.00  0.00    +0.017 A 
ATOM     16  C   UNL     1       4.215  -0.031  -7.626  0.00  0.00    +0.018 A 
ATOM     17  C   UNL     1       3.614   0.601  -6.551  0.00  0.00    +0.017 A 
ATOM     18  C   UNL     1       3.063  -0.147  -5.529  0.00  0.00    +0.026 A 
ATOM     19 BR   UNL     1       4.963   0.996  -9.026  0.00  0.00    -0.050 Br
ENDBRANCH   3  13
BRANCH  10  20
ATOM     20  C   UNL     1       0.134  -4.782  -7.290  0.00  0.00    +0.038 A 
ATOM     21  C   UNL     1       0.533  -6.078  -7.627  0.00  0.00    +0.016 A 
ATOM     22  C   UNL     1       0.055  -6.666  -8.777  0.00  0.00    +0.046 A 
ATOM     23  C   UNL     1      -0.822  -5.972  -9.602  0.00  0.00    +0.120 A 
ATOM     24  C   UNL     1      -1.221  -4.683  -9.270  0.00  0.00    +0.046 A 
ATOM     25  C   UNL     1      -0.753  -4.090  -8.119  0.00  0.00    +0.016 A 
BRANCH  23  26
ATOM     26  O   UNL     1      -1.290  -6.555 -10.735  0.00  0.00    -0.495 OA
ATOM     27  C   UNL     1      -2.188  -5.786 -11.537  0.00  0.00    +0.277 C 
ENDBRANCH  23  26
ENDBRANCH  10  20
BRANCH   1  28
ATOM     28  C   UNL     1       0.754  -1.938  -1.268  0.00  0.00    +0.366 C 
ATOM     29  O   UNL     1       0.328  -2.731  -0.450  0.00  0.00    -0.243 OA
BRANCH  28  30
ATOM     30  O   UNL     1       0.603  -0.613  -1.065  0.00  0.00    -0.460 OA
BRANCH  30  32
ATOM     31  C   UNL     1      -0.141   1.315   0.186  0.00  0.00    +0.048 C 
ATOM     32  C   UNL     1      -0.066  -0.212   0.131  0.00  0.00    +0.229 C 
ENDBRANCH  30  32
ENDBRANCH  28  30
ENDBRANCH   1  28
TORSDOF 6
