REMARK  Name = ZINC21733704
REMARK  7 active torsions:
REMARK  status: ('A' for Active; 'I' for Inactive)
REMARK    1  A    between atoms: C_1  and  C_2
REMARK    2  A    between atoms: C_2  and  C_3
REMARK    3  A    between atoms: C_2  and  N_4
REMARK    4  A    between atoms: C_5  and  S_9
REMARK    5  A    between atoms: S_9  and  C_10
REMARK    6  A    between atoms: C_10  and  C_11
REMARK    7  A    between atoms: N_13  and  C_14
REMARK                            x       y       z     vdW  Elec       q    Type
REMARK                         _______ _______ _______ _____ _____    ______ ____
ROOT
ATOM      1  C   UNL     1      -3.796  -4.895  -4.498  0.00  0.00    +0.227 C 
ATOM      2  O   UNL     1      -4.237  -5.955  -4.890  0.00  0.00    -0.275 OA
ATOM      3  N   UNL     1      -2.847  -4.255  -5.209  0.00  0.00    -0.285 N 
ATOM      4  H   UNL     1      -2.543  -3.377  -4.932  0.00  0.00    +0.155 HD
ENDROOT
BRANCH   3   5
ATOM      5  C   UNL     1      -2.299  -4.858  -6.348  0.00  0.00    +0.037 A 
ATOM      6  C   UNL     1      -0.959  -4.670  -6.657  0.00  0.00    +0.027 A 
ATOM      7  C   UNL     1      -0.416  -5.264  -7.781  0.00  0.00    +0.051 A 
ATOM      8  C   UNL     1      -1.208  -6.049  -8.601  0.00  0.00    +0.167 A 
ATOM      9  C   UNL     1      -2.555  -6.240  -8.293  0.00  0.00    +0.169 A 
ATOM     10  C   UNL     1      -3.096  -5.649  -7.166  0.00  0.00    +0.072 A 
ATOM     11  O   UNL     1      -3.104  -7.051  -9.252  0.00  0.00    -0.447 OA
ATOM     12  C   UNL     1      -2.211  -6.920 -10.367  0.00  0.00    +0.254 C 
ATOM     13  O   UNL     1      -0.927  -6.740  -9.752  0.00  0.00    -0.448 OA
ATOM     14  C   UNL     1      -2.583  -5.719 -11.241  0.00  0.00    +0.093 C 
ATOM     15  C   UNL     1      -2.243  -6.184 -12.681  0.00  0.00    +0.008 C 
ATOM     16  C   UNL     1      -2.641  -7.682 -12.664  0.00  0.00    +0.008 C 
ATOM     17  C   UNL     1      -2.236  -8.165 -11.253  0.00  0.00    +0.093 C 
ENDBRANCH   3   5
BRANCH   1  18
ATOM     18  C   UNL     1      -4.311  -4.294  -3.215  0.00  0.00    +0.173 C 
BRANCH  18  19
ATOM     19  S   UNL     1      -5.571  -5.385  -2.499  0.00  0.00    -0.075 S 
BRANCH  19  21
ATOM     20  N   UNL     1      -6.996  -4.978  -0.138  0.00  0.00    -0.218 N 
ATOM     21  C   UNL     1      -6.066  -4.554  -1.026  0.00  0.00    +0.210 A 
ATOM     22  N   UNL     1      -5.602  -3.406  -0.583  0.00  0.00    -0.101 NA
ATOM     23  N   UNL     1      -6.177  -3.084   0.520  0.00  0.00    -0.022 NA
ATOM     24  N   UNL     1      -7.040  -3.982   0.854  0.00  0.00    -0.043 NA
BRANCH  20  26
ATOM     25  C   UNL     1      -7.510  -7.059   1.040  0.00  0.00    +0.032 C 
ATOM     26  C   UNL     1      -7.790  -6.207  -0.199  0.00  0.00    +0.106 C 
ATOM     27  C   UNL     1      -9.278  -5.851  -0.248  0.00  0.00    +0.032 C 
ENDBRANCH  20  26
ENDBRANCH  19  21
ENDBRANCH  18  19
ENDBRANCH   1  18
TORSDOF 5
