REMARK  Name = ZINC36737708
REMARK  4 active torsions:
REMARK  status: ('A' for Active; 'I' for Inactive)
REMARK    1  A    between atoms: C_3  and  N_10
REMARK    2  A    between atoms: C_4  and  C_8
REMARK    3  A    between atoms: C_6  and  N_7
REMARK    4  A    between atoms: C_11  and  C_13
REMARK                            x       y       z     vdW  Elec       q    Type
REMARK                         _______ _______ _______ _____ _____    ______ ____
ROOT
ATOM      1  N   UNL     1       3.575   2.156  -0.022  0.00  0.00    -0.280 N 
ATOM      2  C   UNL     1       3.549   3.500  -0.117  0.00  0.00    +0.250 C 
ATOM      3  O   UNL     1       2.486   4.089  -0.103  0.00  0.00    -0.270 OA
ATOM      4  H   UNL     1       4.424   1.691   0.048  0.00  0.00    +0.155 HD
ENDROOT
BRANCH   2   5
ATOM      5  C   UNL     1       4.812   4.257  -0.237  0.00  0.00    +0.056 A 
ATOM      6  C   UNL     1       6.034   3.583  -0.259  0.00  0.00    +0.029 A 
ATOM      7  C   UNL     1       7.210   4.296  -0.372  0.00  0.00    +0.019 A 
ATOM      8  C   UNL     1       7.180   5.678  -0.463  0.00  0.00    +0.017 A 
ATOM      9  C   UNL     1       5.973   6.352  -0.443  0.00  0.00    +0.022 A 
ATOM     10  C   UNL     1       4.788   5.650  -0.335  0.00  0.00    +0.053 A 
ATOM     11 CL   UNL     1       3.273   6.498  -0.316  0.00  0.00    -0.083 Cl
ATOM     12 BR   UNL     1       8.867   3.385  -0.401  0.00  0.00    -0.050 Br
ENDBRANCH   2   5
BRANCH   1  15
ATOM     13  C   UNL     1       0.066   1.250  -0.623  0.00  0.00    +0.024 A 
ATOM     14  C   UNL     1       1.247   1.965  -0.619  0.00  0.00    +0.026 A 
ATOM     15  C   UNL     1       2.382   1.432  -0.025  0.00  0.00    +0.051 A 
ATOM     16  C   UNL     1       2.327   0.164   0.573  0.00  0.00    +0.075 A 
ATOM     17  C   UNL     1       1.128  -0.552   0.565  0.00  0.00    +0.043 A 
ATOM     18  C   UNL     1       0.004  -0.007  -0.033  0.00  0.00    +0.026 A 
BRANCH  18  19
ATOM     19  N   UNL     1      -1.198  -0.724  -0.042  0.00  0.00    -0.358 N 
ATOM     20  H   UNL     1      -1.986  -0.343  -0.459  0.00  0.00    +0.142 HD
ATOM     21  H   UNL     1      -1.243  -1.601   0.370  0.00  0.00    +0.142 HD
ENDBRANCH  18  19
BRANCH  16  22
ATOM     22  C   UNL     1       3.494  -0.393   1.188  0.00  0.00    +0.101 C 
ATOM     23  N   UNL     1       4.420  -0.835   1.676  0.00  0.00    -0.191 NA
ENDBRANCH  16  22
ENDBRANCH   1  15
TORSDOF 4
