REMARK  Name = ZINC05767592
REMARK  6 active torsions:
REMARK  status: ('A' for Active; 'I' for Inactive)
REMARK    1  A    between atoms: C_1  and  O_2
REMARK    2  A    between atoms: O_2  and  C_3
REMARK    3  A    between atoms: C_15  and  O_18
REMARK    4  A    between atoms: C_20  and  C_23
REMARK    5  A    between atoms: C_23  and  C_26
REMARK    6  A    between atoms: C_26  and  O_27
REMARK                            x       y       z     vdW  Elec       q    Type
REMARK                         _______ _______ _______ _____ _____    ______ ____
ROOT
ATOM      1  C   UNL     1       1.860   2.662   6.517  0.00  0.00    +0.138 A 
ATOM      2  C   UNL     1       0.678   2.665   5.803  0.00  0.00    +0.092 A 
ATOM      3  C   UNL     1       0.642   2.178   4.494  0.00  0.00    +0.131 A 
ATOM      4  C   UNL     1       1.803   1.682   3.916  0.00  0.00    +0.041 A 
ATOM      5  C   UNL     1       3.000   1.673   4.609  0.00  0.00    +0.150 A 
ATOM      6  C   UNL     1       3.030   2.167   5.926  0.00  0.00    +0.107 A 
ATOM      7  C   UNL     1       4.303   2.151   6.663  0.00  0.00    +0.204 A 
ATOM      8  O   UNL     1       4.386   2.572   7.803  0.00  0.00    -0.286 OA
ATOM      9  C   UNL     1       5.477   1.600   5.953  0.00  0.00    +0.068 A 
ATOM     10  C   UNL     1       6.724   1.537   6.576  0.00  0.00    +0.015 A 
ATOM     11  C   UNL     1       7.802   1.016   5.895  0.00  0.00    +0.004 A 
ATOM     12  C   UNL     1       7.651   0.556   4.596  0.00  0.00    +0.049 A 
ATOM     13  C   UNL     1       6.421   0.613   3.967  0.00  0.00    +0.160 A 
ATOM     14  C   UNL     1       5.316   1.138   4.640  0.00  0.00    +0.180 A 
ATOM     15  O   UNL     1       4.117   1.194   4.024  0.00  0.00    -0.450 OA
ATOM     16  C   UNL     1       1.440   1.210   2.521  0.00  0.00    +0.090 C 
ATOM     17  C   UNL     1      -0.104   1.152   2.596  0.00  0.00    +0.214 C 
ATOM     18  O   UNL     1      -0.408   2.103   3.631  0.00  0.00    -0.485 OA
ENDROOT
BRANCH  17  19
ATOM     19  C   UNL     1      -0.729   1.579   1.267  0.00  0.00    +0.152 C 
ATOM     20  C   UNL     1      -2.250   1.729   1.209  0.00  0.00    +0.202 C 
ATOM     21  O   UNL     1      -1.369   2.856   1.212  0.00  0.00    -0.362 OA
BRANCH  19  22
ATOM     22  C   UNL     1      -0.013   1.086   0.008  0.00  0.00    +0.196 C 
BRANCH  22  23
ATOM     23  O   UNL     1      -0.704   1.559  -1.150  0.00  0.00    -0.392 OA
ATOM     24  H   UNL     1      -0.304   1.284  -1.986  0.00  0.00    +0.210 HD
ENDBRANCH  22  23
ENDBRANCH  19  22
ENDBRANCH  17  19
BRANCH   1  26
ATOM     25  C   UNL     1       0.657   3.625   8.325  0.00  0.00    +0.277 C 
ATOM     26  O   UNL     1       1.888   3.136   7.788  0.00  0.00    -0.494 OA
ENDBRANCH   1  26
BRANCH  13  27
ATOM     27  O   UNL     1       6.288   0.158   2.692  0.00  0.00    -0.503 OA
ATOM     28  H   UNL     1       6.444   0.832   2.016  0.00  0.00    +0.292 HD
ENDBRANCH  13  27
TORSDOF 5
