REMARK  Name = ZINC23245016
REMARK  10 active torsions:
REMARK  status: ('A' for Active; 'I' for Inactive)
REMARK    1  A    between atoms: C_1  and  C_2
REMARK    2  A    between atoms: C_4  and  O_34
REMARK    3  A    between atoms: C_5  and  S_9
REMARK    4  A    between atoms: C_7  and  C_8
REMARK    5  A    between atoms: S_9  and  N_12
REMARK    6  A    between atoms: N_15  and  C_18
REMARK    7  A    between atoms: C_18  and  C_19
REMARK    8  A    between atoms: C_19  and  N_20
REMARK    9  A    between atoms: C_25  and  C_27
REMARK   10  A    between atoms: O_34  and  C_35
REMARK                            x       y       z     vdW  Elec       q    Type
REMARK                         _______ _______ _______ _____ _____    ______ ____
ROOT
ATOM      1  N   UNL     1       1.018   9.814   2.073  0.00  0.00    -0.180 NA
ATOM      2  C   UNL     1      -0.157   9.276   2.775  0.00  0.00    +0.091 C 
ATOM      3  C   UNL     1      -0.031   7.750   2.837  0.00  0.00    -0.061 C 
ATOM      4  N   UNL     1       0.178   7.224   1.481  0.00  0.00    +0.383 N 
ATOM      5  C   UNL     1       1.439   7.714   0.908  0.00  0.00    -0.061 C 
ATOM      6  C   UNL     1       1.373   9.239   0.767  0.00  0.00    +0.091 C 
ATOM      7  H   UNL     1      -0.643   7.592   0.849  0.00  0.00    -0.082 HD
ENDROOT
BRANCH   1   8
ATOM      8  S   UNL     1       1.920  11.034   2.737  0.00  0.00    +0.064 S 
ATOM      9  O   UNL     1       2.576  11.687   1.659  0.00  0.00    -0.153 OA
ATOM     10  O   UNL     1       1.067  11.724   3.640  0.00  0.00    -0.153 OA
BRANCH   8  15
ATOM     11  C   UNL     1       6.241   8.454   6.071  0.00  0.00    +0.044 C 
ATOM     12  C   UNL     1       5.160   9.097   5.241  0.00  0.00    -0.044 A 
ATOM     13  C   UNL     1       3.834   8.948   5.599  0.00  0.00    +0.051 A 
ATOM     14  C   UNL     1       2.840   9.545   4.838  0.00  0.00    +0.147 A 
ATOM     15  C   UNL     1       3.180  10.280   3.711  0.00  0.00    +0.147 A 
ATOM     16  C   UNL     1       4.507  10.426   3.357  0.00  0.00    +0.036 A 
ATOM     17  C   UNL     1       5.497   9.835   4.121  0.00  0.00    -0.045 A 
ATOM     18  C   UNL     1       6.944   9.994   3.732  0.00  0.00    +0.044 C 
BRANCH  14  19
ATOM     19  O   UNL     1       1.536   9.406   5.192  0.00  0.00    -0.493 OA
ATOM     20  C   UNL     1       1.260   8.636   6.364  0.00  0.00    +0.277 C 
ENDBRANCH  14  19
ENDBRANCH   8  15
ENDBRANCH   1   8
BRANCH   4  21
ATOM     21  C   UNL     1       0.132   5.755   1.474  0.00  0.00    -0.055 C 
BRANCH  21  22
ATOM     22  C   UNL     1       0.103   5.253   0.029  0.00  0.00    +0.129 C 
BRANCH  22  23
ATOM     23  N   UNL     1       0.058   3.789   0.021  0.00  0.00    -0.231 N 
ATOM     24  C   UNL     1      -1.138   3.171   0.029  0.00  0.00    +0.267 A 
ATOM     25  O   UNL     1      -2.168   3.826   0.043  0.00  0.00    -0.266 OA
ATOM     26  C   UNL     1      -1.192   1.760   0.017  0.00  0.00    +0.074 A 
ATOM     27  C   UNL     1      -0.013   1.076   0.008  0.00  0.00    +0.035 A 
ATOM     28  C   UNL     1       1.192   1.818   0.000  0.00  0.00    +0.092 A 
ATOM     29  N   UNL     1       1.159   3.130   0.008  0.00  0.00    -0.168 NA
BRANCH  28  30
ATOM     30  C   UNL     1       2.495   1.111  -0.015  0.00  0.00    +0.002 A 
ATOM     31  C   UNL     1       2.535  -0.282  -0.017  0.00  0.00    +0.011 A 
ATOM     32  C   UNL     1       3.751  -0.935  -0.037  0.00  0.00    +0.020 A 
ATOM     33  C   UNL     1       4.929  -0.209  -0.045  0.00  0.00    +0.041 A 
ATOM     34  C   UNL     1       4.895   1.175  -0.037  0.00  0.00    +0.020 A 
ATOM     35  C   UNL     1       3.685   1.838  -0.023  0.00  0.00    +0.011 A 
ATOM     36 CL   UNL     1       6.455  -1.036  -0.063  0.00  0.00    -0.084 Cl
ENDBRANCH  28  30
ENDBRANCH  22  23
ENDBRANCH  21  22
ENDBRANCH   4  21
TORSDOF 7
