REMARK  Name = ZINC49371964
REMARK  6 active torsions:
REMARK  status: ('A' for Active; 'I' for Inactive)
REMARK    1  A    between atoms: C_1  and  C_2
REMARK    2  A    between atoms: C_4  and  C_16
REMARK    3  A    between atoms: C_6  and  C_8
REMARK    4  A    between atoms: C_9  and  C_10
REMARK    5  A    between atoms: C_9  and  C_12
REMARK    6  A    between atoms: N_14  and  C_15
REMARK                            x       y       z     vdW  Elec       q    Type
REMARK                         _______ _______ _______ _____ _____    ______ ____
ROOT
ATOM      1  C   UNL     1       0.019  -2.859   2.435  0.00  0.00    +0.032 C 
ATOM      2  C   UNL     1       0.569  -4.109   2.485  0.00  0.00    +0.114 C 
ENDROOT
BRANCH   1   8
ATOM      3  C   UNL     1       0.368   1.270  -0.335  0.00  0.00    +0.044 C 
ATOM      4  C   UNL     1       0.025  -0.191  -0.197  0.00  0.00    -0.050 A 
ATOM      5  C   UNL     1      -0.444  -0.896  -1.292  0.00  0.00    +0.006 A 
ATOM      6  C   UNL     1      -0.763  -2.239  -1.177  0.00  0.00    -0.050 A 
ATOM      7  C   UNL     1      -0.615  -2.885   0.031  0.00  0.00    +0.011 A 
ATOM      8  C   UNL     1      -0.141  -2.180   1.145  0.00  0.00    -0.023 A 
ATOM      9  C   UNL     1       0.184  -0.823   1.018  0.00  0.00    +0.011 A 
ATOM     10  C   UNL     1      -1.273  -2.995  -2.377  0.00  0.00    +0.044 C 
ENDBRANCH   1   8
BRANCH   2  11
ATOM     11  C   UNL     1       1.210  -4.680   1.289  0.00  0.00    +0.254 C 
ATOM     12  O   UNL     1       1.360  -3.996   0.295  0.00  0.00    -0.269 OA
ATOM     13  N   UNL     1       1.629  -5.961   1.296  0.00  0.00    -0.314 N 
ATOM     14  C   UNL     1       2.267  -6.529   0.106  0.00  0.00    +0.128 C 
ATOM     15  H   UNL     1       1.509  -6.506   2.089  0.00  0.00    +0.149 HD
ENDBRANCH   2  11
BRANCH   2  16
ATOM     16  C   UNL     1       0.521  -4.863   3.702  0.00  0.00    +0.104 C 
ATOM     17  N   UNL     1       0.484  -5.462   4.666  0.00  0.00    -0.191 NA
ENDBRANCH   2  16
TORSDOF 3
