REMARK  Name = ZINC10393141
REMARK  8 active torsions:
REMARK  status: ('A' for Active; 'I' for Inactive)
REMARK    1  A    between atoms: C_1  and  C_2
REMARK    2  A    between atoms: C_5  and  N_9
REMARK    3  A    between atoms: C_6  and  C_8
REMARK    4  A    between atoms: C_13  and  S_14
REMARK    5  A    between atoms: S_14  and  C_15
REMARK    6  A    between atoms: C_15  and  C_16
REMARK    7  A    between atoms: N_18  and  N_19
REMARK    8  A    between atoms: C_25  and  C_28
REMARK                            x       y       z     vdW  Elec       q    Type
REMARK                         _______ _______ _______ _____ _____    ______ ____
ROOT
ATOM      1  C   UNL     1      -1.187   1.624   0.017  0.00  0.00    +0.240 C 
ATOM      2  O   UNL     1      -1.204   2.837   0.023  0.00  0.00    -0.273 OA
ATOM      3  N   UNL     1      -0.011   0.966   0.007  0.00  0.00    -0.223 N 
ATOM      4  H   UNL     1       0.002  -0.004   0.002  0.00  0.00    +0.174 HD
ENDROOT
BRANCH   3   5
ATOM      5  N   UNL     1       1.193   1.683  -0.000  0.00  0.00    -0.137 N 
ATOM      6  C   UNL     1       2.002   1.817   1.071  0.00  0.00    +0.263 C 
ATOM      7  O   UNL     1       1.834   1.358   2.180  0.00  0.00    -0.271 OA
ATOM      8  C   UNL     1       3.164   2.659   0.596  0.00  0.00    +0.114 C 
ATOM      9  C   UNL     1       4.469   1.881   0.716  0.00  0.00    +0.035 C 
ATOM     10  C   UNL     1       5.628   2.740   0.204  0.00  0.00    +0.006 C 
ATOM     11  C   UNL     1       5.707   4.029   1.024  0.00  0.00    -0.014 C 
ATOM     12  C   UNL     1       4.400   4.811   0.874  0.00  0.00    +0.006 C 
ATOM     13  C   UNL     1       3.236   3.960   1.388  0.00  0.00    +0.035 C 
ATOM     14  C   UNL     1       6.872   4.883   0.522  0.00  0.00    +0.007 C 
ATOM     15  N   UNL     1       2.854   2.931  -0.814  0.00  0.00    -0.284 N 
ATOM     16  C   UNL     1       1.685   2.315  -1.073  0.00  0.00    +0.326 C 
ATOM     17  O   UNL     1       1.137   2.333  -2.157  0.00  0.00    -0.251 OA
ATOM     18  H   UNL     1       3.388   3.449  -1.437  0.00  0.00    +0.151 HD
ENDBRANCH   3   5
BRANCH   1  19
ATOM     19  C   UNL     1      -2.482   0.853   0.018  0.00  0.00    +0.174 C 
BRANCH  19  20
ATOM     20  S   UNL     1      -3.874   2.010   0.031  0.00  0.00    -0.078 S 
BRANCH  20  25
ATOM     21  N   UNL     1      -6.542   1.200   0.045  0.00  0.00    -0.294 N 
ATOM     22  C   UNL     1      -7.249   0.016   0.038  0.00  0.00    +0.113 A 
ATOM     23  C   UNL     1      -6.347  -0.979   0.028  0.00  0.00    +0.131 A 
ATOM     24  N   UNL     1      -5.117  -0.437   0.024  0.00  0.00    -0.230 NA
ATOM     25  C   UNL     1      -5.218   0.872   0.032  0.00  0.00    +0.174 A 
BRANCH  21  30
ATOM     26  C   UNL     1      -8.723   6.439   0.108  0.00  0.00    +0.044 C 
ATOM     27  C   UNL     1      -8.144   5.048   0.091  0.00  0.00    -0.050 A 
ATOM     28  C   UNL     1      -8.338   4.207   1.172  0.00  0.00    +0.005 A 
ATOM     29  C   UNL     1      -7.808   2.932   1.159  0.00  0.00    +0.027 A 
ATOM     30  C   UNL     1      -7.081   2.494   0.061  0.00  0.00    +0.051 A 
ATOM     31  C   UNL     1      -6.883   3.342  -1.020  0.00  0.00    -0.026 A 
ATOM     32  C   UNL     1      -7.421   4.615  -1.004  0.00  0.00    +0.008 A 
ATOM     33  C   UNL     1      -6.089   2.873  -2.212  0.00  0.00    +0.046 C 
ENDBRANCH  21  30
ENDBRANCH  20  25
ENDBRANCH  19  20
ENDBRANCH   1  19
TORSDOF 5
