REMARK  Name = ZINC31932579
REMARK  6 active torsions:
REMARK  status: ('A' for Active; 'I' for Inactive)
REMARK    1  A    between atoms: C_1  and  C_2
REMARK    2  A    between atoms: C_7  and  O_8
REMARK    3  A    between atoms: O_8  and  C_9
REMARK    4  A    between atoms: C_9  and  C_10
REMARK    5  A    between atoms: C_16  and  C_17
REMARK    6  A    between atoms: C_20  and  C_22
REMARK                            x       y       z     vdW  Elec       q    Type
REMARK                         _______ _______ _______ _____ _____    ______ ____
ROOT
ATOM      1  C   UNL     1       2.400   0.357   4.463  0.00  0.00    +0.137 C 
ATOM      2  N   UNL     1       1.872   1.544   4.552  0.00  0.00    -0.166 NA
ATOM      3  N   UNL     1       1.483   2.064   5.768  0.00  0.00    -0.152 N 
ATOM      4  C   UNL     1       0.824   3.296   5.966  0.00  0.00    +0.153 C 
ATOM      5  N   UNL     1       0.132   3.899   5.033  0.00  0.00    -0.283 NA
ATOM      6  C   UNL     1       0.992   3.842   7.340  0.00  0.00    +0.084 C 
ATOM      7  C   UNL     1       1.051   5.206   7.581  0.00  0.00    +0.063 C 
ATOM      8  C   UNL     1       1.091   2.851   8.436  0.00  0.00    +0.273 C 
ATOM      9  O   UNL     1       0.779   3.146   9.579  0.00  0.00    -0.268 OA
ATOM     10  N   UNL     1       1.537   1.614   8.136  0.00  0.00    -0.152 NA
ATOM     11  C   UNL     1       1.740   1.295   6.883  0.00  0.00    +0.181 C 
ATOM     12  S   UNL     1       2.407  -0.184   6.167  0.00  0.00    -0.035 S 
ATOM     13  H   UNL     1       0.054   3.500   4.153  0.00  0.00    +0.188 HD
ENDROOT
BRANCH   7  14
ATOM     14  C   UNL     1       1.452   5.679   8.841  0.00  0.00    +0.129 A 
ATOM     15  C   UNL     1       1.416   7.001   9.264  0.00  0.00    +0.050 A 
ATOM     16  C   UNL     1       1.900   7.019  10.571  0.00  0.00    +0.050 A 
ATOM     17  C   UNL     1       2.214   5.718  10.904  0.00  0.00    +0.136 A 
ATOM     18  O   UNL     1       1.933   4.927   9.854  0.00  0.00    -0.455 OA
BRANCH  17  19
ATOM     19  C   UNL     1       2.762   5.269  12.198  0.00  0.00    +0.019 A 
ATOM     20  C   UNL     1       3.000   6.194  13.218  0.00  0.00    +0.013 A 
ATOM     21  C   UNL     1       3.511   5.768  14.426  0.00  0.00    +0.022 A 
ATOM     22  C   UNL     1       3.789   4.426  14.630  0.00  0.00    +0.059 A 
ATOM     23  C   UNL     1       3.555   3.503  13.622  0.00  0.00    +0.060 A 
ATOM     24  C   UNL     1       3.039   3.916  12.411  0.00  0.00    +0.033 A 
ATOM     25 CL   UNL     1       3.907   1.824  13.887  0.00  0.00    -0.082 Cl
ATOM     26 CL   UNL     1       4.433   3.898  16.153  0.00  0.00    -0.082 Cl
ENDBRANCH  17  19
ENDBRANCH   7  14
BRANCH   1  27
ATOM     27  C   UNL     1       2.877  -0.376   3.236  0.00  0.00    +0.293 C 
BRANCH  27  28
ATOM     28  O   UNL     1       2.676   0.444   2.083  0.00  0.00    -0.485 OA
BRANCH  28  35
ATOM     29  C   UNL     1       2.288   2.050  -0.209  0.00  0.00    +0.047 C 
ATOM     30  C   UNL     1       2.890   0.670  -0.276  0.00  0.00    -0.009 A 
ATOM     31  C   UNL     1       3.283   0.145  -1.492  0.00  0.00    +0.007 A 
ATOM     32  C   UNL     1       3.835  -1.121  -1.554  0.00  0.00    +0.000 A 
ATOM     33  C   UNL     1       3.996  -1.865  -0.400  0.00  0.00    +0.004 A 
ATOM     34  C   UNL     1       3.605  -1.345   0.819  0.00  0.00    +0.046 A 
ATOM     35  C   UNL     1       3.056  -0.072   0.885  0.00  0.00    +0.124 A 
ENDBRANCH  28  35
ENDBRANCH  27  28
ENDBRANCH   1  27
TORSDOF 5
