REMARK  Name = ZINC03600299
REMARK  3 active torsions:
REMARK  status: ('A' for Active; 'I' for Inactive)
REMARK    1  A    between atoms: C_1  and  C_2
REMARK    2  A    between atoms: C_2  and  C_4
REMARK    3  A    between atoms: C_2  and  O_18
REMARK                            x       y       z     vdW  Elec       q    Type
REMARK                         _______ _______ _______ _____ _____    ______ ____
ROOT
ATOM      1  C   UNL     1       0.731  -0.503   1.223  0.00  0.00    -0.018 A 
ATOM      2  C   UNL     1       2.113  -0.515   1.249  0.00  0.00    +0.010 A 
ATOM      3  C   UNL     1       2.786  -0.977   2.363  0.00  0.00    +0.048 A 
ATOM      4  C   UNL     1       2.083  -1.433   3.473  0.00  0.00    +0.142 A 
ATOM      5  C   UNL     1       0.691  -1.409   3.443  0.00  0.00    +0.055 A 
ATOM      6  C   UNL     1       0.019  -0.946   2.323  0.00  0.00    +0.025 A 
ATOM      7  S   UNL     1      -0.221  -1.952   4.851  0.00  0.00    -0.082 S 
ATOM      8  C   UNL     1       0.987  -1.935   6.136  0.00  0.00    +0.055 A 
ATOM      9  C   UNL     1       0.583  -1.963   7.462  0.00  0.00    +0.019 A 
ATOM     10  C   UNL     1       1.527  -1.943   8.473  0.00  0.00    +0.001 A 
ATOM     11  C   UNL     1       2.871  -1.893   8.156  0.00  0.00    +0.004 A 
ATOM     12  C   UNL     1       3.277  -1.867   6.837  0.00  0.00    +0.047 A 
ATOM     13  C   UNL     1       2.339  -1.892   5.810  0.00  0.00    +0.142 A 
ATOM     14  O   UNL     1       2.775  -1.890   4.535  0.00  0.00    -0.454 OA
ENDROOT
BRANCH   1  16
ATOM     15  C   UNL     1      -0.019   1.526   0.010  0.00  0.00    +0.043 C 
ATOM     16  C   UNL     1       0.002  -0.004   0.002  0.00  0.00    +0.141 C 
BRANCH  16  17
ATOM     17  O   UNL     1       0.671  -0.465  -1.174  0.00  0.00    -0.387 OA
ATOM     18  H   UNL     1       0.256  -0.181  -1.999  0.00  0.00    +0.210 HD
ENDBRANCH  16  17
ENDBRANCH   1  16
TORSDOF 2
