REMARK  Name = ZINC66498892
REMARK  7 active torsions:
REMARK  status: ('A' for Active; 'I' for Inactive)
REMARK    1  A    between atoms: C_1  and  C_2
REMARK    2  A    between atoms: C_7  and  N_8
REMARK    3  A    between atoms: C_11  and  C_16
REMARK    4  A    between atoms: C_16  and  N_17
REMARK    5  A    between atoms: C_23  and  C_25
REMARK    6  A    between atoms: C_25  and  C_26
REMARK    7  A    between atoms: C_25  and  C_27
REMARK                            x       y       z     vdW  Elec       q    Type
REMARK                         _______ _______ _______ _____ _____    ______ ____
ROOT
ATOM      1  N   UNL     1       1.470   0.099   2.874  0.00  0.00    -0.283 N 
ATOM      2  C   UNL     1       1.035  -0.634   3.961  0.00  0.00    +0.224 A 
ATOM      3  N   UNL     1       0.829  -0.033   5.130  0.00  0.00    -0.198 NA
ATOM      4  C   UNL     1       0.412  -0.734   6.171  0.00  0.00    +0.150 A 
ATOM      5  N   UNL     1       0.199  -2.033   6.055  0.00  0.00    -0.198 NA
ATOM      6  C   UNL     1       0.402  -2.641   4.888  0.00  0.00    +0.217 A 
ATOM      7  N   UNL     1       0.816  -1.939   3.838  0.00  0.00    -0.181 NA
ATOM      8  N   UNL     1       0.179  -3.997   4.768  0.00  0.00    -0.327 N 
ATOM      9  H   UNL     1       1.542   1.064   2.937  0.00  0.00    +0.155 HD
ATOM     10  H   UNL     1      -0.127  -4.508   5.534  0.00  0.00    +0.145 HD
ATOM     11  H   UNL     1       0.328  -4.440   3.918  0.00  0.00    +0.145 HD
ENDROOT
BRANCH   1  18
ATOM     12  C   UNL     1       1.292   1.569   0.445  0.00  0.00    +0.045 C 
ATOM     13  C   UNL     1       1.735   0.129   0.474  0.00  0.00    -0.029 A 
ATOM     14  C   UNL     1       2.075  -0.514  -0.700  0.00  0.00    +0.005 A 
ATOM     15  C   UNL     1       2.482  -1.835  -0.674  0.00  0.00    +0.000 A 
ATOM     16  C   UNL     1       2.551  -2.517   0.527  0.00  0.00    +0.002 A 
ATOM     17  C   UNL     1       2.212  -1.880   1.705  0.00  0.00    +0.023 A 
ATOM     18  C   UNL     1       1.808  -0.551   1.683  0.00  0.00    +0.036 A 
ENDBRANCH   1  18
BRANCH   4  19
ATOM     19  C   UNL     1       0.180  -0.049   7.493  0.00  0.00    +0.161 C 
BRANCH  19  20
ATOM     20  N   UNL     1      -1.210   0.422   7.564  0.00  0.00    -0.283 NA
ATOM     21  C   UNL     1      -1.452   1.499   6.590  0.00  0.00    +0.104 C 
ATOM     22  C   UNL     1      -2.959   1.736   6.485  0.00  0.00    +0.119 C 
ATOM     23  N   UNL     1      -3.535   1.897   7.817  0.00  0.00    -0.313 N 
ATOM     24  C   UNL     1      -2.912   1.498   8.931  0.00  0.00    +0.231 C 
ATOM     25  O   UNL     1      -3.475   1.642   9.995  0.00  0.00    -0.274 OA
ATOM     26  C   UNL     1      -1.542   0.880   8.919  0.00  0.00    +0.146 C 
ATOM     27  H   UNL     1      -4.408   2.311   7.897  0.00  0.00    +0.149 HD
BRANCH  26  28
ATOM     28  C   UNL     1      -1.514  -0.311   9.879  0.00  0.00    +0.009 C 
ATOM     29  C   UNL     1      -1.801   0.174  11.302  0.00  0.00    +0.009 C 
ATOM     30  C   UNL     1      -2.579  -1.327   9.462  0.00  0.00    +0.009 C 
ENDBRANCH  26  28
ENDBRANCH  19  20
ENDBRANCH   4  19
TORSDOF 4
