REMARK  Name = ZINC45834626
REMARK  8 active torsions:
REMARK  status: ('A' for Active; 'I' for Inactive)
REMARK    1  A    between atoms: C_1  and  C_2
REMARK    2  A    between atoms: C_6  and  C_12
REMARK    3  A    between atoms: C_10  and  C_11
REMARK    4  A    between atoms: C_12  and  C_13
REMARK    5  A    between atoms: N_15  and  C_16
REMARK    6  A    between atoms: C_16  and  C_18
REMARK    7  A    between atoms: C_16  and  C_19
REMARK    8  A    between atoms: C_22  and  N_25
REMARK                            x       y       z     vdW  Elec       q    Type
REMARK                         _______ _______ _______ _____ _____    ______ ____
ROOT
ATOM      1  C   UNL     1       1.431  -5.891  -0.942  0.00  0.00    +0.218 C 
ATOM      2  O   UNL     1       2.274  -5.107  -0.563  0.00  0.00    -0.275 OA
ATOM      3  N   UNL     1       1.755  -6.854  -1.828  0.00  0.00    -0.308 N 
ATOM      4  H   UNL     1       1.081  -7.482  -2.131  0.00  0.00    +0.149 HD
ENDROOT
BRANCH   3   5
ATOM      5  C   UNL     1       3.127  -6.953  -2.332  0.00  0.00    +0.100 C 
ATOM      6  C   UNL     1       3.972  -7.772  -1.354  0.00  0.00    +0.033 C 
BRANCH   5   7
ATOM      7  C   UNL     1       3.120  -7.629  -3.679  0.00  0.00    -0.027 A 
ATOM      8  C   UNL     1       2.276  -8.701  -3.908  0.00  0.00    +0.007 A 
ATOM      9  C   UNL     1       2.267  -9.323  -5.141  0.00  0.00    +0.023 A 
ATOM     10  C   UNL     1       3.107  -8.872  -6.151  0.00  0.00    +0.035 A 
ATOM     11  C   UNL     1       3.953  -7.795  -5.918  0.00  0.00    +0.023 A 
ATOM     12  C   UNL     1       3.953  -7.174  -4.684  0.00  0.00    +0.007 A 
BRANCH  10  13
ATOM     13  N   UNL     1       3.100  -9.500  -7.401  0.00  0.00    -0.270 N 
ATOM     14  C   UNL     1       1.956 -10.021  -7.888  0.00  0.00    +0.301 C 
ATOM     15  O   UNL     1       0.912  -9.861  -7.287  0.00  0.00    -0.253 OA
ATOM     16  N   UNL     1       1.971 -10.720  -9.040  0.00  0.00    -0.313 N 
ATOM     17  H   UNL     1       3.919  -9.561  -7.918  0.00  0.00    +0.156 HD
ATOM     18  H   UNL     1       2.804 -10.847  -9.520  0.00  0.00    +0.146 HD
ATOM     19  H   UNL     1       1.147 -11.095  -9.390  0.00  0.00    +0.146 HD
ENDBRANCH  10  13
ENDBRANCH   5   7
ENDBRANCH   3   5
BRANCH   1  20
ATOM     20  C   UNL     1       0.019  -5.790  -0.423  0.00  0.00    +0.134 C 
BRANCH  20  26
ATOM     21  C   UNL     1      -0.917   0.995   0.307  0.00  0.00    +0.044 C 
ATOM     22  C   UNL     1      -0.702  -0.496   0.283  0.00  0.00    -0.044 A 
ATOM     23  C   UNL     1      -0.691  -1.169  -0.930  0.00  0.00    +0.004 A 
ATOM     24  C   UNL     1      -0.497  -2.521  -0.970  0.00  0.00    +0.012 A 
ATOM     25  C   UNL     1      -0.308  -3.228   0.217  0.00  0.00    +0.024 A 
ATOM     26  C   UNL     1      -0.078  -4.640   0.545  0.00  0.00    +0.007 A 
ATOM     27  C   UNL     1       0.028  -4.700   1.880  0.00  0.00    +0.200 A 
ATOM     28  O   UNL     1      -0.113  -3.474   2.412  0.00  0.00    -0.462 OA
ATOM     29  C   UNL     1      -0.318  -2.553   1.449  0.00  0.00    +0.138 A 
ATOM     30  C   UNL     1      -0.511  -1.177   1.467  0.00  0.00    -0.005 A 
ATOM     31  C   UNL     1      -0.519  -0.432   2.777  0.00  0.00    +0.048 C 
ENDBRANCH  20  26
ENDBRANCH   1  20
TORSDOF 5
