REMARK  Name = ZINC39152769
REMARK  6 active torsions:
REMARK  status: ('A' for Active; 'I' for Inactive)
REMARK    1  A    between atoms: C_1  and  C_2
REMARK    2  A    between atoms: C_3  and  C_27
REMARK    3  A    between atoms: C_8  and  C_10
REMARK    4  A    between atoms: C_10  and  S_11
REMARK    5  A    between atoms: S_11  and  C_12
REMARK    6  A    between atoms: C_27  and  C_29
REMARK                            x       y       z     vdW  Elec       q    Type
REMARK                         _______ _______ _______ _____ _____    ______ ____
ROOT
ATOM      1  S   UNL     1       0.065  -2.391   6.145  0.00  0.00    -0.079 S 
ENDROOT
BRANCH   1   2
ATOM      2  C   UNL     1       0.088  -3.620   7.407  0.00  0.00    +0.182 C 
ATOM      3  N   UNL     1       0.109  -4.892   7.046  0.00  0.00    -0.151 NA
ATOM      4  C   UNL     1       0.133  -5.890   7.928  0.00  0.00    +0.272 C 
ATOM      5  O   UNL     1       0.149  -7.053   7.560  0.00  0.00    -0.268 OA
ATOM      6  C   UNL     1       0.139  -5.542   9.386  0.00  0.00    +0.071 C 
ATOM      7  C   UNL     1       0.224  -6.380  10.432  0.00  0.00    -0.042 C 
ATOM      8  C   UNL     1       0.504  -7.876  10.303  0.00  0.00    +0.033 C 
ATOM      9  C   UNL     1       1.731  -8.172  11.175  0.00  0.00    +0.004 C 
ATOM     10  C   UNL     1       1.512  -7.649  12.592  0.00  0.00    +0.002 C 
ATOM     11  C   UNL     1       1.363  -6.125  12.594  0.00  0.00    +0.019 C 
ATOM     12  C   UNL     1       0.096  -5.757  11.818  0.00  0.00    +0.079 C 
ATOM     13  S   UNL     1       0.095  -3.966  11.432  0.00  0.00    -0.097 S 
ATOM     14  C   UNL     1       0.103  -4.089   9.661  0.00  0.00    +0.112 C 
ATOM     15  N   UNL     1       0.089  -3.224   8.680  0.00  0.00    -0.217 NA
ENDBRANCH   1   2
BRANCH   1  16
ATOM     16  C   UNL     1       0.070  -3.345   4.602  0.00  0.00    +0.173 C 
BRANCH  16  24
ATOM     17  C   UNL     1      -0.018   1.503   0.010  0.00  0.00    +0.067 C 
ATOM     18  C   UNL     1       0.002  -0.004   0.002  0.00  0.00    +0.058 A 
ATOM     19  C   UNL     1       0.006  -0.734  -1.186  0.00  0.00    +0.078 A 
ATOM     20  S   UNL     1       0.032  -2.401  -0.546  0.00  0.00    -0.049 S 
ATOM     21  C   UNL     1       0.035  -2.022   1.094  0.00  0.00    +0.165 A 
ATOM     22  N   UNL     1       0.022  -0.700   1.108  0.00  0.00    -0.229 NA
ATOM     23  N   UNL     1       0.052  -2.888   2.171  0.00  0.00    -0.264 N 
ATOM     24  C   UNL     1       0.051  -2.401   3.428  0.00  0.00    +0.229 C 
ATOM     25  O   UNL     1       0.036  -1.202   3.613  0.00  0.00    -0.275 OA
ATOM     26  H   UNL     1       0.064  -3.846   2.023  0.00  0.00    +0.157 HD
BRANCH  19  27
ATOM     27  C   UNL     1      -0.007  -0.281  -2.520  0.00  0.00    +0.168 C 
ATOM     28  O   UNL     1      -0.025   0.910  -2.757  0.00  0.00    -0.292 OA
ATOM     29  C   UNL     1       0.001  -1.275  -3.653  0.00  0.00    +0.092 C 
ENDBRANCH  19  27
ENDBRANCH  16  24
ENDBRANCH   1  16
TORSDOF 4
