REMARK  Name = ZINC61327845
REMARK  3 active torsions:
REMARK  status: ('A' for Active; 'I' for Inactive)
REMARK    1  A    between atoms: C_9  and  C_14
REMARK    2  A    between atoms: C_10  and  N_12
REMARK    3  A    between atoms: N_12  and  N_13
REMARK                            x       y       z     vdW  Elec       q    Type
REMARK                         _______ _______ _______ _____ _____    ______ ____
ROOT
ATOM      1  C   UNL     1      -0.017   1.395   0.010  0.00  0.00    +0.018 A 
ATOM      2  C   UNL     1       1.178   2.026   0.002  0.00  0.00    +0.046 A 
ATOM      3  S   UNL     1       2.331   0.665  -0.018  0.00  0.00    -0.101 S 
ATOM      4  C   UNL     1       1.245  -0.596  -0.024  0.00  0.00    -0.001 A 
ATOM      5  C   UNL     1       0.002  -0.004   0.002  0.00  0.00    +0.011 A 
ATOM      6  C   UNL     1      -1.195  -0.900   0.002  0.00  0.00    +0.077 A 
ATOM      7  C   UNL     1      -0.996  -2.252   0.295  0.00  0.00    -0.020 A 
ATOM      8  C   UNL     1      -2.082  -3.106   0.261  0.00  0.00    +0.028 A 
ATOM      9  C   UNL     1      -3.344  -2.573  -0.034  0.00  0.00    +0.093 A 
ATOM     10  C   UNL     1      -3.468  -1.192  -0.274  0.00  0.00    +0.150 A 
ATOM     11  N   UNL     1      -2.399  -0.412  -0.248  0.00  0.00    -0.229 NA
ATOM     12  C   UNL     1       0.355  -2.787   0.684  0.00  0.00    +0.042 C 
ATOM     13  C   UNL     1       1.484  -2.072  -0.060  0.00  0.00    +0.048 C 
ENDROOT
BRANCH  10  14
ATOM     14  N   UNL     1      -4.712  -0.648  -0.540  0.00  0.00    -0.266 N 
ATOM     15  H   UNL     1      -5.497  -1.218  -0.560  0.00  0.00    +0.167 HD
BRANCH  14  16
ATOM     16  N   UNL     1      -4.836   0.692  -0.774  0.00  0.00    -0.255 NA
ATOM     17  H   UNL     1      -5.797   0.941  -0.952  0.00  0.00    +0.140 HD
ATOM     18  H   UNL     1      -4.459   1.229  -0.007  0.00  0.00    +0.140 HD
ENDBRANCH  14  16
ENDBRANCH  10  14
BRANCH   9  19
ATOM     19  C   UNL     1      -4.494  -3.424  -0.090  0.00  0.00    +0.103 C 
ATOM     20  N   UNL     1      -5.407  -4.099  -0.134  0.00  0.00    -0.191 NA
ENDBRANCH   9  19
TORSDOF 3
