REMARK  Name = ZINC38550061
REMARK  4 active torsions:
REMARK  status: ('A' for Active; 'I' for Inactive)
REMARK    1  A    between atoms: C_1  and  C_2
REMARK    2  A    between atoms: N_14  and  C_17
REMARK    3  A    between atoms: C_17  and  C_18
REMARK    4  A    between atoms: C_18  and  C_19
REMARK                            x       y       z     vdW  Elec       q    Type
REMARK                         _______ _______ _______ _____ _____    ______ ____
ROOT
ATOM      1  C   UNL     1      -0.018   1.503   0.010  0.00  0.00    +0.044 C 
ATOM      2  C   UNL     1       0.002  -0.004   0.002  0.00  0.00    -0.050 A 
ATOM      3  C   UNL     1       0.005  -0.679  -1.221  0.00  0.00    +0.005 A 
ATOM      4  C   UNL     1       0.019  -2.033  -1.288  0.00  0.00    +0.026 A 
ATOM      5  C   UNL     1       0.028  -2.801  -0.098  0.00  0.00    +0.045 A 
ATOM      6  N   UNL     1       0.083  -4.111   0.101  0.00  0.00    -0.368 N 
ATOM      7  C   UNL     1      -0.094  -4.363   1.516  0.00  0.00    +0.216 C 
ATOM      8  C   UNL     1       0.068  -3.025   2.208  0.00  0.00    +0.083 C 
ATOM      9  C   UNL     1       0.037  -2.084   1.193  0.00  0.00    +0.022 A 
ATOM     10  C   UNL     1       0.022  -0.673   1.183  0.00  0.00    +0.015 A 
ATOM     11  N   UNL     1       0.361  -2.914   3.498  0.00  0.00    -0.241 NA
ATOM     12  C   UNL     1       0.816  -3.984   4.119  0.00  0.00    +0.191 C 
ATOM     13  N   UNL     1       1.151  -5.125   3.465  0.00  0.00    -0.260 N 
ATOM     14  C   UNL     1       0.879  -5.303   2.158  0.00  0.00    +0.249 C 
ATOM     15  O   UNL     1       1.395  -6.205   1.534  0.00  0.00    -0.273 OA
ATOM     16  H   UNL     1       0.218  -4.784  -0.584  0.00  0.00    +0.161 HD
ENDROOT
BRANCH  13  17
ATOM     17  C   UNL     1       1.846  -6.183   4.202  0.00  0.00    +0.119 C 
BRANCH  17  18
ATOM     18  C   UNL     1       0.818  -7.132   4.821  0.00  0.00    +0.056 C 
BRANCH  18  19
ATOM     19  C   UNL     1       1.533  -8.221   5.579  0.00  0.00    -0.021 A 
ATOM     20  C   UNL     1       2.012  -8.150   6.962  0.00  0.00    +0.003 A 
ATOM     21  C   UNL     1       1.980  -7.165   7.950  0.00  0.00    +0.010 A 
ATOM     22  C   UNL     1       2.531  -7.416   9.176  0.00  0.00    +0.001 A 
ATOM     23  C   UNL     1       3.122  -8.643   9.445  0.00  0.00    +0.002 A 
ATOM     24  C   UNL     1       3.164  -9.629   8.484  0.00  0.00    +0.026 A 
ATOM     25  C   UNL     1       2.610  -9.395   7.230  0.00  0.00    +0.047 A 
ATOM     26  N   UNL     1       2.495 -10.156   6.088  0.00  0.00    -0.360 N 
ATOM     27  C   UNL     1       1.846  -9.442   5.117  0.00  0.00    +0.087 A 
ATOM     28  H   UNL     1       2.822 -11.063   5.987  0.00  0.00    +0.165 HD
ENDBRANCH  18  19
ENDBRANCH  17  18
ENDBRANCH  13  17
TORSDOF 3
