REMARK  Name = ZINC16295125
REMARK  7 active torsions:
REMARK  status: ('A' for Active; 'I' for Inactive)
REMARK    1  A    between atoms: C_1  and  C_2
REMARK    2  A    between atoms: C_2  and  C_3
REMARK    3  A    between atoms: C_2  and  C_4
REMARK    4  A    between atoms: C_4  and  C_6
REMARK    5  A    between atoms: C_4  and  S_12
REMARK    6  A    between atoms: S_12  and  C_13
REMARK    7  A    between atoms: N_17  and  C_18
REMARK                            x       y       z     vdW  Elec       q    Type
REMARK                         _______ _______ _______ _____ _____    ______ ____
ROOT
ATOM      1  C   UNL     1       0.736  -0.495   1.120  0.00  0.00    +0.143 C 
ENDROOT
BRANCH   1   2
ATOM      2  C   UNL     1       0.251  -0.279   2.531  0.00  0.00    +0.234 C 
ATOM      3  O   UNL     1       1.049  -0.093   3.424  0.00  0.00    -0.274 OA
ATOM      4  N   UNL     1      -1.070  -0.292   2.799  0.00  0.00    -0.239 N 
ATOM      5  C   UNL     1      -1.503  -0.099   4.061  0.00  0.00    +0.303 C 
ATOM      6  O   UNL     1      -0.703   0.088   4.956  0.00  0.00    -0.253 OA
ATOM      7  N   UNL     1      -2.824  -0.112   4.329  0.00  0.00    -0.313 N 
ATOM      8  H   UNL     1      -1.708  -0.441   2.084  0.00  0.00    +0.159 HD
ATOM      9  H   UNL     1      -3.462  -0.261   3.614  0.00  0.00    +0.146 HD
ATOM     10  H   UNL     1      -3.135   0.028   5.237  0.00  0.00    +0.146 HD
ENDBRANCH   1   2
BRANCH   1  12
ATOM     11  C   UNL     1      -0.697  -2.536   0.956  0.00  0.00    +0.009 C 
ATOM     12  C   UNL     1       0.725  -1.991   0.801  0.00  0.00    +0.005 C 
ATOM     13  C   UNL     1       1.201  -2.210  -0.636  0.00  0.00    +0.009 C 
ENDBRANCH   1  12
BRANCH   1  14
ATOM     14  S   UNL     1       2.425   0.146   0.956  0.00  0.00    -0.072 S 
BRANCH  14  15
ATOM     15  C   UNL     1       2.238   1.889   1.131  0.00  0.00    +0.210 A 
ATOM     16  N   UNL     1       1.104   2.546   1.245  0.00  0.00    -0.101 NA
ATOM     17  N   UNL     1       1.323   3.807   1.355  0.00  0.00    -0.022 NA
ATOM     18  N   UNL     1       2.590   4.046   1.320  0.00  0.00    -0.043 NA
ATOM     19  N   UNL     1       3.234   2.804   1.178  0.00  0.00    -0.217 N 
BRANCH  19  20
ATOM     20  C   UNL     1       4.676   2.555   1.097  0.00  0.00    +0.112 C 
ATOM     21  C   UNL     1       5.353   3.057   2.373  0.00  0.00    +0.027 C 
ATOM     22  C   UNL     1       6.859   2.796   2.288  0.00  0.00    +0.002 C 
ATOM     23  C   UNL     1       7.436   3.535   1.079  0.00  0.00    +0.000 C 
ATOM     24  C   UNL     1       6.759   3.034  -0.197  0.00  0.00    +0.002 C 
ATOM     25  C   UNL     1       5.254   3.294  -0.112  0.00  0.00    +0.027 C 
ENDBRANCH  19  20
ENDBRANCH  14  15
ENDBRANCH   1  14
TORSDOF 5
