REMARK  Name = ZINC32828376
REMARK  11 active torsions:
REMARK  status: ('A' for Active; 'I' for Inactive)
REMARK    1  A    between atoms: C_1  and  C_2
REMARK    2  A    between atoms: C_3  and  N_9
REMARK    3  A    between atoms: C_10  and  C_12
REMARK    4  A    between atoms: C_12  and  O_13
REMARK    5  A    between atoms: O_13  and  C_14
REMARK    6  A    between atoms: C_14  and  C_16
REMARK    7  A    between atoms: C_16  and  N_17
REMARK    8  A    between atoms: C_23  and  C_26
REMARK    9  A    between atoms: C_26  and  C_27
REMARK   10  A    between atoms: C_26  and  C_28
REMARK   11  A    between atoms: C_26  and  C_29
REMARK                            x       y       z     vdW  Elec       q    Type
REMARK                         _______ _______ _______ _____ _____    ______ ____
ROOT
ATOM      1  C   UNL     1       1.501   7.345  -2.787  0.00  0.00    +0.238 C 
ENDROOT
BRANCH   1   2
ATOM      2  N   UNL     1       1.284   5.955  -2.376  0.00  0.00    -0.213 N 
ATOM      3  C   UNL     1       0.649   5.590  -1.242  0.00  0.00    +0.247 C 
ATOM      4  O   UNL     1       0.169   6.320  -0.402  0.00  0.00    -0.273 OA
ATOM      5  C   UNL     1       0.664   4.079  -1.241  0.00  0.00    +0.113 C 
ATOM      6  C   UNL     1       1.427   3.556  -0.029  0.00  0.00    +0.035 C 
ATOM      7  C   UNL     1       1.454   2.026  -0.060  0.00  0.00    +0.006 C 
ATOM      8  C   UNL     1       0.021   1.491  -0.051  0.00  0.00    -0.005 C 
ATOM      9  C   UNL     1      -0.723   2.003  -1.286  0.00  0.00    +0.006 C 
ATOM     10  C   UNL     1      -0.760   3.534  -1.259  0.00  0.00    +0.035 C 
ATOM     11  N   UNL     1       1.366   3.728  -2.482  0.00  0.00    -0.285 N 
ATOM     12  C   UNL     1       1.690   4.891  -3.079  0.00  0.00    +0.310 C 
ATOM     13  O   UNL     1       2.285   4.966  -4.136  0.00  0.00    -0.252 OA
ATOM     14  H   UNL     1       1.524   2.671  -2.745  0.00  0.00    +0.151 HD
BRANCH   8  15
ATOM     15  C   UNL     1       0.047  -0.039  -0.070  0.00  0.00    -0.035 C 
ATOM     16  C   UNL     1       0.791  -0.552   1.164  0.00  0.00    +0.011 C 
ATOM     17  C   UNL     1      -1.386  -0.574  -0.061  0.00  0.00    +0.011 C 
ATOM     18  C   UNL     1       0.763  -0.521  -1.334  0.00  0.00    +0.011 C 
ENDBRANCH   8  15
ENDBRANCH   1   2
BRANCH   1  19
ATOM     19  C   UNL     1       2.813   7.834  -2.231  0.00  0.00    +0.326 C 
ATOM     20  O   UNL     1       3.497   7.097  -1.560  0.00  0.00    -0.249 OA
BRANCH  19  21
ATOM     21  O   UNL     1       3.223   9.088  -2.480  0.00  0.00    -0.454 OA
BRANCH  21  22
ATOM     22  C   UNL     1       4.497   9.490  -1.913  0.00  0.00    +0.328 C 
BRANCH  22  24
ATOM     23  N   UNL     1       5.926  11.509  -1.878  0.00  0.00    -0.282 N 
ATOM     24  C   UNL     1       4.789  10.918  -2.296  0.00  0.00    +0.255 C 
ATOM     25  O   UNL     1       4.000  11.536  -2.980  0.00  0.00    -0.272 OA
ATOM     26  H   UNL     1       6.597  10.982  -1.185  0.00  0.00    +0.155 HD
BRANCH  23  29
ATOM     27  C   UNL     1       7.624  13.111  -0.251  0.00  0.00    +0.047 C 
ATOM     28  C   UNL     1       7.078  13.608  -1.564  0.00  0.00    -0.011 A 
ATOM     29  C   UNL     1       6.253  12.793  -2.328  0.00  0.00    +0.038 A 
ATOM     30  C   UNL     1       5.747  13.258  -3.535  0.00  0.00    +0.023 A 
ATOM     31  C   UNL     1       6.071  14.526  -3.976  0.00  0.00    +0.003 A 
ATOM     32  C   UNL     1       6.898  15.334  -3.218  0.00  0.00    +0.020 A 
ATOM     33  C   UNL     1       7.404  14.874  -2.014  0.00  0.00    +0.046 A 
ATOM     34 CL   UNL     1       8.442  15.892  -1.065  0.00  0.00    -0.083 Cl
ENDBRANCH  23  29
ENDBRANCH  22  24
ENDBRANCH  21  22
ENDBRANCH  19  21
ENDBRANCH   1  19
TORSDOF 7
