REMARK  Name = ZINC32517947
REMARK  2 active torsions:
REMARK  status: ('A' for Active; 'I' for Inactive)
REMARK    1  A    between atoms: C_4  and  C_7
REMARK    2  A    between atoms: N_15  and  C_16
REMARK                            x       y       z     vdW  Elec       q    Type
REMARK                         _______ _______ _______ _____ _____    ______ ____
ROOT
ATOM      1  C   UNL     1       0.002  -0.004   0.002  0.00  0.00    +0.170 A 
ATOM      2  N   UNL     1       1.160  -0.636  -0.012  0.00  0.00    -0.204 NA
ATOM      3  C   UNL     1       2.274   0.079  -0.019  0.00  0.00    +0.186 A 
ATOM      4  S   UNL     1       1.652   1.698  -0.005  0.00  0.00    +0.050 S 
ATOM      5  N   UNL     1      -0.016   1.315   0.009  0.00  0.00    -0.187 NA
ATOM      6  N   UNL     1       3.592  -0.353  -0.034  0.00  0.00    -0.247 N 
ATOM      7  C   UNL     1       4.596   0.546  -0.039  0.00  0.00    +0.306 C 
ATOM      8  O   UNL     1       4.346   1.736  -0.030  0.00  0.00    -0.252 OA
ATOM      9  N   UNL     1       5.877   0.126  -0.053  0.00  0.00    -0.292 N 
ATOM     10  H   UNL     1       3.818  -1.430  -0.042  0.00  0.00    +0.158 HD
ATOM     11  H   UNL     1       6.102  -0.951  -0.061  0.00  0.00    +0.151 HD
ENDROOT
BRANCH   9  12
ATOM     12  C   UNL     1       6.968   1.103  -0.059  0.00  0.00    +0.115 C 
ATOM     13  C   UNL     1       7.250   1.544  -1.495  0.00  0.00    +0.123 C 
ATOM     14  C   UNL     1       7.908   0.425  -2.255  0.00  0.00    +0.219 C 
ATOM     15  O   UNL     1       7.657   0.270  -3.432  0.00  0.00    -0.275 OA
ATOM     16  N   UNL     1       8.773  -0.406  -1.645  0.00  0.00    -0.285 N 
ATOM     17  C   UNL     1       9.062  -0.255  -0.285  0.00  0.00    +0.038 A 
ATOM     18  C   UNL     1       8.206   0.476   0.528  0.00  0.00    -0.006 A 
ATOM     19  C   UNL     1       8.491   0.626   1.870  0.00  0.00    +0.007 A 
ATOM     20  C   UNL     1       9.628   0.049   2.405  0.00  0.00    +0.000 A 
ATOM     21  C   UNL     1      10.482  -0.680   1.599  0.00  0.00    +0.002 A 
ATOM     22  C   UNL     1      10.202  -0.834   0.255  0.00  0.00    +0.023 A 
ATOM     23  H   UNL     1       9.258  -1.212  -2.216  0.00  0.00    +0.155 HD
ENDBRANCH   9  12
BRANCH   1  27
ATOM     24  C   UNL     1      -3.640  -2.199   0.026  0.00  0.00    +0.000 A 
ATOM     25  C   UNL     1      -3.669  -0.816   0.034  0.00  0.00    +0.001 A 
ATOM     26  C   UNL     1      -2.490  -0.099   0.026  0.00  0.00    +0.011 A 
ATOM     27  C   UNL     1      -1.269  -0.770   0.011  0.00  0.00    +0.020 A 
ATOM     28  C   UNL     1      -1.245  -2.163  -0.002  0.00  0.00    +0.011 A 
ATOM     29  C   UNL     1      -2.430  -2.871   0.012  0.00  0.00    +0.001 A 
ENDBRANCH   1  27
TORSDOF 2
