REMARK  Name = ZINC09012068
REMARK  7 active torsions:
REMARK  status: ('A' for Active; 'I' for Inactive)
REMARK    1  A    between atoms: C_1  and  C_2
REMARK    2  A    between atoms: C_5  and  C_12
REMARK    3  A    between atoms: C_6  and  C_7
REMARK    4  A    between atoms: C_6  and  C_8
REMARK    5  A    between atoms: N_14  and  N_15
REMARK    6  A    between atoms: N_15  and  C_16
REMARK    7  A    between atoms: C_19  and  N_22
REMARK                            x       y       z     vdW  Elec       q    Type
REMARK                         _______ _______ _______ _____ _____    ______ ____
ROOT
ATOM      1  C   UNL     1       1.007  -3.261   1.615  0.00  0.00    +0.236 C 
ATOM      2  O   UNL     1       1.582  -2.983   2.646  0.00  0.00    -0.274 OA
ATOM      3  N   UNL     1       0.845  -4.552   1.262  0.00  0.00    -0.236 N 
ATOM      4  H   UNL     1       0.385  -4.775   0.438  0.00  0.00    +0.173 HD
ENDROOT
BRANCH   1   9
ATOM      5  C   UNL     1      -0.019   1.526   0.010  0.00  0.00    +0.019 C 
ATOM      6  C   UNL     1       0.002  -0.004   0.002  0.00  0.00    +0.032 C 
ATOM      7  C   UNL     1       0.746  -0.667  -1.197  0.00  0.00    +0.016 C 
ATOM      8  C   UNL     1       1.065  -2.101  -0.713  0.00  0.00    +0.018 C 
ATOM      9  C   UNL     1       0.474  -2.165   0.729  0.00  0.00    +0.061 C 
ATOM     10  C   UNL     1       0.727  -0.692   1.212  0.00  0.00    -0.008 C 
ATOM     11  C   UNL     1       0.034  -0.396   2.543  0.00  0.00    +0.013 C 
ATOM     12  C   UNL     1       2.218  -0.351   1.258  0.00  0.00    +0.013 C 
ATOM     13  C   UNL     1      -1.070  -2.124   0.515  0.00  0.00    +0.091 C 
ATOM     14  C   UNL     1      -1.369  -0.692   0.058  0.00  0.00    +0.141 C 
ATOM     15  O   UNL     1      -2.442  -0.211  -0.217  0.00  0.00    -0.297 OA
ENDBRANCH   1   9
BRANCH   3  16
ATOM     16  N   UNL     1       1.340  -5.571   2.086  0.00  0.00    -0.264 N 
ATOM     17  H   UNL     1       1.800  -5.348   2.910  0.00  0.00    +0.170 HD
BRANCH  16  18
ATOM     18  C   UNL     1       1.172  -6.909   1.720  0.00  0.00    +0.045 A 
ATOM     19  C   UNL     1       0.518  -7.230   0.536  0.00  0.00    +0.026 A 
ATOM     20  C   UNL     1       0.354  -8.553   0.177  0.00  0.00    +0.034 A 
ATOM     21  C   UNL     1       0.839  -9.558   0.994  0.00  0.00    +0.126 A 
ATOM     22  C   UNL     1       1.490  -9.242   2.173  0.00  0.00    +0.034 A 
ATOM     23  C   UNL     1       1.662  -7.921   2.535  0.00  0.00    +0.026 A 
BRANCH  21  24
ATOM     24  N   UNL     1       0.661 -10.975   0.606  0.00  0.00    +0.056 N 
ATOM     25  O   UNL     1       0.093 -11.253  -0.424  0.00  0.00    -0.126 OA
ATOM     26  O   UNL     1       1.085 -11.855   1.319  0.00  0.00    -0.126 OA
ENDBRANCH  21  24
ENDBRANCH  16  18
ENDBRANCH   3  16
TORSDOF 4
