REMARK  Name = ZINC36788217
REMARK  10 active torsions:
REMARK  status: ('A' for Active; 'I' for Inactive)
REMARK    1  A    between atoms: C_1  and  C_2
REMARK    2  A    between atoms: C_2  and  N_3
REMARK    3  A    between atoms: C_13  and  S_14
REMARK    4  A    between atoms: S_14  and  C_15
REMARK    5  A    between atoms: C_15  and  C_16
REMARK    6  A    between atoms: C_16  and  C_18
REMARK    7  A    between atoms: C_19  and  N_34
REMARK    8  A    between atoms: N_20  and  C_27
REMARK    9  A    between atoms: N_23  and  C_26
REMARK   10  A    between atoms: C_27  and  C_28
REMARK                            x       y       z     vdW  Elec       q    Type
REMARK                         _______ _______ _______ _____ _____    ______ ____
ROOT
ATOM      1  C   UNL     1       6.886  -0.771   1.061  0.00  0.00    +0.120 A 
ATOM      2  C   UNL     1       7.726  -0.486   2.152  0.00  0.00    +0.116 A 
ATOM      3  N   UNL     1       9.061  -0.750   2.045  0.00  0.00    -0.277 N 
ATOM      4  C   UNL     1       9.581  -1.273   0.923  0.00  0.00    +0.333 A 
ATOM      5  O   UNL     1      10.776  -1.490   0.877  0.00  0.00    -0.246 OA
ATOM      6  N   UNL     1       8.829  -1.565  -0.151  0.00  0.00    -0.263 N 
ATOM      7  C   UNL     1       7.498  -1.347  -0.143  0.00  0.00    +0.269 A 
ATOM      8  O   UNL     1       6.818  -1.618  -1.116  0.00  0.00    -0.267 OA
ATOM      9  C   UNL     1       9.462  -2.134  -1.343  0.00  0.00    +0.157 C 
ENDROOT
BRANCH   2  10
ATOM     10  N   UNL     1       7.216   0.044   3.297  0.00  0.00    -0.344 N 
ATOM     11  H   UNL     1       6.257   0.153   3.396  0.00  0.00    +0.144 HD
ATOM     12  H   UNL     1       7.811   0.314   4.014  0.00  0.00    +0.144 HD
ENDBRANCH   2  10
BRANCH   1  13
ATOM     13  C   UNL     1       5.500  -0.516   1.123  0.00  0.00    +0.182 C 
ATOM     14  O   UNL     1       4.996  -0.145   2.165  0.00  0.00    -0.291 OA
BRANCH  13  15
ATOM     15  C   UNL     1       4.643  -0.704  -0.102  0.00  0.00    +0.157 C 
BRANCH  15  16
ATOM     16  S   UNL     1       2.920  -0.300   0.296  0.00  0.00    -0.080 S 
BRANCH  16  27
ATOM     17  N   UNL     1       0.712  -0.344  -1.249  0.00  0.00    -0.288 N 
ATOM     18  C   UNL     1       0.011  -0.530  -2.392  0.00  0.00    +0.262 A 
ATOM     19  O   UNL     1      -1.189  -0.332  -2.436  0.00  0.00    -0.267 OA
ATOM     20  C   UNL     1       0.754  -0.982  -3.576  0.00  0.00    +0.065 A 
ATOM     21  C   UNL     1       0.125  -1.202  -4.801  0.00  0.00    +0.015 A 
ATOM     22  C   UNL     1       0.864  -1.621  -5.872  0.00  0.00    +0.001 A 
ATOM     23  C   UNL     1       2.232  -1.829  -5.753  0.00  0.00    +0.002 A 
ATOM     24  C   UNL     1       2.874  -1.621  -4.565  0.00  0.00    +0.028 A 
ATOM     25  C   UNL     1       2.146  -1.192  -3.451  0.00  0.00    +0.079 A 
ATOM     26  N   UNL     1       2.740  -0.974  -2.261  0.00  0.00    -0.223 NA
ATOM     27  C   UNL     1       2.059  -0.566  -1.218  0.00  0.00    +0.173 A 
BRANCH  17  29
ATOM     28  C   UNL     1       0.016   1.635   0.009  0.00  0.00    +0.027 C 
ATOM     29  C   UNL     1       0.021   0.106  -0.037  0.00  0.00    +0.124 C 
ENDBRANCH  17  29
ENDBRANCH  16  27
ENDBRANCH  15  16
ENDBRANCH  13  15
ENDBRANCH   1  13
BRANCH   3  30
ATOM     30  C   UNL     1       9.944  -0.457   3.176  0.00  0.00    +0.163 C 
BRANCH  30  31
ATOM     31  C   UNL     1      10.029  -1.665   4.073  0.00  0.00    -0.028 A 
ATOM     32  C   UNL     1       9.127  -1.822   5.109  0.00  0.00    +0.005 A 
ATOM     33  C   UNL     1       9.205  -2.930   5.932  0.00  0.00    +0.000 A 
ATOM     34  C   UNL     1      10.185  -3.882   5.718  0.00  0.00    +0.000 A 
ATOM     35  C   UNL     1      11.086  -3.726   4.682  0.00  0.00    +0.000 A 
ATOM     36  C   UNL     1      11.005  -2.620   3.857  0.00  0.00    +0.005 A 
ENDBRANCH  30  31
ENDBRANCH   3  30
TORSDOF 8
