REMARK  Name = ZINC56660534
REMARK  8 active torsions:
REMARK  status: ('A' for Active; 'I' for Inactive)
REMARK    1  A    between atoms: C_1  and  C_2
REMARK    2  A    between atoms: C_4  and  O_21
REMARK    3  A    between atoms: C_7  and  N_8
REMARK    4  A    between atoms: N_11  and  C_12
REMARK    5  A    between atoms: C_12  and  C_14
REMARK    6  A    between atoms: C_12  and  C_15
REMARK    7  A    between atoms: O_21  and  C_22
REMARK    8  A    between atoms: C_25  and  C_28
REMARK                            x       y       z     vdW  Elec       q    Type
REMARK                         _______ _______ _______ _____ _____    ______ ____
ROOT
ATOM      1  C   UNL     1      -1.511   0.745   0.045  0.00  0.00    +0.046 C 
ATOM      2  C   UNL     1      -1.015  -0.668  -0.125  0.00  0.00    -0.026 A 
ATOM      3  C   UNL     1      -0.777  -1.169  -1.389  0.00  0.00    +0.051 A 
ATOM      4  C   UNL     1      -0.321  -2.470  -1.546  0.00  0.00    +0.129 A 
ATOM      5  C   UNL     1      -0.104  -3.269  -0.432  0.00  0.00    +0.048 A 
ATOM      6  C   UNL     1      -0.343  -2.769   0.833  0.00  0.00    +0.027 A 
ATOM      7  C   UNL     1      -0.793  -1.465   0.990  0.00  0.00    +0.038 A 
ENDROOT
BRANCH   7   8
ATOM      8  N   UNL     1      -1.029  -0.955   2.274  0.00  0.00    -0.269 N 
ATOM      9  C   UNL     1      -1.367  -1.788   3.278  0.00  0.00    +0.304 C 
ATOM     10  O   UNL     1      -1.375  -2.990   3.095  0.00  0.00    -0.252 OA
ATOM     11  N   UNL     1      -1.696  -1.288   4.486  0.00  0.00    -0.294 N 
ATOM     12  H   UNL     1      -0.949  -0.002   2.440  0.00  0.00    +0.156 HD
ATOM     13  H   UNL     1      -1.689  -0.329   4.633  0.00  0.00    +0.151 HD
BRANCH  11  14
ATOM     14  C   UNL     1      -2.063  -2.193   5.578  0.00  0.00    +0.100 C 
ATOM     15  C   UNL     1      -3.551  -2.536   5.478  0.00  0.00    +0.030 C 
BRANCH  14  16
ATOM     16  C   UNL     1      -1.786  -1.513   6.920  0.00  0.00    +0.138 C 
ATOM     17  C   UNL     1      -0.320  -1.014   6.977  0.00  0.00    +0.035 C 
ATOM     18  C   UNL     1      -0.439   0.131   8.020  0.00  0.00    +0.031 C 
ATOM     19  C   UNL     1      -1.849   0.691   7.732  0.00  0.00    +0.160 C 
ATOM     20  O   UNL     1      -2.592  -0.332   7.056  0.00  0.00    -0.375 OA
ENDBRANCH  14  16
ENDBRANCH  11  14
ENDBRANCH   7   8
BRANCH   4  21
ATOM     21  O   UNL     1      -0.087  -2.963  -2.791  0.00  0.00    -0.456 OA
BRANCH  21  22
ATOM     22  C   UNL     1      -0.304  -2.145  -3.852  0.00  0.00    +0.129 A 
ATOM     23  C   UNL     1       0.618  -1.151  -4.161  0.00  0.00    +0.047 A 
ATOM     24  C   UNL     1       0.401  -0.319  -5.236  0.00  0.00    +0.022 A 
ATOM     25  C   UNL     1      -0.747  -0.473  -6.017  0.00  0.00    +0.052 A 
ATOM     26  C   UNL     1      -1.671  -1.474  -5.704  0.00  0.00    +0.022 A 
ATOM     27  C   UNL     1      -1.445  -2.306  -4.629  0.00  0.00    +0.047 A 
BRANCH  25  28
ATOM     28  C   UNL     1      -0.976   0.391  -7.136  0.00  0.00    +0.099 C 
ATOM     29  N   UNL     1      -1.158   1.076  -8.023  0.00  0.00    -0.191 NA
ENDBRANCH  25  28
ENDBRANCH  21  22
ENDBRANCH   4  21
TORSDOF 6
