REMARK  Name = ZINC35968426
REMARK  7 active torsions:
REMARK  status: ('A' for Active; 'I' for Inactive)
REMARK    1  A    between atoms: C_1  and  N_2
REMARK    2  A    between atoms: C_5  and  C_10
REMARK    3  A    between atoms: C_14  and  O_16
REMARK    4  A    between atoms: O_16  and  C_17
REMARK    5  A    between atoms: N_25  and  C_27
REMARK    6  A    between atoms: C_27  and  C_29
REMARK    7  A    between atoms: C_27  and  C_35
REMARK                            x       y       z     vdW  Elec       q    Type
REMARK                         _______ _______ _______ _____ _____    ______ ____
ROOT
ATOM      1  C   UNL     1      -1.231   2.511   1.023  0.00  0.00    +0.139 C 
ATOM      2  N   UNL     1      -0.742   1.169   1.349  0.00  0.00    -0.260 N 
ATOM      3  C   UNL     1      -1.647   0.148   1.405  0.00  0.00    +0.042 C 
ATOM      4  C   UNL     1      -1.263  -1.111   1.700  0.00  0.00    +0.058 C 
ATOM      5  C   UNL     1       0.208  -1.355   1.967  0.00  0.00    +0.142 C 
ATOM      6  N   UNL     1       1.103  -0.188   1.882  0.00  0.00    -0.288 N 
ATOM      7  C   UNL     1       0.569   1.010   1.571  0.00  0.00    +0.307 C 
ATOM      8  O   UNL     1       1.301   1.977   1.495  0.00  0.00    -0.252 OA
ATOM      9  C   UNL     1      -2.376  -1.977   1.695  0.00  0.00    +0.247 C 
ATOM     10  O   UNL     1      -2.321  -3.170   1.929  0.00  0.00    -0.270 OA
ATOM     11  N   UNL     1      -3.508  -1.312   1.401  0.00  0.00    -0.277 N 
ATOM     12  C   UNL     1      -3.143   0.097   1.190  0.00  0.00    +0.160 C 
ATOM     13  H   UNL     1       2.055  -0.281   2.042  0.00  0.00    +0.151 HD
ENDROOT
BRANCH   5  14
ATOM     14  C   UNL     1       0.339  -1.940   3.349  0.00  0.00    -0.019 A 
ATOM     15  C   UNL     1       0.284  -1.115   4.457  0.00  0.00    +0.006 A 
ATOM     16  C   UNL     1       0.404  -1.649   5.727  0.00  0.00    +0.004 A 
ATOM     17  C   UNL     1       0.578  -3.010   5.891  0.00  0.00    +0.046 A 
ATOM     18  C   UNL     1       0.632  -3.840   4.782  0.00  0.00    +0.129 A 
ATOM     19  C   UNL     1       0.507  -3.302   3.508  0.00  0.00    +0.052 A 
BRANCH  18  20
ATOM     20  O   UNL     1       0.804  -5.179   4.941  0.00  0.00    -0.456 OA
BRANCH  20  21
ATOM     21  C   UNL     1       2.022  -5.705   4.651  0.00  0.00    +0.128 A 
ATOM     22  C   UNL     1       3.066  -4.873   4.269  0.00  0.00    +0.046 A 
ATOM     23  C   UNL     1       4.304  -5.411   3.975  0.00  0.00    +0.004 A 
ATOM     24  C   UNL     1       4.504  -6.776   4.061  0.00  0.00    +0.000 A 
ATOM     25  C   UNL     1       3.466  -7.607   4.441  0.00  0.00    +0.004 A 
ATOM     26  C   UNL     1       2.228  -7.074   4.742  0.00  0.00    +0.046 A 
ENDBRANCH  20  21
ENDBRANCH  18  20
ENDBRANCH   5  14
BRANCH  11  27
ATOM     27  C   UNL     1      -4.853  -1.884   1.306  0.00  0.00    +0.193 C 
BRANCH  27  28
ATOM     28  C   UNL     1      -5.229  -2.505   2.627  0.00  0.00    +0.241 C 
ATOM     29  O   UNL     1      -4.367  -2.781   3.434  0.00  0.00    -0.273 OA
ATOM     30  N   UNL     1      -6.522  -2.753   2.911  0.00  0.00    -0.300 N 
ATOM     31  C   UNL     1      -7.653  -2.571   1.988  0.00  0.00    +0.108 C 
ATOM     32  C   UNL     1      -8.936  -2.955   2.755  0.00  0.00    +0.020 C 
ATOM     33  C   UNL     1      -8.517  -2.791   4.240  0.00  0.00    +0.020 C 
ATOM     34  C   UNL     1      -7.038  -3.259   4.196  0.00  0.00    +0.108 C 
ENDBRANCH  27  28
BRANCH  27  35
ATOM     35  C   UNL     1      -4.875  -2.940   0.231  0.00  0.00    -0.018 A 
ATOM     36  C   UNL     1      -4.331  -4.187   0.475  0.00  0.00    +0.006 A 
ATOM     37  C   UNL     1      -4.352  -5.155  -0.512  0.00  0.00    +0.000 A 
ATOM     38  C   UNL     1      -4.916  -4.876  -1.742  0.00  0.00    +0.000 A 
ATOM     39  C   UNL     1      -5.461  -3.629  -1.986  0.00  0.00    +0.000 A 
ATOM     40  C   UNL     1      -5.444  -2.663  -0.998  0.00  0.00    +0.006 A 
ENDBRANCH  27  35
ENDBRANCH  11  27
TORSDOF 6
