REMARK  Name = ZINC28067115
REMARK  9 active torsions:
REMARK  status: ('A' for Active; 'I' for Inactive)
REMARK    1  A    between atoms: C_1  and  C_2
REMARK    2  A    between atoms: C_2  and  C_3
REMARK    3  A    between atoms: C_6  and  C_9
REMARK    4  A    between atoms: C_12  and  C_32
REMARK    5  A    between atoms: C_19  and  C_22
REMARK    6  A    between atoms: C_22  and  C_23
REMARK    7  A    between atoms: N_25  and  CA_26
REMARK    8  A    between atoms: CA_26  and  CB_28
REMARK    9  A    between atoms: CA_26  and  C_29
REMARK                            x       y       z     vdW  Elec       q    Type
REMARK                         _______ _______ _______ _____ _____    ______ ____
ROOT
ATOM      1  C   UNK A   0       2.490   1.048  -0.016  0.00  0.00    +0.136 C 
ATOM      2  C   UNK A   0       3.125   1.040   1.389  0.00  0.00    +0.087 C 
ATOM      3  C   UNK A   0       4.433   1.776   1.202  0.00  0.00    +0.069 C 
ATOM      4  N   UNK A   0       4.550   2.138  -0.029  0.00  0.00    -0.182 NA
ATOM      5  N   UNK A   0       3.475   1.766  -0.840  0.00  0.00    -0.195 N 
ATOM      6  C   UNK A   0       3.356   2.025  -2.175  0.00  0.00    +0.170 C 
ATOM      7  N   UNK A   0       2.360   1.697  -2.987  0.00  0.00    -0.157 NA
ATOM      8  C   UNK A   0       2.322   1.985  -4.260  0.00  0.00    +0.252 C 
ATOM      9  O   UNK A   0       1.389   1.666  -4.971  0.00  0.00    -0.272 OA
ATOM     10  C   UNK A   0       3.528   2.749  -4.791  0.00  0.00    +0.150 C 
ATOM     11  S   UNK A   0       4.500   2.894  -3.238  0.00  0.00    -0.078 S 
ENDROOT
BRANCH   1  15
ATOM     12  C   UNK A   0      -1.238   3.133   0.029  0.00  0.00    -0.048 A 
ATOM     13  C   UNK A   0      -1.219   1.751   0.017  0.00  0.00    +0.004 A 
ATOM     14  C   UNK A   0      -0.013   1.076   0.008  0.00  0.00    +0.006 A 
ATOM     15  C   UNK A   0       1.175   1.783   0.000  0.00  0.00    -0.025 A 
ATOM     16  C   UNK A   0       1.156   3.165   0.008  0.00  0.00    +0.006 A 
ATOM     17  C   UNK A   0      -0.050   3.840   0.022  0.00  0.00    +0.004 A 
BRANCH  12  19
ATOM     18  C   UNK A   0      -3.011   4.125  -1.391  0.00  0.00    +0.009 C 
ATOM     19  C   UNK A   0      -2.553   3.869   0.045  0.00  0.00    +0.032 C 
ENDBRANCH  12  19
ENDBRANCH   1  15
BRANCH   3  20
ATOM     20  C   UNK A   0       5.421   2.038   2.264  0.00  0.00    -0.002 A 
ATOM     21  C   UNK A   0       5.183   1.600   3.569  0.00  0.00    +0.010 A 
ATOM     22  C   UNK A   0       6.114   1.845   4.556  0.00  0.00    +0.001 A 
ATOM     23  C   UNK A   0       7.278   2.532   4.259  0.00  0.00    +0.000 A 
ATOM     24  C   UNK A   0       7.519   2.973   2.970  0.00  0.00    +0.001 A 
ATOM     25  C   UNK A   0       6.599   2.731   1.971  0.00  0.00    +0.010 A 
ENDBRANCH   3  20
BRANCH  10  26
ATOM     26  C   UNK A   0       4.278   1.941  -5.852  0.00  0.00    +0.119 C 
BRANCH  26  27
ATOM     27  C   UNK A   0       5.385   2.782  -6.434  0.00  0.00    +0.215 C 
ATOM     28  O   UNK A   0       5.557   3.915  -6.040  0.00  0.00    -0.276 OA
ATOM     29  N   ALA A   1       6.184   2.273  -7.394  0.00  0.00    -0.302 N 
ATOM     30  H   ALA A   1       6.027   1.245  -7.752  0.00  0.00    +0.150 HD
BRANCH  29  31
ATOM     31  CA  ALA A   1       7.260   3.091  -7.960  0.00  0.00    +0.183 C 
ATOM     32  CB  ALA A   1       8.502   2.982  -7.074  0.00  0.00    +0.040 C 
BRANCH  31  33
ATOM     33  C   ALA A   1       7.587   2.599  -9.346  0.00  0.00    +0.376 C 
ATOM     34  O   ALA A   1       6.984   1.663  -9.814  0.00  0.00    -0.244 OA
ATOM     35  OXT ALA A   1       8.550   3.202 -10.062  0.00  0.00    -0.244 OA
ENDBRANCH  31  33
ENDBRANCH  29  31
ENDBRANCH  26  27
ENDBRANCH  10  26
TORSDOF 7
