REMARK  Name = ZINC25184947
REMARK  6 active torsions:
REMARK  status: ('A' for Active; 'I' for Inactive)
REMARK    1  A    between atoms: C_1  and  C_2
REMARK    2  A    between atoms: C_2  and  O_3
REMARK    3  A    between atoms: O_3  and  C_4
REMARK    4  A    between atoms: C_4  and  C_6
REMARK    5  A    between atoms: C_9  and  N_12
REMARK    6  A    between atoms: C_36  and  C_38
REMARK                            x       y       z     vdW  Elec       q    Type
REMARK                         _______ _______ _______ _____ _____    ______ ____
ROOT
ATOM      1  N   UNL     1       1.636   7.149   2.219  0.00  0.00    -0.160 N 
ATOM      2  C   UNL     1       1.492   5.865   1.822  0.00  0.00    +0.253 C 
ATOM      3  O   UNL     1       1.557   4.866   2.507  0.00  0.00    -0.272 OA
ATOM      4  C   UNL     1       1.232   5.950   0.337  0.00  0.00    +0.112 C 
ATOM      5  C   UNL     1      -0.128   5.355  -0.009  0.00  0.00    +0.061 C 
ATOM      6  C   UNL     1      -0.049   3.848   0.013  0.00  0.00    -0.025 A 
ATOM      7  C   UNL     1      -1.235   3.132   0.025  0.00  0.00    +0.005 A 
ATOM      8  C   UNL     1      -1.220   1.751   0.017  0.00  0.00    +0.000 A 
ATOM      9  C   UNL     1      -0.013   1.076   0.008  0.00  0.00    +0.002 A 
ATOM     10  C   UNL     1       1.171   1.781   0.000  0.00  0.00    +0.023 A 
ATOM     11  C   UNL     1       1.163   3.178   0.009  0.00  0.00    +0.033 A 
ATOM     12  N   UNL     1       2.390   3.833   0.028  0.00  0.00    -0.322 N 
ATOM     13  C   UNL     1       2.320   5.218  -0.442  0.00  0.00    +0.112 C 
ATOM     14  C   UNL     1       3.673   5.899  -0.220  0.00  0.00    +0.130 C 
ATOM     15  N   UNL     1       4.713   5.151  -0.941  0.00  0.00    -0.313 N 
ATOM     16  C   UNL     1       4.781   3.760  -0.473  0.00  0.00    +0.125 C 
ATOM     17  C   UNL     1       3.426   3.080  -0.690  0.00  0.00    +0.124 C 
ATOM     18  C   UNL     1       5.948   5.777  -0.825  0.00  0.00    +0.099 A 
ATOM     19  C   UNL     1       7.064   5.220  -1.442  0.00  0.00    +0.042 A 
ATOM     20  C   UNL     1       8.287   5.853  -1.318  0.00  0.00    +0.005 A 
ATOM     21  C   UNL     1       8.354   7.028  -0.580  0.00  0.00    +0.018 A 
ATOM     22  C   UNL     1       7.206   7.525   0.005  0.00  0.00    +0.084 A 
ATOM     23  N   UNL     1       6.051   6.902  -0.134  0.00  0.00    -0.350 N 
ATOM     24  C   UNL     1       1.262   7.428   0.040  0.00  0.00    +0.052 C 
ATOM     25  N   UNL     1       1.493   8.024   1.146  0.00  0.00    -0.181 NA
ATOM     26  C   UNL     1       1.058   8.078  -1.305  0.00  0.00    +0.063 C 
ATOM     27  H   UNL     1       5.161   7.339   0.341  0.00  0.00    +0.166 HD
ENDROOT
BRANCH   1  31
ATOM     28  C   UNL     1       2.404   8.332   6.140  0.00  0.00    +0.059 A 
ATOM     29  C   UNL     1       2.278   9.291   5.130  0.00  0.00    +0.017 A 
ATOM     30  C   UNL     1       2.025   8.897   3.836  0.00  0.00    +0.026 A 
ATOM     31  C   UNL     1       1.893   7.545   3.532  0.00  0.00    +0.060 A 
ATOM     32  C   UNL     1       2.013   6.588   4.535  0.00  0.00    +0.026 A 
ATOM     33  C   UNL     1       2.271   6.975   5.830  0.00  0.00    +0.017 A 
BRANCH  28  34
ATOM     34  C   UNL     1       2.677   8.751   7.527  0.00  0.00    +0.339 C 
ATOM     35  O   UNL     1       2.792   9.930   7.794  0.00  0.00    -0.245 OA
BRANCH  34  36
ATOM     36  O   UNL     1       2.798   7.825   8.499  0.00  0.00    -0.461 OA
BRANCH  36  38
ATOM     37  C   UNL     1       3.170   7.122  10.800  0.00  0.00    +0.048 C 
ATOM     38  C   UNL     1       3.066   8.309   9.841  0.00  0.00    +0.229 C 
ENDBRANCH  36  38
ENDBRANCH  34  36
ENDBRANCH  28  34
ENDBRANCH   1  31
TORSDOF 4
