REMARK  Name = ZINC15628983
REMARK  3 active torsions:
REMARK  status: ('A' for Active; 'I' for Inactive)
REMARK    1  A    between atoms: N_11  and  C_15
REMARK    2  A    between atoms: C_15  and  C_16
REMARK    3  A    between atoms: N_18  and  C_19
REMARK                            x       y       z     vdW  Elec       q    Type
REMARK                         _______ _______ _______ _____ _____    ______ ____
ROOT
ATOM      1  C   UNL     1      -1.193  -0.681  -0.015  0.00  0.00    +0.002 A 
ATOM      2  C   UNL     1      -0.005  -0.011  -0.021  0.00  0.00    +0.009 A 
ATOM      3  C   UNL     1      -0.020   1.394  -0.004  0.00  0.00    -0.014 A 
ATOM      4  C   UNL     1       1.147   2.176  -0.009  0.00  0.00    +0.009 A 
ATOM      5  C   UNL     1       1.050   3.537   0.009  0.00  0.00    +0.003 A 
ATOM      6  C   UNL     1      -0.195   4.178   0.033  0.00  0.00    +0.029 A 
ATOM      7  C   UNL     1      -1.325   3.447   0.037  0.00  0.00    +0.118 A 
ATOM      8  C   UNL     1      -1.269   2.049   0.025  0.00  0.00    +0.031 A 
ATOM      9  C   UNL     1      -2.483   1.365   0.025  0.00  0.00    +0.061 A 
ATOM     10  C   UNL     1      -2.418  -0.027   0.008  0.00  0.00    +0.025 A 
ATOM     11  N   UNL     1      -3.632   2.173   0.050  0.00  0.00    -0.194 N 
ATOM     12  S   UNL     1      -3.069   3.753   0.062  0.00  0.00    +0.076 S 
ATOM     13  O   UNL     1      -3.422   4.349  -1.178  0.00  0.00    -0.150 OA
ATOM     14  O   UNL     1      -3.392   4.318   1.326  0.00  0.00    -0.150 OA
ENDROOT
BRANCH  11  15
ATOM     15  C   UNL     1      -5.028   1.730   0.060  0.00  0.00    +0.227 C 
BRANCH  15  16
ATOM     16  C   UNL     1      -5.453   1.441   1.477  0.00  0.00    +0.236 C 
ATOM     17  O   UNL     1      -4.666   1.591   2.388  0.00  0.00    -0.274 OA
ATOM     18  N   UNL     1      -6.706   1.016   1.732  0.00  0.00    -0.284 N 
ATOM     19  H   UNL     1      -7.355   0.960   1.013  0.00  0.00    +0.155 HD
BRANCH  18  20
ATOM     20  C   UNL     1      -7.072   0.656   3.034  0.00  0.00    +0.033 A 
ATOM     21  C   UNL     1      -7.970  -0.382   3.242  0.00  0.00    +0.024 A 
ATOM     22  C   UNL     1      -8.325  -0.740   4.528  0.00  0.00    +0.017 A 
ATOM     23  C   UNL     1      -7.795  -0.057   5.608  0.00  0.00    +0.018 A 
ATOM     24  C   UNL     1      -6.904   0.982   5.404  0.00  0.00    +0.017 A 
ATOM     25  C   UNL     1      -6.541   1.340   4.120  0.00  0.00    +0.024 A 
ATOM     26 BR   UNL     1      -8.288  -0.544   7.367  0.00  0.00    -0.050 Br
ENDBRANCH  18  20
ENDBRANCH  15  16
ENDBRANCH  11  15
TORSDOF 3
