REMARK  Name = ZINC56324368
REMARK  4 active torsions:
REMARK  status: ('A' for Active; 'I' for Inactive)
REMARK    1  A    between atoms: C_3  and  N_8
REMARK    2  A    between atoms: C_10  and  C_13
REMARK    3  A    between atoms: N_15  and  N_16
REMARK    4  A    between atoms: C_17  and  C_19
REMARK                            x       y       z     vdW  Elec       q    Type
REMARK                         _______ _______ _______ _____ _____    ______ ____
ROOT
ATOM      1  C   UNL     1       7.192   2.521  -0.062  0.00  0.00    +0.263 C 
ATOM      2  O   UNL     1       7.717   1.424  -0.078  0.00  0.00    -0.269 OA
ATOM      3  N   UNL     1       7.954   3.633  -0.061  0.00  0.00    -0.230 N 
ATOM      4  H   UNL     1       7.536   4.508  -0.048  0.00  0.00    +0.173 HD
ENDROOT
BRANCH   1   7
ATOM      5  N   UNL     1       3.586   2.127  -0.021  0.00  0.00    -0.239 N 
ATOM      6  C   UNL     1       4.819   1.591  -0.041  0.00  0.00    +0.127 A 
ATOM      7  C   UNL     1       5.723   2.635  -0.043  0.00  0.00    +0.076 A 
ATOM      8  C   UNL     1       4.974   3.834  -0.022  0.00  0.00    +0.148 A 
ATOM      9  N   UNL     1       3.708   3.521  -0.016  0.00  0.00    -0.174 NA
BRANCH   5  12
ATOM     10  C   UNL     1      -0.017   1.378   0.010  0.00  0.00    +0.003 A 
ATOM     11  C   UNL     1       1.169   2.087   0.002  0.00  0.00    +0.028 A 
ATOM     12  C   UNL     1       2.381   1.410  -0.013  0.00  0.00    +0.067 A 
ATOM     13  C   UNL     1       2.398   0.021  -0.021  0.00  0.00    +0.047 A 
ATOM     14  C   UNL     1       1.209  -0.682  -0.013  0.00  0.00    +0.043 A 
ATOM     15  C   UNL     1       0.002  -0.004   0.002  0.00  0.00    +0.020 A 
ATOM     16 CL   UNL     1       1.228  -2.418  -0.023  0.00  0.00    -0.083 Cl
ENDBRANCH   5  12
ENDBRANCH   1   7
BRANCH   3  17
ATOM     17  N   UNL     1       9.351   3.524  -0.079  0.00  0.00    -0.229 N 
ATOM     18  C   UNL     1      10.113   4.636  -0.078  0.00  0.00    +0.280 C 
ATOM     19  O   UNL     1       9.589   5.732  -0.061  0.00  0.00    -0.267 OA
ATOM     20  H   UNL     1       9.770   2.649  -0.092  0.00  0.00    +0.173 HD
BRANCH  18  21
ATOM     21  C   UNL     1      11.590   4.521  -0.097  0.00  0.00    +0.145 A 
ATOM     22  C   UNL     1      12.381   5.670  -0.090  0.00  0.00    +0.143 A 
ATOM     23  N   UNL     1      13.697   5.562  -0.107  0.00  0.00    -0.259 NA
ATOM     24  C   UNL     1      14.264   4.369  -0.131  0.00  0.00    +0.130 A 
ATOM     25  C   UNL     1      13.480   3.224  -0.138  0.00  0.00    +0.131 A 
ATOM     26  N   UNL     1      12.166   3.322  -0.115  0.00  0.00    -0.247 NA
ENDBRANCH  18  21
ENDBRANCH   3  17
TORSDOF 4
