REMARK  Name = ZINC33253688
REMARK  15 active torsions:
REMARK  status: ('A' for Active; 'I' for Inactive)
REMARK    1  A    between atoms: C_1  and  C_2
REMARK    2  A    between atoms: C_5  and  C_34
REMARK    3  A    between atoms: C_6  and  S_8
REMARK    4  A    between atoms: S_8  and  N_11
REMARK    5  A    between atoms: N_11  and  C_12
REMARK    6  A    between atoms: C_15  and  N_21
REMARK    7  A    between atoms: C_16  and  C_18
REMARK    8  A    between atoms: N_21  and  C_22
REMARK    9  A    between atoms: N_21  and  C_23
REMARK   10  A    between atoms: C_23  and  C_24
REMARK   11  A    between atoms: C_24  and  C_25
REMARK   12  A    between atoms: C_25  and  C_26
REMARK   13  A    between atoms: C_27  and  C_33
REMARK   14  A    between atoms: N_29  and  C_32
REMARK   15  A    between atoms: C_30  and  C_31
REMARK                            x       y       z     vdW  Elec       q    Type
REMARK                         _______ _______ _______ _____ _____    ______ ____
ROOT
ATOM      1  C   UNL     1       4.749  -7.911  -3.220  0.00  0.00    +0.049 A 
ATOM      2  C   UNL     1       3.552  -7.615  -2.575  0.00  0.00    +0.026 A 
ATOM      3  C   UNL     1       2.994  -6.358  -2.682  0.00  0.00    +0.026 A 
ATOM      4  C   UNL     1       3.626  -5.377  -3.436  0.00  0.00    +0.044 A 
ATOM      5  C   UNL     1       4.830  -5.670  -4.094  0.00  0.00    +0.086 A 
ATOM      6  C   UNL     1       5.390  -6.945  -3.975  0.00  0.00    +0.041 A 
ENDROOT
BRANCH   5   7
ATOM      7  C   UNL     1       5.503  -4.637  -4.900  0.00  0.00    +0.388 C 
ATOM      8  O   UNL     1       5.015  -3.528  -4.997  0.00  0.00    -0.241 OA
ATOM      9  O   UNL     1       6.659  -4.923  -5.531  0.00  0.00    -0.241 OA
ENDBRANCH   5   7
BRANCH   1  10
ATOM     10  N   UNL     1       5.307  -9.190  -3.105  0.00  0.00    -0.216 N 
ATOM     11  H   UNL     1       6.381  -9.306  -2.901  0.00  0.00    +0.174 HD
BRANCH  10  12
ATOM     12  S   UNL     1       4.348 -10.530  -3.275  0.00  0.00    +0.073 S 
ATOM     13  O   UNL     1       5.206 -11.658  -3.181  0.00  0.00    -0.150 OA
ATOM     14  O   UNL     1       3.235 -10.345  -2.411  0.00  0.00    -0.150 OA
BRANCH  12  20
ATOM     15  C   UNL     1       0.391 -10.143  -6.668  0.00  0.00    +0.044 C 
ATOM     16  C   UNL     1       1.867 -10.329  -6.430  0.00  0.00    -0.049 A 
ATOM     17  C   UNL     1       2.727 -10.485  -7.501  0.00  0.00    +0.004 A 
ATOM     18  C   UNL     1       4.081 -10.656  -7.282  0.00  0.00    +0.005 A 
ATOM     19  C   UNL     1       4.577 -10.664  -5.992  0.00  0.00    -0.024 A 
ATOM     20  C   UNL     1       3.717 -10.513  -4.920  0.00  0.00    +0.112 A 
ATOM     21  C   UNL     1       2.362 -10.343  -5.139  0.00  0.00    +0.032 A 
ATOM     22  C   UNL     1       6.054 -10.843  -5.753  0.00  0.00    +0.046 C 
ENDBRANCH  12  20
ENDBRANCH  10  12
ENDBRANCH   1  10
BRANCH   4  23
ATOM     23  N   UNL     1       3.062  -4.109  -3.542  0.00  0.00    -0.332 N 
ATOM     24  C   UNL     1       1.765  -4.165  -4.229  0.00  0.00    +0.129 C 
BRANCH  23  25
ATOM     25  C   UNL     1       2.933  -3.478  -2.222  0.00  0.00    +0.105 C 
BRANCH  25  26
ATOM     26  C   UNL     1       2.549  -2.007  -2.396  0.00  0.00    +0.024 C 
BRANCH  26  27
ATOM     27  C   UNL     1       2.413  -1.350  -1.021  0.00  0.00    +0.040 C 
BRANCH  27  28
ATOM     28  C   UNL     1       2.035   0.099  -1.191  0.00  0.00    -0.004 A 
ATOM     29  C   UNL     1       2.923   1.173  -1.312  0.00  0.00    +0.063 A 
ATOM     30  N   UNL     1       2.223   2.270  -1.444  0.00  0.00    -0.176 NA
ATOM     31  N   UNL     1       0.864   1.928  -1.411  0.00  0.00    -0.271 N 
ATOM     32  C   UNL     1       0.776   0.591  -1.255  0.00  0.00    +0.039 A 
ATOM     33  C   UNL     1      -0.497  -0.211  -1.168  0.00  0.00    +0.065 C 
ATOM     34  C   UNL     1      -0.261   2.858  -1.530  0.00  0.00    +0.172 C 
ATOM     35  C   UNL     1       4.427   1.082  -1.294  0.00  0.00    +0.068 C 
ENDBRANCH  27  28
ENDBRANCH  26  27
ENDBRANCH  25  26
ENDBRANCH  23  25
ENDBRANCH   4  23
TORSDOF 9
