REMARK  Name = ZINC06196919
REMARK  8 active torsions:
REMARK  status: ('A' for Active; 'I' for Inactive)
REMARK    1  A    between atoms: C_1  and  C_2
REMARK    2  A    between atoms: C_2  and  O_3
REMARK    3  A    between atoms: O_3  and  C_4
REMARK    4  A    between atoms: C_11  and  C_16
REMARK    5  A    between atoms: C_16  and  C_18
REMARK    6  A    between atoms: C_16  and  N_69
REMARK    7  A    between atoms: N_22  and  C_23
REMARK    8  A    between atoms: C_30  and  C_33
REMARK                            x       y       z     vdW  Elec       q    Type
REMARK                         _______ _______ _______ _____ _____    ______ ____
ROOT
ATOM      1  C   UNL     1       2.531  -0.331  -0.067  0.00  0.00    +0.039 C 
ENDROOT
BRANCH   1   9
ATOM      2  C   UNL     1       4.305   1.052   5.709  0.00  0.00    +0.121 A 
ATOM      3  C   UNL     1       4.365  -0.262   6.166  0.00  0.00    +0.047 A 
ATOM      4  C   UNL     1       4.060  -1.311   5.328  0.00  0.00    +0.030 A 
ATOM      5  C   UNL     1       3.687  -1.063   4.011  0.00  0.00    +0.049 A 
ATOM      6  C   UNL     1       3.626   0.264   3.545  0.00  0.00    +0.002 A 
ATOM      7  C   UNL     1       3.938   1.321   4.406  0.00  0.00    +0.055 A 
ATOM      8  C   UNL     1       3.232   0.511   2.157  0.00  0.00    +0.017 A 
ATOM      9  C   UNL     1       2.939  -0.551   1.367  0.00  0.00    +0.011 A 
ATOM     10  C   UNL     1       3.010  -1.862   1.884  0.00  0.00    +0.251 A 
ATOM     11  O   UNL     1       2.738  -2.803   1.158  0.00  0.00    -0.268 OA
ATOM     12  N   UNL     1       3.377  -2.100   3.155  0.00  0.00    -0.322 N 
ATOM     13  H   UNL     1       3.425  -3.043   3.486  0.00  0.00    +0.169 HD
BRANCH   2  14
ATOM     14  O   UNL     1       4.611   2.075   6.551  0.00  0.00    -0.492 OA
BRANCH  14  16
ATOM     15  C   UNL     1       5.288   3.002   8.678  0.00  0.00    +0.048 C 
ATOM     16  C   UNL     1       4.983   1.728   7.886  0.00  0.00    +0.225 C 
ENDBRANCH  14  16
ENDBRANCH   2  14
ENDBRANCH   1   9
BRANCH   1  22
ATOM     17  C   UNL     1       4.803  -0.725  -0.814  0.00  0.00    -0.072 C 
ATOM     18  C   UNL     1       5.677  -1.780  -1.498  0.00  0.00    +0.017 C 
ATOM     19  C   UNL     1       5.144  -2.065  -2.874  0.00  0.00    -0.048 C 
ATOM     20  C   UNL     1       3.931  -1.724  -3.251  0.00  0.00    -0.041 C 
ATOM     21  C   UNL     1       2.964  -1.012  -2.349  0.00  0.00    -0.049 C 
ATOM     22  N   UNL     1       3.394  -1.152  -0.946  0.00  0.00    +0.392 N 
ATOM     23  H   UNL     1       3.315  -2.137  -0.667  0.00  0.00    -0.080 HD
BRANCH  19  24
ATOM     24  C   UNL     1       6.018  -2.757  -3.844  0.00  0.00    -0.022 A 
ATOM     25  C   UNL     1       6.429  -4.069  -3.604  0.00  0.00    +0.011 A 
ATOM     26  C   UNL     1       7.240  -4.712  -4.516  0.00  0.00    +0.039 A 
ATOM     27  C   UNL     1       7.657  -4.054  -5.662  0.00  0.00    +0.123 A 
ATOM     28  C   UNL     1       7.257  -2.749  -5.901  0.00  0.00    +0.039 A 
ATOM     29  C   UNL     1       6.441  -2.099  -5.000  0.00  0.00    +0.011 A 
ATOM     30  F   UNL     1       8.456  -4.687  -6.548  0.00  0.00    -0.205 F 
ENDBRANCH  19  24
ENDBRANCH   1  22
BRANCH   1  31
ATOM     31  C   UNL     1       1.096  -0.753  -0.251  0.00  0.00    +0.143 A 
ATOM     32  N   UNL     1       0.650  -1.980  -0.367  0.00  0.00    -0.115 NA
ATOM     33  N   UNL     1      -0.629  -1.927  -0.513  0.00  0.00    -0.023 NA
ATOM     34  N   UNL     1      -1.011  -0.698  -0.489  0.00  0.00    -0.044 NA
ATOM     35  N   UNL     1       0.023   0.056  -0.326  0.00  0.00    -0.227 N 
BRANCH  35  36
ATOM     36  C   UNL     1       0.029   1.519  -0.243  0.00  0.00    +0.111 C 
ATOM     37  C   UNL     1      -0.876   1.986   0.915  0.00  0.00    +0.027 C 
ATOM     38  C   UNL     1      -1.544   3.277   0.377  0.00  0.00    +0.002 C 
ATOM     39  C   UNL     1      -1.800   2.935  -1.111  0.00  0.00    +0.002 C 
ATOM     40  C   UNL     1      -0.558   2.122  -1.532  0.00  0.00    +0.027 C 
ENDBRANCH  35  36
ENDBRANCH   1  31
TORSDOF 7
