REMARK  Name = ZINC55091712
REMARK  4 active torsions:
REMARK  status: ('A' for Active; 'I' for Inactive)
REMARK    1  A    between atoms: C_4  and  N_7
REMARK    2  A    between atoms: C_8  and  C_10
REMARK    3  A    between atoms: C_10  and  C_11
REMARK    4  A    between atoms: C_17  and  N_19
REMARK                            x       y       z     vdW  Elec       q    Type
REMARK                         _______ _______ _______ _____ _____    ______ ____
ROOT
ATOM      1  C   UNL     1       4.130  -2.140  -3.723  0.00  0.00    +0.097 C 
ENDROOT
BRANCH   1   2
ATOM      2  C   UNL     1       4.702  -3.537  -3.470  0.00  0.00    -0.017 C 
ATOM      3  C   UNL     1       3.555  -4.524  -3.244  0.00  0.00    +0.002 C 
ATOM      4  C   UNL     1       4.127  -5.921  -2.991  0.00  0.00    +0.000 C 
ATOM      5  C   UNL     1       4.949  -6.363  -4.204  0.00  0.00    -0.002 C 
ATOM      6  C   UNL     1       6.095  -5.375  -4.430  0.00  0.00    -0.016 C 
ATOM      7  C   UNL     1       5.523  -3.979  -4.683  0.00  0.00    -0.072 C 
BRANCH   7   8
ATOM      8  N   UNL     1       6.624  -3.031  -4.901  0.00  0.00    +0.380 N 
ATOM      9  H   UNL     1       7.216  -3.009  -4.084  0.00  0.00    -0.090 HD
ATOM     10  H   UNL     1       7.166  -3.322  -5.701  0.00  0.00    -0.090 HD
ATOM     11  H   UNL     1       6.247  -2.110  -5.067  0.00  0.00    -0.090 HD
ENDBRANCH   7   8
ENDBRANCH   1   2
BRANCH   1  13
ATOM     12  N   UNL     1       2.839  -0.440  -2.473  0.00  0.00    -0.312 N 
ATOM     13  C   UNL     1       3.424  -1.655  -2.483  0.00  0.00    +0.213 C 
ATOM     14  O   UNL     1       3.383  -2.356  -1.495  0.00  0.00    -0.276 OA
ATOM     15  H   UNL     1       2.872   0.121  -3.264  0.00  0.00    +0.149 HD
BRANCH  12  19
ATOM     16  C   UNL     1      -0.019   1.526   0.010  0.00  0.00    +0.000 C 
ATOM     17  C   UNL     1       1.417   2.055  -0.000  0.00  0.00    +0.002 C 
ATOM     18  C   UNL     1       2.133   1.562  -1.259  0.00  0.00    +0.022 C 
ATOM     19  C   UNL     1       2.154   0.032  -1.268  0.00  0.00    +0.073 C 
ATOM     20  C   UNL     1       0.718  -0.497  -1.257  0.00  0.00    +0.022 C 
ATOM     21  C   UNL     1       0.002  -0.004   0.002  0.00  0.00    +0.002 C 
ENDBRANCH  12  19
ENDBRANCH   1  13
TORSDOF 4
