REMARK  Name = ZINC17636743
REMARK  6 active torsions:
REMARK  status: ('A' for Active; 'I' for Inactive)
REMARK    1  A    between atoms: C_1  and  C_2
REMARK    2  A    between atoms: C_5  and  N_9
REMARK    3  A    between atoms: C_6  and  C_8
REMARK    4  A    between atoms: C_11  and  C_25
REMARK    5  A    between atoms: C_12  and  C_14
REMARK    6  A    between atoms: N_16  and  C_17
REMARK                            x       y       z     vdW  Elec       q    Type
REMARK                         _______ _______ _______ _____ _____    ______ ____
ROOT
ATOM      1  N   UNL     1       2.445   1.619   0.053  0.00  0.00    -0.149 N 
ATOM      2  N   UNL     1       2.655   0.238  -0.058  0.00  0.00    -0.152 NA
ATOM      3  C   UNL     1       3.951   0.038   0.002  0.00  0.00    +0.093 A 
ATOM      4  C   UNL     1       4.547   1.303   0.150  0.00  0.00    +0.170 A 
ATOM      5  N   UNL     1       3.584   2.206   0.168  0.00  0.00    -0.142 NA
ATOM      6  C   UNL     1       4.661  -1.289  -0.074  0.00  0.00    +0.070 C 
ENDROOT
BRANCH   1  11
ATOM      7  C   UNL     1      -2.607   4.204  -0.019  0.00  0.00    +0.044 C 
ATOM      8  C   UNL     1      -1.266   3.517   0.000  0.00  0.00    -0.050 A 
ATOM      9  C   UNL     1      -0.121   4.247   0.266  0.00  0.00    +0.005 A 
ATOM     10  C   UNL     1       1.109   3.621   0.284  0.00  0.00    +0.030 A 
ATOM     11  C   UNL     1       1.197   2.257   0.036  0.00  0.00    +0.089 A 
ATOM     12  C   UNL     1       0.046   1.528  -0.231  0.00  0.00    -0.023 A 
ATOM     13  C   UNL     1      -1.181   2.161  -0.253  0.00  0.00    +0.008 A 
ATOM     14  C   UNL     1       0.137   0.048  -0.501  0.00  0.00    +0.046 C 
ENDBRANCH   1  11
BRANCH   4  15
ATOM     15  C   UNL     1       5.996   1.573   0.261  0.00  0.00    +0.266 C 
ATOM     16  O   UNL     1       6.790   0.654   0.226  0.00  0.00    -0.268 OA
ATOM     17  N   UNL     1       6.436   2.840   0.401  0.00  0.00    -0.306 N 
ATOM     18  H   UNL     1       5.802   3.573   0.428  0.00  0.00    +0.149 HD
BRANCH  17  19
ATOM     19  C   UNL     1       7.872   3.108   0.510  0.00  0.00    +0.096 C 
ATOM     20  C   UNL     1       8.479   3.219  -0.898  0.00  0.00    +0.046 C 
ATOM     21  C   UNL     1       9.913   3.806  -0.762  0.00  0.00    +0.168 C 
ATOM     22  S   UNL     1       9.628   5.093   0.524  0.00  0.00    -0.029 S 
ATOM     23  O   UNL     1       9.335   6.328  -0.115  0.00  0.00    -0.174 OA
ATOM     24  O   UNL     1      10.678   5.032   1.480  0.00  0.00    -0.174 OA
ATOM     25  C   UNL     1       8.089   4.431   1.283  0.00  0.00    +0.188 C 
ENDBRANCH  17  19
ENDBRANCH   4  15
TORSDOF 3
