REMARK  Name = ZINC09556456
REMARK  3 active torsions:
REMARK  status: ('A' for Active; 'I' for Inactive)
REMARK    1  A    between atoms: C_1  and  C_2
REMARK    2  A    between atoms: C_6  and  O_14
REMARK    3  A    between atoms: O_14  and  C_15
REMARK                            x       y       z     vdW  Elec       q    Type
REMARK                         _______ _______ _______ _____ _____    ______ ____
ROOT
ATOM      1  C   UNL     1      -0.018   1.503   0.010  0.00  0.00    +0.064 C 
ATOM      2  C   UNL     1       0.002  -0.004   0.002  0.00  0.00    +0.024 A 
ATOM      3  C   UNL     1      -1.188  -0.714   0.004  0.00  0.00    +0.001 A 
ATOM      4  C   UNL     1      -2.448  -0.079   0.013  0.00  0.00    +0.014 A 
ATOM      5  C   UNL     1      -3.574  -0.836   0.014  0.00  0.00    +0.046 A 
ATOM      6  C   UNL     1      -3.523  -2.236   0.006  0.00  0.00    +0.121 A 
ATOM      7  C   UNL     1      -2.333  -2.909  -0.003  0.00  0.00    +0.054 A 
ATOM      8  C   UNL     1      -1.134  -2.184  -0.005  0.00  0.00    -0.008 A 
ATOM      9  C   UNL     1       0.121  -2.802  -0.015  0.00  0.00    +0.078 A 
ATOM     10  C   UNL     1       1.256  -1.999  -0.016  0.00  0.00    +0.249 A 
ATOM     11  O   UNL     1       2.359  -2.527  -0.025  0.00  0.00    -0.268 OA
ATOM     12  N   UNL     1       1.173  -0.660  -0.013  0.00  0.00    -0.326 N 
ATOM     13  H   UNL     1       1.995  -0.144  -0.018  0.00  0.00    +0.169 HD
ENDROOT
BRANCH   6  14
ATOM     14  O   UNL     1      -4.683  -2.940   0.008  0.00  0.00    -0.495 OA
ATOM     15  C   UNL     1      -5.898  -2.189   0.019  0.00  0.00    +0.277 C 
ENDBRANCH   6  14
TORSDOF 1
