REMARK  Name = ZINC39464592
REMARK  5 active torsions:
REMARK  status: ('A' for Active; 'I' for Inactive)
REMARK    1  A    between atoms: C_1  and  O_2
REMARK    2  A    between atoms: O_2  and  P_3
REMARK    3  A    between atoms: C_11  and  C_20
REMARK    4  A    between atoms: C_12  and  O_19
REMARK    5  A    between atoms: C_25  and  O_26
REMARK                            x       y       z     vdW  Elec       q    Type
REMARK                         _______ _______ _______ _____ _____    ______ ____
ROOT
ATOM      1  P   UNL     1      -1.336  -0.899   0.010  0.00  0.00    +0.421 P 
ATOM      2  O   UNL     1      -2.285  -0.407  -1.013  0.00  0.00    -0.239 OA
ATOM      3  N   UNL     1      -2.037  -0.865   1.507  0.00  0.00    -0.156 NA
ATOM      4  N   UNL     1      -1.483  -1.685   2.465  0.00  0.00    -0.224 NA
ATOM      5  C   UNL     1      -2.228  -1.552   3.726  0.00  0.00    +0.108 C 
ATOM      6  C   UNL     1      -1.414  -2.195   4.849  0.00  0.00    +0.052 C 
ATOM      7  C   UNL     1      -1.018  -3.594   4.451  0.00  0.00    -0.041 A 
ATOM      8  C   UNL     1      -0.628  -4.475   5.446  0.00  0.00    +0.016 A 
ATOM      9  C   UNL     1      -0.254  -5.776   5.124  0.00  0.00    +0.027 A 
ATOM     10  C   UNL     1      -0.275  -6.187   3.787  0.00  0.00    +0.125 A 
ATOM     11  C   UNL     1      -0.666  -5.297   2.804  0.00  0.00    +0.051 A 
ATOM     12  C   UNL     1      -1.038  -4.000   3.133  0.00  0.00    -0.020 A 
ATOM     13  C   UNL     1      -1.455  -3.077   2.018  0.00  0.00    +0.130 C 
ATOM     14  C   UNL     1      -0.496  -3.256   0.837  0.00  0.00    +0.196 C 
ATOM     15  O   UNL     1      -0.970  -2.459  -0.267  0.00  0.00    -0.294 OA
ATOM     16  H   UNL     1      -2.799  -0.297   1.701  0.00  0.00    +0.153 HD
ENDROOT
BRANCH   9  17
ATOM     17  C   UNL     1       0.163  -6.719   6.189  0.00  0.00    +0.027 A 
ATOM     18  C   UNL     1      -0.751  -7.133   7.155  0.00  0.00    +0.012 A 
ATOM     19  C   UNL     1      -0.358  -8.011   8.145  0.00  0.00    +0.001 A 
ATOM     20  C   UNL     1       0.943  -8.482   8.181  0.00  0.00    +0.004 A 
ATOM     21  C   UNL     1       1.858  -8.079   7.228  0.00  0.00    +0.046 A 
ATOM     22  C   UNL     1       1.475  -7.202   6.225  0.00  0.00    +0.125 A 
BRANCH  22  23
ATOM     23  O   UNL     1       2.372  -6.808   5.284  0.00  0.00    -0.506 OA
ATOM     24  H   UNL     1       2.869  -6.013   5.522  0.00  0.00    +0.292 HD
ENDBRANCH  22  23
ENDBRANCH   9  17
BRANCH   1  26
ATOM     25  C   UNL     1      -0.017   1.425   0.010  0.00  0.00    +0.206 C 
ATOM     26  O   UNL     1       0.002  -0.004   0.002  0.00  0.00    -0.299 OA
ENDBRANCH   1  26
BRANCH  10  27
ATOM     27  O   UNL     1       0.087  -7.454   3.457  0.00  0.00    -0.506 OA
ATOM     28  H   UNL     1      -0.646  -8.085   3.455  0.00  0.00    +0.292 HD
ENDBRANCH  10  27
TORSDOF 4
