REMARK  Name = ZINC37511313
REMARK  12 active torsions:
REMARK  status: ('A' for Active; 'I' for Inactive)
REMARK    1  A    between atoms: C_1  and  C_2
REMARK    2  A    between atoms: C_2  and  C_4
REMARK    3  A    between atoms: C_2  and  N_14
REMARK    4  A    between atoms: N_6  and  C_7
REMARK    5  A    between atoms: C_7  and  C_8
REMARK    6  A    between atoms: C_8  and  N_9
REMARK    7  A    between atoms: C_17  and  C_25
REMARK    8  A    between atoms: C_25  and  C_27
REMARK    9  A    between atoms: C_27  and  O_28
REMARK   10  A    between atoms: O_28  and  C_29
REMARK   11  A    between atoms: C_33  and  O_35
REMARK   12  A    between atoms: O_35  and  C_36
REMARK                            x       y       z     vdW  Elec       q    Type
REMARK                         _______ _______ _______ _____ _____    ______ ____
ROOT
ATOM      1  N   UNL     1       0.711  -0.489   1.189  0.00  0.00    -0.254 N 
ATOM      2  C   UNL     1       1.865  -1.275   1.058  0.00  0.00    +0.080 A 
ATOM      3  C   UNL     1       2.535  -1.343  -0.146  0.00  0.00    +0.038 A 
ATOM      4  C   UNL     1       3.686  -2.135  -0.256  0.00  0.00    +0.023 A 
ATOM      5  C   UNL     1       4.147  -2.851   0.855  0.00  0.00    +0.015 A 
ATOM      6  C   UNL     1       3.472  -2.776   2.054  0.00  0.00    +0.048 A 
ATOM      7  C   UNL     1       2.333  -1.992   2.163  0.00  0.00    +0.143 A 
ATOM      8  O   UNL     1       1.662  -1.911   3.341  0.00  0.00    -0.481 OA
ATOM      9  C   UNL     1       1.027  -0.664   3.635  0.00  0.00    +0.325 C 
ATOM     10  C   UNL     1       0.266  -0.182   2.427  0.00  0.00    +0.258 C 
ATOM     11  O   UNL     1      -0.744   0.475   2.566  0.00  0.00    -0.271 OA
ENDROOT
BRANCH   1  13
ATOM     12  C   UNL     1      -0.019   1.526   0.010  0.00  0.00    +0.038 C 
ATOM     13  C   UNL     1       0.002  -0.004   0.002  0.00  0.00    +0.164 C 
BRANCH  13  14
ATOM     14  C   UNL     1      -1.412  -0.526   0.013  0.00  0.00    +0.234 C 
ATOM     15  O   UNL     1      -1.790  -1.233   0.922  0.00  0.00    -0.274 OA
ATOM     16  N   UNL     1      -2.256  -0.206  -0.988  0.00  0.00    -0.316 N 
ATOM     17  H   UNL     1      -1.953   0.360  -1.716  0.00  0.00    +0.149 HD
BRANCH  16  18
ATOM     18  C   UNL     1      -3.630  -0.713  -0.978  0.00  0.00    +0.086 C 
BRANCH  18  19
ATOM     19  C   UNL     1      -4.370  -0.206  -2.217  0.00  0.00    -0.060 C 
BRANCH  19  20
ATOM     20  N   UNL     1      -5.748  -0.715  -2.207  0.00  0.00    +0.381 N 
ATOM     21  C   UNL     1      -6.519  -0.082  -1.107  0.00  0.00    -0.079 C 
ATOM     22  C   UNL     1      -7.991  -0.255  -1.560  0.00  0.00    -0.020 C 
ATOM     23  C   UNL     1      -7.909  -0.046  -3.089  0.00  0.00    -0.020 C 
ATOM     24  C   UNL     1      -6.442  -0.334  -3.457  0.00  0.00    -0.079 C 
ATOM     25  H   UNL     1      -5.748  -1.718  -2.101  0.00  0.00    -0.082 HD
ENDBRANCH  19  20
ENDBRANCH  18  19
ENDBRANCH  16  18
ENDBRANCH  13  14
ENDBRANCH   1  13
BRANCH   4  26
ATOM     26  C   UNL     1       4.406  -2.215  -1.534  0.00  0.00    +0.200 C 
ATOM     27  O   UNL     1       4.005  -1.594  -2.496  0.00  0.00    -0.288 OA
BRANCH  26  28
ATOM     28  C   UNL     1       5.643  -3.067  -1.649  0.00  0.00    +0.308 C 
BRANCH  28  29
ATOM     29  O   UNL     1       6.158  -2.980  -2.980  0.00  0.00    -0.484 OA
BRANCH  29  30
ATOM     30  C   UNL     1       7.281  -3.695  -3.254  0.00  0.00    +0.125 A 
ATOM     31  C   UNL     1       7.871  -4.469  -2.264  0.00  0.00    +0.046 A 
ATOM     32  C   UNL     1       9.013  -5.196  -2.543  0.00  0.00    +0.007 A 
ATOM     33  C   UNL     1       9.570  -5.154  -3.807  0.00  0.00    +0.046 A 
ATOM     34  C   UNL     1       8.983  -4.383  -4.800  0.00  0.00    +0.124 A 
ATOM     35  C   UNL     1       7.835  -3.657  -4.524  0.00  0.00    +0.091 A 
BRANCH  34  36
ATOM     36  O   UNL     1       9.532  -4.342  -6.042  0.00  0.00    -0.495 OA
ATOM     37  C   UNL     1      10.712  -5.119  -6.256  0.00  0.00    +0.277 C 
ENDBRANCH  34  36
ENDBRANCH  29  30
ENDBRANCH  28  29
ENDBRANCH  26  28
ENDBRANCH   4  26
TORSDOF 10
