REMARK  Name = ZINC24224530
REMARK  11 active torsions:
REMARK  status: ('A' for Active; 'I' for Inactive)
REMARK    1  A    between atoms: C_1  and  C_2
REMARK    2  A    between atoms: C_7  and  C_9
REMARK    3  A    between atoms: C_7  and  C_10
REMARK    4  A    between atoms: N_13  and  C_17
REMARK    5  A    between atoms: C_17  and  C_18
REMARK    6  A    between atoms: C_18  and  O_20
REMARK    7  A    between atoms: O_20  and  C_21
REMARK    8  A    between atoms: C_21  and  C_22
REMARK    9  A    between atoms: N_24  and  C_25
REMARK   10  A    between atoms: C_29  and  S_31
REMARK   11  A    between atoms: S_31  and  C_32
REMARK                            x       y       z     vdW  Elec       q    Type
REMARK                         _______ _______ _______ _____ _____    ______ ____
ROOT
ATOM      1  C   UNL     1       0.334  -3.317  -4.604  0.00  0.00    +0.238 C 
ENDROOT
BRANCH   1  13
ATOM      2  C   UNL     1       0.698   1.643   0.447  0.00  0.00    +0.007 C 
ATOM      3  C   UNL     1       0.457   0.142   0.266  0.00  0.00    -0.011 C 
ATOM      4  C   UNL     1       1.034  -0.309  -1.078  0.00  0.00    +0.038 C 
ATOM      5  C   UNL     1       0.813  -1.808  -1.250  0.00  0.00    +0.113 C 
ATOM      6  C   UNL     1       1.474  -2.584  -0.116  0.00  0.00    +0.041 C 
ATOM      7  C   UNL     1       0.894  -2.125   1.224  0.00  0.00    -0.032 C 
ATOM      8  C   UNL     1       1.142  -0.625   1.398  0.00  0.00    +0.009 C 
ATOM      9  C   UNL     1       1.573  -2.889   2.362  0.00  0.00    +0.011 C 
ATOM     10  C   UNL     1      -0.611  -2.399   1.250  0.00  0.00    +0.011 C 
ATOM     11  C   UNL     1       1.346  -2.270  -2.587  0.00  0.00    +0.247 C 
ATOM     12  O   UNL     1       2.491  -2.215  -2.979  0.00  0.00    -0.273 OA
ATOM     13  N   UNL     1       0.277  -2.757  -3.251  0.00  0.00    -0.213 N 
ATOM     14  C   UNL     1      -0.841  -2.665  -2.522  0.00  0.00    +0.310 C 
ATOM     15  O   UNL     1      -1.932  -3.039  -2.906  0.00  0.00    -0.252 OA
ATOM     16  N   UNL     1      -0.622  -2.112  -1.313  0.00  0.00    -0.285 N 
ATOM     17  H   UNL     1      -1.282  -1.946  -0.622  0.00  0.00    +0.151 HD
ENDBRANCH   1  13
BRANCH   1  18
ATOM     18  C   UNL     1       0.603  -4.798  -4.523  0.00  0.00    +0.326 C 
ATOM     19  O   UNL     1       0.734  -5.331  -3.447  0.00  0.00    -0.249 OA
BRANCH  18  20
ATOM     20  O   UNL     1       0.697  -5.525  -5.648  0.00  0.00    -0.454 OA
BRANCH  20  21
ATOM     21  C   UNL     1       0.953  -6.923  -5.497  0.00  0.00    +0.328 C 
BRANCH  21  22
ATOM     22  C   UNL     1       1.025  -7.570  -6.856  0.00  0.00    +0.255 C 
ATOM     23  O   UNL     1       0.873  -6.900  -7.855  0.00  0.00    -0.272 OA
ATOM     24  N   UNL     1       1.260  -8.893  -6.961  0.00  0.00    -0.283 N 
ATOM     25  H   UNL     1       1.306  -9.442  -6.162  0.00  0.00    +0.155 HD
BRANCH  24  26
ATOM     26  C   UNL     1       1.437  -9.474  -8.221  0.00  0.00    +0.035 A 
ATOM     27  C   UNL     1       0.999 -10.772  -8.456  0.00  0.00    +0.023 A 
ATOM     28  C   UNL     1       1.173 -11.348  -9.700  0.00  0.00    +0.003 A 
ATOM     29  C   UNL     1       1.783 -10.636 -10.714  0.00  0.00    +0.015 A 
ATOM     30  C   UNL     1       2.223  -9.337 -10.487  0.00  0.00    +0.009 A 
ATOM     31  C   UNL     1       2.043  -8.754  -9.239  0.00  0.00    +0.038 A 
BRANCH  30  32
ATOM     32  S   UNL     1       3.001  -8.429 -11.781  0.00  0.00    -0.129 S 
ATOM     33  C   UNL     1       3.001  -9.578 -13.184  0.00  0.00    +0.090 C 
ENDBRANCH  30  32
ENDBRANCH  24  26
ENDBRANCH  21  22
ENDBRANCH  20  21
ENDBRANCH  18  20
ENDBRANCH   1  18
TORSDOF 7
