REMARK  Name = ZINC09955623
REMARK  6 active torsions:
REMARK  status: ('A' for Active; 'I' for Inactive)
REMARK    1  A    between atoms: N_9  and  C_12
REMARK    2  A    between atoms: C_12  and  C_13
REMARK    3  A    between atoms: C_13  and  S_14
REMARK    4  A    between atoms: S_14  and  C_15
REMARK    5  A    between atoms: N_27  and  C_28
REMARK    6  A    between atoms: C_28  and  C_29
REMARK                            x       y       z     vdW  Elec       q    Type
REMARK                         _______ _______ _______ _____ _____    ______ ____
ROOT
ATOM      1  C   UNL     1       3.804   3.056  -0.017  0.00  0.00    +0.173 A 
ATOM      2  N   UNL     1       2.489   3.155  -0.004  0.00  0.00    -0.216 NA
ATOM      3  C   UNL     1       1.727   2.067  -0.003  0.00  0.00    +0.117 A 
ATOM      4  C   UNL     1       2.272   0.775  -0.016  0.00  0.00    +0.076 A 
ATOM      5  C   UNL     1       1.303  -0.334  -0.013  0.00  0.00    -0.023 A 
ATOM      6  C   UNL     1       0.002  -0.004   0.002  0.00  0.00    -0.004 A 
ATOM      7  S   UNL     1      -0.022   1.774   0.012  0.00  0.00    -0.073 S 
ATOM      8  C   UNL     1      -0.892  -1.215   0.007  0.00  0.00    +0.043 C 
ATOM      9  C   UNL     1       0.033  -2.377   0.430  0.00  0.00    +0.010 C 
ATOM     10  C   UNL     1       1.412  -1.862  -0.025  0.00  0.00    +0.037 C 
ATOM     11  C   UNL     1       3.700   0.696  -0.029  0.00  0.00    +0.264 A 
ATOM     12  O   UNL     1       4.260  -0.387  -0.040  0.00  0.00    -0.267 OA
ATOM     13  N   UNL     1       4.415   1.836  -0.030  0.00  0.00    -0.280 N 
ENDROOT
BRANCH   1  14
ATOM     14  S   UNL     1       4.785   4.519  -0.017  0.00  0.00    -0.086 S 
BRANCH  14  15
ATOM     15  C   UNL     1       3.479   5.773   0.002  0.00  0.00    +0.097 C 
BRANCH  15  16
ATOM     16  C   UNL     1       4.110   7.166   0.004  0.00  0.00    +0.128 C 
BRANCH  16  25
ATOM     17  C   UNL     1      -0.242  11.350   0.758  0.00  0.00    +0.001 A 
ATOM     18  C   UNL     1      -0.255  11.358  -0.624  0.00  0.00    +0.001 A 
ATOM     19  C   UNL     1       0.601  10.535  -1.339  0.00  0.00    +0.014 A 
ATOM     20  C   UNL     1       1.473   9.698  -0.663  0.00  0.00    +0.049 A 
ATOM     21  C   UNL     1       1.486   9.689   0.747  0.00  0.00    +0.049 A 
ATOM     22  C   UNL     1       0.625  10.518   1.448  0.00  0.00    +0.014 A 
ATOM     23  C   UNL     1       2.514   8.702   1.136  0.00  0.00    +0.254 C 
ATOM     24  O   UNL     1       2.821   8.410   2.274  0.00  0.00    -0.270 OA
ATOM     25  N   UNL     1       3.053   8.181   0.019  0.00  0.00    -0.233 N 
ATOM     26  C   UNL     1       2.498   8.719  -1.082  0.00  0.00    +0.254 C 
ATOM     27  O   UNL     1       2.789   8.444  -2.229  0.00  0.00    -0.270 OA
ENDBRANCH  16  25
ENDBRANCH  15  16
ENDBRANCH  14  15
ENDBRANCH   1  14
BRANCH  13  28
ATOM     28  C   UNL     1       5.879   1.766  -0.043  0.00  0.00    +0.201 C 
BRANCH  28  29
ATOM     29  C   UNL     1       6.394   1.733   1.372  0.00  0.00    +0.125 A 
ATOM     30  C   UNL     1       6.605   0.627   2.107  0.00  0.00    +0.046 A 
ATOM     31  C   UNL     1       7.089   1.056   3.365  0.00  0.00    +0.041 A 
ATOM     32  C   UNL     1       7.136   2.400   3.326  0.00  0.00    +0.195 A 
ATOM     33  O   UNL     1       6.714   2.805   2.116  0.00  0.00    -0.466 OA
ENDBRANCH  28  29
ENDBRANCH  13  28
TORSDOF 6
