REMARK  Name = ZINC54742849
REMARK  7 active torsions:
REMARK  status: ('A' for Active; 'I' for Inactive)
REMARK    1  A    between atoms: C_1  and  C_2
REMARK    2  A    between atoms: C_2  and  C_3
REMARK    3  A    between atoms: C_2  and  C_4
REMARK    4  A    between atoms: C_8  and  C_10
REMARK    5  A    between atoms: C_10  and  C_11
REMARK    6  A    between atoms: C_10  and  C_12
REMARK    7  A    between atoms: C_17  and  O_19
REMARK                            x       y       z     vdW  Elec       q    Type
REMARK                         _______ _______ _______ _____ _____    ______ ____
ROOT
ATOM      1  C   UNL     1      -1.512  -0.332  -0.085  0.00  0.00    -0.044 A 
ATOM      2  C   UNL     1      -2.286  -0.193   1.046  0.00  0.00    +0.010 A 
ATOM      3  C   UNL     1      -3.497  -0.866   1.168  0.00  0.00    -0.013 A 
ATOM      4  C   UNL     1      -3.936  -1.689   0.151  0.00  0.00    -0.036 A 
ATOM      5  C   UNL     1      -3.166  -1.801  -1.000  0.00  0.00    -0.041 A 
ATOM      6  C   UNL     1      -1.960  -1.134  -1.114  0.00  0.00    +0.008 A 
ATOM      7  C   UNL     1      -5.213  -2.482   0.246  0.00  0.00    +0.064 C 
ATOM      8  C   UNL     1      -5.419  -3.062   1.646  0.00  0.00    +0.164 C 
ATOM      9  O   UNL     1      -6.134  -2.118   2.441  0.00  0.00    -0.377 OA
ATOM     10  C   UNL     1      -5.773  -0.760   2.225  0.00  0.00    +0.196 C 
ATOM     11  C   UNL     1      -4.268  -0.625   2.437  0.00  0.00    +0.170 C 
ENDROOT
BRANCH   1  13
ATOM     12  C   UNL     1      -0.431   1.899  -0.094  0.00  0.00    +0.012 C 
ATOM     13  C   UNL     1      -0.196   0.392  -0.201  0.00  0.00    +0.013 C 
ATOM     14  C   UNL     1       0.736  -0.060   0.926  0.00  0.00    +0.012 C 
ENDBRANCH   1  13
BRANCH   5  15
ATOM     15  C   UNL     1      -3.621  -2.630  -2.175  0.00  0.00    +0.013 C 
ATOM     16  C   UNL     1      -3.636  -1.763  -3.435  0.00  0.00    +0.012 C 
ATOM     17  C   UNL     1      -2.658  -3.803  -2.374  0.00  0.00    +0.012 C 
ENDBRANCH   5  15
BRANCH  11  18
ATOM     18  O   UNL     1      -3.832  -1.533   3.448  0.00  0.00    -0.385 OA
ATOM     19  H   UNL     1      -4.290  -1.431   4.293  0.00  0.00    +0.210 HD
ENDBRANCH  11  18
TORSDOF 3
