REMARK  Name = ZINC45922563
REMARK  6 active torsions:
REMARK  status: ('A' for Active; 'I' for Inactive)
REMARK    1  A    between atoms: C_1  and  C_2
REMARK    2  A    between atoms: C_12  and  C_14
REMARK    3  A    between atoms: C_14  and  S_15
REMARK    4  A    between atoms: S_15  and  C_16
REMARK    5  A    between atoms: N_29  and  C_30
REMARK    6  A    between atoms: C_30  and  C_31
REMARK                            x       y       z     vdW  Elec       q    Type
REMARK                         _______ _______ _______ _____ _____    ______ ____
ROOT
ATOM      1  C   UNL     1       0.516  -2.880   7.663  0.00  0.00    +0.173 A 
ATOM      2  N   UNL     1       0.162  -4.128   7.501  0.00  0.00    -0.222 NA
ATOM      3  C   UNL     1       0.022  -4.980   8.554  0.00  0.00    +0.095 A 
ATOM      4  C   UNL     1      -0.368  -6.401   8.510  0.00  0.00    +0.034 A 
ATOM      5  C   UNL     1      -0.679  -7.177   7.369  0.00  0.00    +0.014 A 
ATOM      6  C   UNL     1      -1.024  -8.499   7.536  0.00  0.00    +0.020 A 
ATOM      7  C   UNL     1      -1.064  -9.057   8.804  0.00  0.00    +0.112 A 
ATOM      8  N   UNL     1      -0.773  -8.328   9.864  0.00  0.00    -0.248 NA
ATOM      9  C   UNL     1      -0.438  -7.059   9.752  0.00  0.00    +0.111 A 
ATOM     10  S   UNL     1       0.007  -5.809  10.932  0.00  0.00    -0.062 S 
ATOM     11  C   UNL     1       0.277  -4.455   9.819  0.00  0.00    +0.105 A 
ATOM     12  C   UNL     1       0.656  -3.120   9.991  0.00  0.00    +0.269 A 
ATOM     13  O   UNL     1       0.876  -2.671  11.103  0.00  0.00    -0.266 OA
ATOM     14  N   UNL     1       0.777  -2.342   8.890  0.00  0.00    -0.284 N 
ENDROOT
BRANCH   1  15
ATOM     15  S   UNL     1       0.671  -1.853   6.240  0.00  0.00    -0.078 S 
BRANCH  15  16
ATOM     16  C   UNL     1       0.242  -2.949   4.859  0.00  0.00    +0.173 C 
BRANCH  16  28
ATOM     17  C   UNL     1      -0.086   1.508   0.023  0.00  0.00    +0.044 C 
ATOM     18  C   UNL     1      -0.047   0.002   0.011  0.00  0.00    -0.048 A 
ATOM     19  C   UNL     1      -0.043  -0.679  -1.193  0.00  0.00    +0.007 A 
ATOM     20  C   UNL     1      -0.009  -2.060  -1.213  0.00  0.00    +0.048 A 
ATOM     21  C   UNL     1       0.022  -2.771  -0.022  0.00  0.00    +0.142 A 
ATOM     22  C   UNL     1       0.020  -2.084   1.188  0.00  0.00    +0.079 A 
ATOM     23  C   UNL     1      -0.010  -0.698   1.202  0.00  0.00    +0.030 A 
ATOM     24  N   UNL     1       0.059  -2.800   2.397  0.00  0.00    -0.264 N 
ATOM     25  C   UNL     1      -0.213  -4.247   2.344  0.00  0.00    +0.154 C 
ATOM     26  C   UNL     1       0.517  -4.811   1.117  0.00  0.00    +0.248 C 
ATOM     27  O   UNL     1       0.051  -4.130  -0.051  0.00  0.00    -0.489 OA
ATOM     28  C   UNL     1       0.335  -2.184   3.564  0.00  0.00    +0.230 C 
ATOM     29  O   UNL     1       0.659  -1.016   3.571  0.00  0.00    -0.274 OA
ENDBRANCH  16  28
ENDBRANCH  15  16
ENDBRANCH   1  15
BRANCH  14  30
ATOM     30  C   UNL     1       1.176  -0.938   9.015  0.00  0.00    +0.159 C 
BRANCH  30  31
ATOM     31  C   UNL     1      -0.070  -0.066   9.184  0.00  0.00    +0.138 C 
ATOM     32  C   UNL     1       0.332   1.424   9.195  0.00  0.00    +0.035 C 
ATOM     33  C   UNL     1      -0.607   2.010  10.284  0.00  0.00    +0.031 C 
ATOM     34  C   UNL     1      -0.696   0.817  11.269  0.00  0.00    +0.160 C 
ATOM     35  O   UNL     1      -0.699  -0.356  10.438  0.00  0.00    -0.375 OA
ENDBRANCH  30  31
ENDBRANCH  14  30
TORSDOF 5
