REMARK  Name = ZINC35341633
REMARK  3 active torsions:
REMARK  status: ('A' for Active; 'I' for Inactive)
REMARK    1  A    between atoms: C_3  and  O_9
REMARK    2  A    between atoms: O_9  and  C_10
REMARK    3  A    between atoms: C_15  and  N_16
REMARK                            x       y       z     vdW  Elec       q    Type
REMARK                         _______ _______ _______ _____ _____    ______ ____
ROOT
ATOM      1  C   UNL     1       3.483   3.464  -0.118  0.00  0.00    +0.149 A 
ATOM      2  C   UNL     1       2.253   4.102  -0.095  0.00  0.00    +0.053 A 
ATOM      3  C   UNL     1       2.185   5.478  -0.195  0.00  0.00    -0.022 A 
ATOM      4  C   UNL     1       3.349   6.226  -0.317  0.00  0.00    +0.039 A 
ATOM      5  C   UNL     1       4.583   5.592  -0.340  0.00  0.00    +0.050 A 
ATOM      6  C   UNL     1       4.653   4.211  -0.235  0.00  0.00    +0.069 A 
ATOM      7  N   UNL     1       3.275   7.621  -0.418  0.00  0.00    -0.285 N 
ATOM      8  C   UNL     1       2.163   8.274  -0.032  0.00  0.00    +0.218 C 
ATOM      9  O   UNL     1       2.110   9.481  -0.139  0.00  0.00    -0.275 OA
ATOM     10  C   UNL     1       0.986   7.524   0.530  0.00  0.00    +0.101 C 
ATOM     11  C   UNL     1       0.848   6.172  -0.171  0.00  0.00    +0.046 C 
ATOM     12  H   UNL     1       4.030   8.120  -0.767  0.00  0.00    +0.155 HD
ENDROOT
BRANCH   6  13
ATOM     13  N   UNL     1       5.896   3.569  -0.252  0.00  0.00    -0.355 N 
ATOM     14  H   UNL     1       5.944   2.603  -0.182  0.00  0.00    +0.142 HD
ATOM     15  H   UNL     1       6.710   4.090  -0.334  0.00  0.00    +0.142 HD
ENDBRANCH   6  13
BRANCH   1  16
ATOM     16  O   UNL     1       3.548   2.108  -0.021  0.00  0.00    -0.451 OA
BRANCH  16  19
ATOM     17  C   UNL     1       0.647   0.267   1.177  0.00  0.00    +0.019 A 
ATOM     18  C   UNL     1       1.834   0.975   1.177  0.00  0.00    +0.050 A 
ATOM     19  C   UNL     1       2.381   1.412  -0.019  0.00  0.00    +0.164 A 
ATOM     20  C   UNL     1       1.733   1.137  -1.218  0.00  0.00    +0.166 A 
ATOM     21  C   UNL     1       0.545   0.428  -1.213  0.00  0.00    +0.057 A 
ATOM     22  C   UNL     1       0.003  -0.006  -0.016  0.00  0.00    +0.021 A 
ATOM     23 BR   UNL     1      -1.621  -0.975  -0.012  0.00  0.00    -0.050 Br
ATOM     24  F   UNL     1       2.262   1.561  -2.386  0.00  0.00    -0.202 F 
ENDBRANCH  16  19
ENDBRANCH   1  16
TORSDOF 3
