REMARK  Name = ZINC64541001
REMARK  9 active torsions:
REMARK  status: ('A' for Active; 'I' for Inactive)
REMARK    1  A    between atoms: C_1  and  C_2
REMARK    2  A    between atoms: C_2  and  C_3
REMARK    3  A    between atoms: N_9  and  C_10
REMARK    4  A    between atoms: C_10  and  C_11
REMARK    5  A    between atoms: C_11  and  C_12
REMARK    6  A    between atoms: C_12  and  N_13
REMARK    7  A    between atoms: C_14  and  C_16
REMARK    8  A    between atoms: C_16  and  C_17
REMARK    9  A    between atoms: C_23  and  C_25
REMARK                            x       y       z     vdW  Elec       q    Type
REMARK                         _______ _______ _______ _____ _____    ______ ____
ROOT
ATOM      1  C   UNL     1      -4.283   6.269  -6.348  0.00  0.00    +0.001 C 
ATOM      2  C   UNL     1      -5.196   6.906  -5.297  0.00  0.00    +0.023 C 
ATOM      3  C   UNL     1      -5.219   8.424  -5.499  0.00  0.00    +0.108 C 
ATOM      4  N   UNL     1      -5.605   8.711  -6.887  0.00  0.00    -0.300 N 
ATOM      5  C   UNL     1      -4.849   8.077  -7.976  0.00  0.00    +0.108 C 
ATOM      6  C   UNL     1      -4.830   6.563  -7.747  0.00  0.00    +0.023 C 
ATOM      7  C   UNL     1      -6.633   9.540  -7.157  0.00  0.00    +0.242 C 
ATOM      8  O   UNL     1      -7.250  10.056  -6.249  0.00  0.00    -0.273 OA
ENDROOT
BRANCH   7   9
ATOM      9  C   UNL     1      -7.017   9.824  -8.586  0.00  0.00    +0.190 C 
ATOM     10  C   UNL     1      -5.875  10.505  -9.307  0.00  0.00    +0.016 C 
ATOM     11  C   UNL     1      -6.347  11.709  -9.703  0.00  0.00    -0.002 A 
ATOM     12  C   UNL     1      -5.736  12.823 -10.438  0.00  0.00    +0.029 A 
ATOM     13  C   UNL     1      -6.477  13.926 -10.692  0.00  0.00    +0.042 A 
ATOM     14  C   UNL     1      -7.811  14.031 -10.270  0.00  0.00    +0.022 A 
ATOM     15  C   UNL     1      -8.440  13.050  -9.590  0.00  0.00    +0.027 A 
ATOM     16  C   UNL     1      -7.756  11.845  -9.269  0.00  0.00    +0.043 A 
ATOM     17  N   UNL     1      -8.141  10.766  -8.630  0.00  0.00    -0.370 N 
ATOM     18 CL   UNL     1      -5.758  15.246 -11.561  0.00  0.00    -0.084 Cl
ATOM     19  H   UNL     1      -9.021  10.615  -8.250  0.00  0.00    +0.161 HD
ENDBRANCH   7   9
BRANCH   1  20
ATOM     20  C   UNL     1      -4.230   4.756  -6.128  0.00  0.00    +0.099 C 
BRANCH  20  22
ATOM     21  N   UNL     1      -3.423   3.189  -4.393  0.00  0.00    -0.315 N 
ATOM     22  C   UNL     1      -3.578   4.464  -4.801  0.00  0.00    +0.213 C 
ATOM     23  O   UNL     1      -3.194   5.376  -4.100  0.00  0.00    -0.276 OA
ATOM     24  H   UNL     1      -3.730   2.459  -4.954  0.00  0.00    +0.149 HD
BRANCH  21  25
ATOM     25  C   UNL     1      -2.789   2.905  -3.103  0.00  0.00    +0.102 C 
BRANCH  25  26
ATOM     26  C   UNL     1      -2.736   1.391  -2.884  0.00  0.00    +0.000 C 
BRANCH  26  27
ATOM     27  C   UNL     1      -2.074   1.094  -1.537  0.00  0.00    -0.077 C 
BRANCH  27  33
ATOM     28  C   UNL     1      -1.287  -0.646  -0.089  0.00  0.00    -0.069 C 
ATOM     29  C   UNL     1      -1.161  -2.161   0.093  0.00  0.00    -0.015 C 
ATOM     30  C   UNL     1      -2.561  -2.777   0.175  0.00  0.00    -0.003 C 
ATOM     31  C   UNL     1      -3.345  -2.408  -1.087  0.00  0.00    -0.019 C 
ATOM     32  C   UNL     1      -3.390  -0.884  -1.225  0.00  0.00    -0.078 C 
ATOM     33  N   UNL     1      -2.023  -0.358  -1.326  0.00  0.00    +0.382 N 
ATOM     34  H   UNL     1      -1.553  -0.793  -2.105  0.00  0.00    -0.081 HD
BRANCH  28  36
ATOM     35  C   UNL     1       0.845  -0.248   1.152  0.00  0.00    +0.002 C 
ATOM     36  C   UNL     1       0.109  -0.025  -0.171  0.00  0.00    -0.019 C 
ENDBRANCH  28  36
ENDBRANCH  27  33
ENDBRANCH  26  27
ENDBRANCH  25  26
ENDBRANCH  21  25
ENDBRANCH  20  22
ENDBRANCH   1  20
TORSDOF 8
