REMARK  Name = ZINC60268848
REMARK  7 active torsions:
REMARK  status: ('A' for Active; 'I' for Inactive)
REMARK    1  A    between atoms: C_1  and  C_2
REMARK    2  A    between atoms: C_2  and  O_3
REMARK    3  A    between atoms: O_3  and  C_4
REMARK    4  A    between atoms: C_4  and  C_6
REMARK    5  A    between atoms: C_15  and  N_16
REMARK    6  A    between atoms: N_19  and  C_22
REMARK    7  A    between atoms: C_22  and  C_23
REMARK                            x       y       z     vdW  Elec       q    Type
REMARK                         _______ _______ _______ _____ _____    ______ ____
ROOT
ATOM      1  N   UNL     1       1.051  -4.612  -1.770  0.00  0.00    -0.326 N 
ATOM      2  C   UNL     1       1.866  -5.078  -0.638  0.00  0.00    +0.120 C 
ATOM      3  C   UNL     1       1.805  -6.609  -0.591  0.00  0.00    +0.103 C 
ATOM      4  N   UNL     1       0.401  -7.039  -0.564  0.00  0.00    -0.294 NA
ATOM      5  C   UNL     1      -0.303  -6.640  -1.790  0.00  0.00    +0.103 C 
ATOM      6  C   UNL     1      -0.330  -5.106  -1.883  0.00  0.00    +0.120 C 
ENDROOT
BRANCH   1  16
ATOM      7  C   UNL     1       1.452  -2.346  -2.521  0.00  0.00    +0.096 A 
ATOM      8  C   UNL     1       1.996  -1.484  -3.488  0.00  0.00    +0.099 A 
ATOM      9  N   UNL     1       2.602  -1.943  -4.553  0.00  0.00    -0.360 N 
ATOM     10  C   UNL     1       2.739  -3.257  -4.782  0.00  0.00    +0.048 A 
ATOM     11  C   UNL     1       3.396  -3.720  -5.934  0.00  0.00    +0.026 A 
ATOM     12  C   UNL     1       3.525  -5.059  -6.147  0.00  0.00    +0.002 A 
ATOM     13  C   UNL     1       3.015  -5.983  -5.240  0.00  0.00    +0.001 A 
ATOM     14  C   UNL     1       2.372  -5.570  -4.112  0.00  0.00    +0.012 A 
ATOM     15  C   UNL     1       2.223  -4.199  -3.861  0.00  0.00    +0.020 A 
ATOM     16  C   UNL     1       1.565  -3.733  -2.697  0.00  0.00    +0.055 A 
ATOM     17  H   UNL     1       2.963  -1.313  -5.196  0.00  0.00    +0.165 HD
BRANCH   7  18
ATOM     18  C   UNL     1       0.776  -1.799  -1.335  0.00  0.00    +0.342 C 
ATOM     19  O   UNL     1       0.312  -2.550  -0.499  0.00  0.00    -0.245 OA
BRANCH  18  20
ATOM     20  O   UNL     1       0.671  -0.465  -1.174  0.00  0.00    -0.461 OA
BRANCH  20  22
ATOM     21  C   UNL     1      -0.019   1.526   0.010  0.00  0.00    +0.048 C 
ATOM     22  C   UNL     1       0.002  -0.004   0.002  0.00  0.00    +0.229 C 
ENDBRANCH  20  22
ENDBRANCH  18  20
ENDBRANCH   7  18
ENDBRANCH   1  16
BRANCH   4  23
ATOM     23  C   UNL     1       0.298  -8.488  -0.346  0.00  0.00    +0.138 C 
BRANCH  23  24
ATOM     24  C   UNL     1      -1.139  -8.855  -0.080  0.00  0.00    +0.037 A 
ATOM     25  C   UNL     1      -1.832  -9.660  -0.959  0.00  0.00    +0.093 A 
ATOM     26  C   UNL     1      -3.162  -9.989  -0.695  0.00  0.00    +0.259 A 
ATOM     27  O   UNL     1      -3.780 -10.702  -1.470  0.00  0.00    -0.267 OA
ATOM     28  N   UNL     1      -3.771  -9.514   0.432  0.00  0.00    -0.264 N 
ATOM     29  C   UNL     1      -5.066  -9.750   0.827  0.00  0.00    +0.104 A 
ATOM     30  C   UNL     1      -5.547  -9.226   1.955  0.00  0.00    +0.067 A 
ATOM     31  S   UNL     1      -4.136  -8.320   2.568  0.00  0.00    -0.059 S 
ATOM     32  C   UNL     1      -3.010  -8.723   1.250  0.00  0.00    +0.158 A 
ATOM     33  N   UNL     1      -1.760  -8.413   1.011  0.00  0.00    -0.338 N 
ATOM     34  H   UNL     1      -1.280  -7.850   1.638  0.00  0.00    +0.168 HD
ENDBRANCH  23  24
ENDBRANCH   4  23
TORSDOF 6
