REMARK  Name = ZINC63993772
REMARK  7 active torsions:
REMARK  status: ('A' for Active; 'I' for Inactive)
REMARK    1  A    between atoms: C_1  and  C_2
REMARK    2  A    between atoms: C_2  and  C_3
REMARK    3  A    between atoms: C_2  and  C_4
REMARK    4  A    between atoms: C_4  and  N_5
REMARK    5  A    between atoms: N_11  and  C_14
REMARK    6  A    between atoms: C_14  and  C_15
REMARK    7  A    between atoms: N_25  and  C_28
REMARK                            x       y       z     vdW  Elec       q    Type
REMARK                         _______ _______ _______ _____ _____    ______ ____
ROOT
ATOM      1  N   UNL     1      -1.351  -1.994  -0.120  0.00  0.00    -0.224 N 
ATOM      2  C   UNL     1      -1.499  -2.650  -1.289  0.00  0.00    +0.247 C 
ATOM      3  O   UNL     1      -1.597  -2.166  -2.396  0.00  0.00    -0.273 OA
ATOM      4  C   UNL     1      -1.516  -4.117  -0.928  0.00  0.00    +0.112 C 
ATOM      5  C   UNL     1      -0.354  -4.846  -1.595  0.00  0.00    +0.017 C 
ATOM      6  C   UNL     1      -0.425  -6.336  -1.248  0.00  0.00    -0.076 C 
ATOM      7  N   UNL     1      -1.704  -6.887  -1.711  0.00  0.00    +0.381 N 
ATOM      8  C   UNL     1      -2.814  -6.245  -0.996  0.00  0.00    -0.076 C 
ATOM      9  C   UNL     1      -2.844  -4.751  -1.332  0.00  0.00    +0.017 C 
ATOM     10  N   UNL     1      -1.363  -4.128   0.532  0.00  0.00    -0.274 N 
ATOM     11  C   UNL     1      -1.268  -2.840   0.914  0.00  0.00    +0.312 C 
ATOM     12  O   UNL     1      -1.127  -2.486   2.068  0.00  0.00    -0.252 OA
ATOM     13  C   UNL     1      -1.316  -5.307   1.400  0.00  0.00    +0.134 C 
ATOM     14  H   UNL     1      -1.802  -6.720  -2.701  0.00  0.00    -0.082 HD
ENDROOT
BRANCH   1  15
ATOM     15  C   UNL     1      -1.282  -0.535   0.003  0.00  0.00    +0.121 C 
BRANCH  15  17
ATOM     16  C   UNL     1       0.235   1.447  -0.110  0.00  0.00    +0.009 C 
ATOM     17  C   UNL     1       0.175  -0.082  -0.113  0.00  0.00    +0.001 C 
ATOM     18  C   UNL     1       0.974  -0.626   1.073  0.00  0.00    +0.009 C 
ENDBRANCH  15  17
ENDBRANCH   1  15
BRANCH   7  19
ATOM     19  C   UNL     1      -1.732  -8.334  -1.457  0.00  0.00    -0.050 C 
BRANCH  19  20
ATOM     20  C   UNL     1      -3.010  -8.931  -2.050  0.00  0.00    +0.086 C 
ATOM     21  C   UNL     1      -2.971 -10.440  -1.959  0.00  0.00    +0.005 C 
ATOM     22  C   UNL     1      -3.033 -10.894  -3.231  0.00  0.00    -0.004 A 
ATOM     23  C   UNL     1      -3.036 -12.244  -3.807  0.00  0.00    +0.010 A 
ATOM     24  C   UNL     1      -3.109 -12.385  -5.150  0.00  0.00    +0.001 A 
ATOM     25  C   UNL     1      -3.183 -11.276  -6.004  0.00  0.00    +0.002 A 
ATOM     26  C   UNL     1      -3.186 -10.005  -5.550  0.00  0.00    +0.026 A 
ATOM     27  C   UNL     1      -3.112  -9.740  -4.155  0.00  0.00    +0.043 A 
ATOM     28  N   UNL     1      -3.100  -8.614  -3.479  0.00  0.00    -0.380 N 
ATOM     29  H   UNL     1      -3.143  -7.723  -3.860  0.00  0.00    +0.160 HD
ENDBRANCH  19  20
ENDBRANCH   7  19
TORSDOF 4
