REMARK  Name = ZINC15955542
REMARK  15 active torsions:
REMARK  status: ('A' for Active; 'I' for Inactive)
REMARK    1  A    between atoms: C_1  and  C_2
REMARK    2  A    between atoms: C_2  and  C_3
REMARK    3  A    between atoms: C_3  and  C_4
REMARK    4  A    between atoms: C_4  and  N_74
REMARK    5  A    between atoms: C_5  and  C_6
REMARK    6  A    between atoms: C_5  and  N_74
REMARK    7  A    between atoms: C_6  and  C_7
REMARK    8  A    between atoms: C_7  and  C_8
REMARK    9  A    between atoms: C_9  and  C_10
REMARK   10  A    between atoms: C_9  and  N_74
REMARK   11  A    between atoms: C_10  and  C_11
REMARK   12  A    between atoms: C_11  and  N_76
REMARK   13  A    between atoms: C_12  and  C_13
REMARK   14  A    between atoms: C_12  and  N_76
REMARK   15  A    between atoms: C_25  and  C_32
REMARK                            x       y       z     vdW  Elec       q    Type
REMARK                         _______ _______ _______ _____ _____    ______ ____
ROOT
ATOM      1  C   UNL     1       2.580  -4.330  -1.174  0.00  0.00    -0.068 C 
ENDROOT
BRANCH   1   2
ATOM      2  C   UNL     1       3.728  -3.940  -0.241  0.00  0.00    +0.087 C 
ATOM      3  C   UNL     1       3.623  -2.437   0.154  0.00  0.00    +0.042 C 
ATOM      4  C   UNL     1       2.831  -1.750  -0.961  0.00  0.00    +0.016 C 
ATOM      5  C   UNL     1       3.061  -0.242  -0.932  0.00  0.00    +0.021 C 
ATOM      6  C   UNL     1       2.253   0.426  -2.020  0.00  0.00    -0.073 C 
ATOM      7  C   UNL     1       1.350  -0.240  -2.695  0.00  0.00    +0.008 C 
ATOM      8  C   UNL     1       2.519   1.888  -2.308  0.00  0.00    +0.030 C 
ATOM      9  C   UNL     1       4.024   2.083  -2.514  0.00  0.00    +0.005 C 
ATOM     10  C   UNL     1       4.784   1.525  -1.309  0.00  0.00    +0.007 C 
ATOM     11  C   UNL     1       4.549   0.019  -1.205  0.00  0.00    -0.022 C 
ATOM     12  C   UNL     1       5.348  -0.562  -0.040  0.00  0.00    +0.052 C 
ATOM     13  C   UNL     1       5.113  -2.047   0.097  0.00  0.00    +0.181 C 
ATOM     14  O   UNL     1       5.622  -2.816  -1.031  0.00  0.00    -0.461 OA
ATOM     15  C   UNL     1       5.058  -4.042  -0.964  0.00  0.00    +0.309 C 
ATOM     16  O   UNL     1       5.536  -5.058  -1.410  0.00  0.00    -0.251 OA
ATOM     17  C   UNL     1       4.962  -0.671  -2.507  0.00  0.00    +0.012 C 
ENDBRANCH   1   2
BRANCH   1  18
ATOM     18  N   UNL     1       2.638  -5.781  -1.432  0.00  0.00    +0.380 N 
ATOM     19  H   UNL     1       3.538  -6.011  -1.871  0.00  0.00    -0.086 HD
ATOM     20  H   UNL     1       2.552  -6.287  -0.543  0.00  0.00    -0.086 HD
BRANCH  18  21
ATOM     21  C   UNL     1       1.541  -6.186  -2.330  0.00  0.00    -0.084 C 
BRANCH  21  22
ATOM     22  C   UNL     1       1.627  -7.694  -2.580  0.00  0.00    -0.038 C 
BRANCH  22  23
ATOM     23  C   UNL     1       0.491  -8.122  -3.511  0.00  0.00    -0.081 C 
BRANCH  23  24
ATOM     24  N   UNL     1       0.601  -9.575  -3.759  0.00  0.00    +0.380 N 
ATOM     25  H   UNL     1       1.557  -9.790  -4.066  0.00  0.00    -0.082 HD
BRANCH  24  26
ATOM     26  C   UNL     1       0.317 -10.323  -2.516  0.00  0.00    -0.079 C 
BRANCH  26  27
ATOM     27  C   UNL     1      -1.092 -10.008  -2.011  0.00  0.00    -0.019 C 
BRANCH  27  29
ATOM     28  C   UNL     1      -2.758 -10.454  -0.203  0.00  0.00    +0.004 C 
ATOM     29  C   UNL     1      -1.349 -10.769  -0.708  0.00  0.00    -0.005 C 
ENDBRANCH  27  29
ENDBRANCH  26  27
ENDBRANCH  24  26
BRANCH  24  30
ATOM     30  C   UNL     1      -0.346  -9.980  -4.819  0.00  0.00    -0.079 C 
BRANCH  30  31
ATOM     31  C   UNL     1       0.033 -11.378  -5.309  0.00  0.00    -0.019 C 
BRANCH  31  32
ATOM     32  C   UNL     1      -0.927 -11.806  -6.422  0.00  0.00    -0.005 C 
ATOM     33  C   UNL     1      -0.548 -13.205  -6.912  0.00  0.00    +0.004 C 
ENDBRANCH  31  32
ENDBRANCH  30  31
ENDBRANCH  24  30
ENDBRANCH  23  24
ENDBRANCH  22  23
ENDBRANCH  21  22
ENDBRANCH  18  21
ENDBRANCH   1  18
TORSDOF 12
