REMARK  Name = ZINC12555470
REMARK  7 active torsions:
REMARK  status: ('A' for Active; 'I' for Inactive)
REMARK    1  A    between atoms: C_11  and  C_13
REMARK    2  A    between atoms: C_13  and  O_14
REMARK    3  A    between atoms: O_14  and  C_15
REMARK    4  A    between atoms: C_15  and  C_17
REMARK    5  A    between atoms: N_20  and  S_23
REMARK    6  A    between atoms: S_23  and  C_26
REMARK    7  A    between atoms: C_28  and  N_33
REMARK                            x       y       z     vdW  Elec       q    Type
REMARK                         _______ _______ _______ _____ _____    ______ ____
ROOT
ATOM      1  C   UNL     1       0.748   8.243  -3.591  0.00  0.00    +0.100 C 
ATOM      2  C   UNL     1       2.270   8.110  -3.512  0.00  0.00    +0.032 C 
ATOM      3  C   UNL     1       2.914   9.043  -4.543  0.00  0.00    +0.110 C 
ATOM      4  N   UNL     1       2.415  10.407  -4.323  0.00  0.00    -0.176 NA
ATOM      5  C   UNL     1       0.963  10.631  -4.289  0.00  0.00    +0.110 C 
ATOM      6  C   UNL     1       0.342   9.681  -3.261  0.00  0.00    +0.032 C 
ENDROOT
BRANCH   4   7
ATOM      7  S   UNL     1       3.469  11.668  -4.118  0.00  0.00    +0.062 S 
ATOM      8  O   UNL     1       4.734  11.219  -4.582  0.00  0.00    -0.153 OA
ATOM      9  O   UNL     1       2.829  12.822  -4.646  0.00  0.00    -0.153 OA
BRANCH   7  10
ATOM     10  C   UNL     1       3.633  11.933  -2.384  0.00  0.00    +0.126 A 
ATOM     11  C   UNL     1       3.146  13.093  -1.812  0.00  0.00    +0.062 A 
ATOM     12  C   UNL     1       3.270  13.299  -0.451  0.00  0.00    +0.128 A 
ATOM     13  C   UNL     1       3.891  12.348   0.338  0.00  0.00    +0.034 A 
ATOM     14  C   UNL     1       4.384  11.190  -0.233  0.00  0.00    +0.024 A 
ATOM     15  C   UNL     1       4.255  10.982  -1.595  0.00  0.00    +0.067 A 
ATOM     16 CL   UNL     1       4.873   9.527  -2.313  0.00  0.00    -0.082 Cl
BRANCH  12  17
ATOM     17  N   UNL     1       2.744  14.539   0.161  0.00  0.00    +0.056 N 
ATOM     18  O   UNL     1       2.858  14.722   1.360  0.00  0.00    -0.126 OA
ATOM     19  O   UNL     1       2.197  15.376  -0.534  0.00  0.00    -0.126 OA
ENDBRANCH  12  17
ENDBRANCH   7  10
ENDBRANCH   4   7
BRANCH   1  20
ATOM     20  C   UNL     1       0.110   7.301  -2.602  0.00  0.00    +0.311 C 
ATOM     21  O   UNL     1      -0.597   7.736  -1.723  0.00  0.00    -0.251 OA
BRANCH  20  22
ATOM     22  O   UNL     1       0.327   5.980  -2.696  0.00  0.00    -0.455 OA
BRANCH  22  23
ATOM     23  C   UNL     1      -0.319   5.134  -1.710  0.00  0.00    +0.327 C 
BRANCH  23  34
ATOM     24  C   UNL     1      -0.223   0.838   3.450  0.00  0.00    +0.000 A 
ATOM     25  C   UNL     1      -1.137   1.873   3.526  0.00  0.00    +0.000 A 
ATOM     26  C   UNL     1      -1.476   2.569   2.386  0.00  0.00    +0.005 A 
ATOM     27  C   UNL     1      -0.909   2.239   1.163  0.00  0.00    -0.027 A 
ATOM     28  C   UNL     1       0.005   1.213   1.086  0.00  0.00    -0.041 A 
ATOM     29  C   UNL     1       0.344   0.511   2.237  0.00  0.00    +0.004 A 
ATOM     30  C   UNL     1       0.673   0.807  -0.201  0.00  0.00    +0.054 C 
ATOM     31  C   UNL     1      -0.123   1.305  -1.407  0.00  0.00    +0.113 C 
ATOM     32  N   UNL     1      -0.452   2.722  -1.177  0.00  0.00    -0.294 N 
ATOM     33  C   UNL     1      -1.334   3.033  -0.047  0.00  0.00    +0.143 C 
ATOM     34  C   UNL     1       0.037   3.693  -1.973  0.00  0.00    +0.254 C 
ATOM     35  O   UNL     1       0.764   3.408  -2.901  0.00  0.00    -0.272 OA
ENDBRANCH  23  34
ENDBRANCH  22  23
ENDBRANCH  20  22
ENDBRANCH   1  20
TORSDOF 7
