REMARK  Name = ZINC36553142
REMARK  11 active torsions:
REMARK  status: ('A' for Active; 'I' for Inactive)
REMARK    1  A    between atoms: C_1  and  C_2
REMARK    2  A    between atoms: C_3  and  C_4
REMARK    3  A    between atoms: C_4  and  C_6
REMARK    4  A    between atoms: C_4  and  N_13
REMARK    5  A    between atoms: N_8  and  C_9
REMARK    6  A    between atoms: C_9  and  C_10
REMARK    7  A    between atoms: C_9  and  C_11
REMARK    8  A    between atoms: C_9  and  C_12
REMARK    9  A    between atoms: N_13  and  C_14
REMARK   10  A    between atoms: C_21  and  C_23
REMARK   11  A    between atoms: C_27  and  N_29
REMARK                            x       y       z     vdW  Elec       q    Type
REMARK                         _______ _______ _______ _____ _____    ______ ____
ROOT
ATOM      1  N   UNL     1       1.095   1.726   2.211  0.00  0.00    -0.252 N 
ATOM      2  C   UNL     1       0.087   2.146   3.001  0.00  0.00    +0.252 C 
ATOM      3  O   UNL     1      -0.429   1.377   3.788  0.00  0.00    -0.270 OA
ENDROOT
BRANCH   1   4
ATOM      4  C   UNL     1       1.720   2.624   1.339  0.00  0.00    +0.039 A 
ATOM      5  C   UNL     1       2.405   3.722   1.844  0.00  0.00    +0.023 A 
ATOM      6  C   UNL     1       3.022   4.606   0.981  0.00  0.00    +0.003 A 
ATOM      7  C   UNL     1       2.958   4.400  -0.385  0.00  0.00    +0.020 A 
ATOM      8  C   UNL     1       2.277   3.308  -0.892  0.00  0.00    +0.043 A 
ATOM      9  C   UNL     1       1.662   2.416  -0.033  0.00  0.00    +0.043 A 
ATOM     10 CL   UNL     1       2.200   3.053  -2.607  0.00  0.00    -0.083 Cl
ENDBRANCH   1   4
BRANCH   2  11
ATOM     11  C   UNL     1      -0.390   3.542   2.912  0.00  0.00    +0.039 A 
ATOM     12  C   UNL     1      -0.204   4.273   1.737  0.00  0.00    +0.013 A 
ATOM     13  C   UNL     1      -0.652   5.575   1.660  0.00  0.00    +0.003 A 
ATOM     14  C   UNL     1      -1.284   6.158   2.744  0.00  0.00    +0.033 A 
ATOM     15  C   UNL     1      -1.471   5.440   3.912  0.00  0.00    +0.127 A 
ATOM     16  C   UNL     1      -1.034   4.134   4.000  0.00  0.00    +0.045 A 
BRANCH  15  17
ATOM     17  N   UNL     1      -2.148   6.071   5.067  0.00  0.00    +0.056 N 
ATOM     18  O   UNL     1      -2.536   7.214   4.989  0.00  0.00    -0.126 OA
ATOM     19  O   UNL     1      -2.312   5.445   6.088  0.00  0.00    -0.126 OA
ENDBRANCH  15  17
ENDBRANCH   2  11
BRANCH   1  20
ATOM     20  C   UNL     1       1.535   0.330   2.264  0.00  0.00    +0.190 C 
BRANCH  20  21
ATOM     21  C   UNL     1       2.996   0.278   2.632  0.00  0.00    +0.238 C 
ATOM     22  O   UNL     1       3.608   1.306   2.830  0.00  0.00    -0.273 OA
ATOM     23  N   UNL     1       3.621  -0.911   2.741  0.00  0.00    -0.309 N 
ATOM     24  H   UNL     1       3.131  -1.733   2.583  0.00  0.00    +0.149 HD
BRANCH  23  25
ATOM     25  C   UNL     1       5.041  -0.962   3.099  0.00  0.00    +0.026 C 
ATOM     26  C   UNL     1       5.246  -0.310   4.468  0.00  0.00    +0.031 C 
ATOM     27  C   UNL     1       5.500  -2.420   3.155  0.00  0.00    +0.031 C 
ATOM     28  C   UNL     1       5.859  -0.209   2.047  0.00  0.00    +0.031 C 
ENDBRANCH  23  25
ENDBRANCH  20  21
BRANCH  20  31
ATOM     29  C   UNL     1      -0.418  -1.677   1.933  0.00  0.00    +0.035 C 
ATOM     30  C   UNL     1       0.467  -1.286   0.777  0.00  0.00    -0.032 C 
ATOM     31  C   UNL     1       1.333  -0.312   0.916  0.00  0.00    +0.000 C 
ENDBRANCH  20  31
ENDBRANCH   1  20
TORSDOF 7
