REMARK  Name = ZINC67577144
REMARK  5 active torsions:
REMARK  status: ('A' for Active; 'I' for Inactive)
REMARK    1  A    between atoms: C_1  and  C_2
REMARK    2  A    between atoms: C_9  and  C_11
REMARK    3  A    between atoms: C_11  and  C_13
REMARK    4  A    between atoms: C_11  and  N_14
REMARK    5  A    between atoms: N_17  and  C_18
REMARK                            x       y       z     vdW  Elec       q    Type
REMARK                         _______ _______ _______ _____ _____    ______ ____
ROOT
ATOM      1  N   UNL     1       2.704   0.999   3.993  0.00  0.00    -0.288 N 
ATOM      2  C   UNL     1       3.074   0.703   5.254  0.00  0.00    +0.304 C 
ATOM      3  O   UNL     1       3.332  -0.445   5.559  0.00  0.00    -0.252 OA
ATOM      4  N   UNL     1       3.158   1.681   6.178  0.00  0.00    -0.269 N 
ATOM      5  H   UNL     1       2.498   1.915   3.749  0.00  0.00    +0.151 HD
ATOM      6  H   UNL     1       2.884   2.584   5.955  0.00  0.00    +0.156 HD
ENDROOT
BRANCH   4   7
ATOM      7  C   UNL     1       3.641   1.392   7.461  0.00  0.00    +0.035 A 
ATOM      8  C   UNL     1       3.380   0.161   8.050  0.00  0.00    +0.025 A 
ATOM      9  C   UNL     1       3.865  -0.104   9.306  0.00  0.00    +0.025 A 
ATOM     10  C   UNL     1       4.620   0.844  10.019  0.00  0.00    +0.037 A 
ATOM     11  C   UNL     1       4.874   2.066   9.434  0.00  0.00    -0.024 A 
ATOM     12  C   UNL     1       4.388   2.327   8.153  0.00  0.00    +0.028 A 
ATOM     13  C   UNL     1       5.645   3.179  10.067  0.00  0.00    +0.037 C 
ATOM     14  C   UNL     1       5.471   3.335  11.545  0.00  0.00    +0.014 C 
ATOM     15  C   UNL     1       6.252   2.325  12.352  0.00  0.00    +0.096 C 
ATOM     16  C   UNL     1       5.644   0.970  12.283  0.00  0.00    +0.217 C 
ATOM     17  O   UNL     1       5.707   0.298  13.290  0.00  0.00    -0.275 OA
ATOM     18  N   UNL     1       5.051   0.426  11.258  0.00  0.00    -0.285 N 
ATOM     19  H   UNL     1       4.865  -0.515  11.407  0.00  0.00    +0.155 HD
ENDBRANCH   4   7
BRANCH   1  20
ATOM     20  C   UNL     1       2.612  -0.064   2.988  0.00  0.00    +0.157 C 
ATOM     21  C   UNL     1       3.992  -0.302   2.371  0.00  0.00    +0.038 C 
BRANCH  20  29
ATOM     22  C   UNL     1       0.227   1.347  -0.144  0.00  0.00    +0.028 C 
ATOM     23  C   UNL     1       0.278  -0.179  -0.053  0.00  0.00    +0.073 C 
ATOM     24  C   UNL     1       0.851  -0.752  -1.353  0.00  0.00    +0.022 C 
ATOM     25  C   UNL     1       1.029  -2.265  -1.204  0.00  0.00    +0.003 C 
ATOM     26  C   UNL     1       2.016  -2.555  -0.071  0.00  0.00    +0.019 C 
ATOM     27  C   UNL     1       1.456  -2.002   1.244  0.00  0.00    +0.108 C 
ATOM     28  N   UNL     1       1.143  -0.577   1.065  0.00  0.00    -0.297 N 
ATOM     29  C   UNL     1       1.644   0.347   1.909  0.00  0.00    +0.236 C 
ATOM     30  O   UNL     1       1.315   1.509   1.800  0.00  0.00    -0.274 OA
ENDBRANCH  20  29
ENDBRANCH   1  20
TORSDOF 3
