REMARK  Name = ZINC35640741
REMARK  9 active torsions:
REMARK  status: ('A' for Active; 'I' for Inactive)
REMARK    1  A    between atoms: C_1  and  C_2
REMARK    2  A    between atoms: C_2  and  O_3
REMARK    3  A    between atoms: O_3  and  C_4
REMARK    4  A    between atoms: C_4  and  C_6
REMARK    5  A    between atoms: C_7  and  C_23
REMARK    6  A    between atoms: N_8  and  C_22
REMARK    7  A    between atoms: C_12  and  C_14
REMARK    8  A    between atoms: C_23  and  N_24
REMARK    9  A    between atoms: C_28  and  C_31
REMARK                            x       y       z     vdW  Elec       q    Type
REMARK                         _______ _______ _______ _____ _____    ______ ____
ROOT
ATOM      1  C   UNL     1      -2.787  -2.308   0.184  0.00  0.00    +0.080 C 
ATOM      2  C   UNL     1      -2.872  -3.646   0.018  0.00  0.00    +0.041 C 
ATOM      3  N   UNL     1      -4.083  -4.267  -0.093  0.00  0.00    -0.260 N 
ATOM      4  C   UNL     1      -5.255  -3.621  -0.048  0.00  0.00    +0.307 C 
ATOM      5  O   UNL     1      -6.283  -4.261  -0.155  0.00  0.00    -0.252 OA
ATOM      6  N   UNL     1      -5.332  -2.286   0.114  0.00  0.00    -0.288 N 
ATOM      7  C   UNL     1      -4.080  -1.522   0.250  0.00  0.00    +0.145 C 
ATOM      8  C   UNL     1      -4.100  -5.721  -0.271  0.00  0.00    +0.139 C 
ATOM      9  H   UNL     1      -6.193  -1.838   0.144  0.00  0.00    +0.151 HD
ENDROOT
BRANCH   7  10
ATOM     10  C   UNL     1      -4.115  -0.794   1.568  0.00  0.00    -0.004 A 
ATOM     11  C   UNL     1      -4.716  -1.381   2.667  0.00  0.00    +0.008 A 
ATOM     12  C   UNL     1      -4.748  -0.713   3.876  0.00  0.00    +0.020 A 
ATOM     13  C   UNL     1      -4.179   0.543   3.989  0.00  0.00    +0.042 A 
ATOM     14  C   UNL     1      -3.578   1.131   2.891  0.00  0.00    +0.040 A 
ATOM     15  C   UNL     1      -3.542   0.460   1.681  0.00  0.00    +0.048 A 
ATOM     16 CL   UNL     1      -2.782   1.194   0.304  0.00  0.00    -0.083 Cl
ATOM     17 CL   UNL     1      -4.221   1.381   5.508  0.00  0.00    -0.083 Cl
ENDBRANCH   7  10
BRANCH   1  18
ATOM     18  C   UNL     1      -1.533  -1.663   0.299  0.00  0.00    +0.339 C 
ATOM     19  O   UNL     1      -1.101  -1.364   1.397  0.00  0.00    -0.245 OA
BRANCH  18  20
ATOM     20  O   UNL     1      -0.815  -1.381  -0.808  0.00  0.00    -0.462 OA
BRANCH  20  22
ATOM     21  C   UNL     1       1.105  -0.492  -1.976  0.00  0.00    +0.048 C 
ATOM     22  C   UNL     1       0.442  -0.729  -0.617  0.00  0.00    +0.229 C 
ENDBRANCH  20  22
ENDBRANCH  18  20
ENDBRANCH   1  18
BRANCH   2  23
ATOM     23  C   UNL     1      -1.609  -4.466  -0.047  0.00  0.00    +0.136 C 
BRANCH  23  24
ATOM     24  N   UNL     1      -1.551  -5.369   1.110  0.00  0.00    -0.300 NA
ATOM     25  C   UNL     1      -1.406  -4.612   2.362  0.00  0.00    +0.066 C 
ATOM     26  C   UNL     1      -1.410  -5.582   3.545  0.00  0.00    -0.067 C 
ATOM     27  N   UNL     1      -0.303  -6.537   3.399  0.00  0.00    +0.382 N 
ATOM     28  C   UNL     1      -0.476  -7.302   2.157  0.00  0.00    -0.061 C 
ATOM     29  C   UNL     1      -0.464  -6.346   0.962  0.00  0.00    +0.069 C 
ATOM     30  C   UNL     1       0.668  -8.309   2.016  0.00  0.00    -0.012 C 
ATOM     31  H   UNL     1       0.571  -6.035   3.366  0.00  0.00    -0.085 HD
ATOM     32  H   UNL     1      -0.299  -7.169   4.185  0.00  0.00    -0.085 HD
ENDBRANCH  23  24
ENDBRANCH   2  23
TORSDOF 6
