REMARK  Name = ZINC08742859
REMARK  5 active torsions:
REMARK  status: ('A' for Active; 'I' for Inactive)
REMARK    1  A    between atoms: C_1  and  C_2
REMARK    2  A    between atoms: C_2  and  C_3
REMARK    3  A    between atoms: C_3  and  C_5
REMARK    4  A    between atoms: C_3  and  N_6
REMARK    5  A    between atoms: C_13  and  N_24
REMARK                            x       y       z     vdW  Elec       q    Type
REMARK                         _______ _______ _______ _____ _____    ______ ____
ROOT
ATOM      1  N   UNL     1      -1.452   8.312  -0.855  0.00  0.00    -0.250 N 
ATOM      2  C   UNL     1      -1.301   7.439   0.151  0.00  0.00    +0.238 C 
ATOM      3  O   UNL     1      -1.409   7.833   1.293  0.00  0.00    -0.274 OA
ATOM      4  C   UNL     1      -1.002   5.988  -0.095  0.00  0.00    +0.146 C 
ATOM      5  C   UNL     1       0.318   5.613   0.586  0.00  0.00    +0.064 C 
ATOM      6  C   UNL     1       0.461   4.113   0.622  0.00  0.00    -0.023 A 
ATOM      7  C   UNL     1       1.715   3.582   0.883  0.00  0.00    +0.038 A 
ATOM      8  C   UNL     1       1.899   2.215   0.940  0.00  0.00    +0.127 A 
ATOM      9  C   UNL     1       0.826   1.366   0.735  0.00  0.00    +0.034 A 
ATOM     10  C   UNL     1      -0.422   1.887   0.468  0.00  0.00    +0.025 A 
ATOM     11  C   UNL     1      -0.615   3.268   0.412  0.00  0.00    +0.033 A 
ATOM     12  N   UNL     1      -1.899   3.732   0.136  0.00  0.00    -0.325 N 
ATOM     13  C   UNL     1      -2.111   5.127   0.520  0.00  0.00    +0.098 C 
ATOM     14  C   UNL     1      -3.470   5.605  -0.000  0.00  0.00    +0.024 C 
ATOM     15  C   UNL     1      -4.573   4.719   0.585  0.00  0.00    +0.003 C 
ATOM     16  C   UNL     1      -4.302   3.261   0.206  0.00  0.00    +0.019 C 
ATOM     17  C   UNL     1      -2.920   2.853   0.722  0.00  0.00    +0.105 C 
ATOM     18  C   UNL     1      -0.907   5.707  -1.567  0.00  0.00    +0.236 C 
ATOM     19  O   UNL     1      -0.670   4.578  -1.937  0.00  0.00    -0.274 OA
ATOM     20  N   UNL     1      -1.079   6.670  -2.484  0.00  0.00    -0.266 N 
ATOM     21  C   UNL     1      -1.344   7.939  -2.139  0.00  0.00    +0.146 C 
ATOM     22  S   UNL     1      -1.551   9.113  -3.369  0.00  0.00    -0.018 S 
ATOM     23  H   UNL     1      -1.004   6.430  -3.555  0.00  0.00    +0.157 HD
ENDROOT
BRANCH   8  24
ATOM     24  N   UNL     1       3.241   1.658   1.218  0.00  0.00    +0.056 N 
ATOM     25  O   UNL     1       3.402   0.452   1.268  0.00  0.00    -0.126 OA
ATOM     26  O   UNL     1       4.186   2.407   1.398  0.00  0.00    -0.126 OA
ENDBRANCH   8  24
BRANCH   1  27
ATOM     27  C   UNL     1      -1.743   9.713  -0.543  0.00  0.00    +0.080 C 
ATOM     28  C   UNL     1      -0.611  10.292   0.308  0.00  0.00    +0.028 C 
BRANCH  27  30
ATOM     29  C   UNL     1      -4.212   9.355  -0.671  0.00  0.00    +0.006 C 
ATOM     30  C   UNL     1      -3.059   9.801   0.231  0.00  0.00    +0.019 C 
ENDBRANCH  27  30
ENDBRANCH   1  27
TORSDOF 3
