REMARK  Name = ZINC11355197
REMARK  4 active torsions:
REMARK  status: ('A' for Active; 'I' for Inactive)
REMARK    1  A    between atoms: C_1  and  C_2
REMARK    2  A    between atoms: C_6  and  N_8
REMARK    3  A    between atoms: C_10  and  C_15
REMARK    4  A    between atoms: C_23  and  N_27
REMARK                            x       y       z     vdW  Elec       q    Type
REMARK                         _______ _______ _______ _____ _____    ______ ____
ROOT
ATOM      1  C   UNL     1      -3.260   4.117   0.079  0.00  0.00    +0.224 C 
ATOM      2  O   UNL     1      -3.540   2.937   0.085  0.00  0.00    -0.275 OA
ATOM      3  N   UNL     1      -1.969   4.503   0.076  0.00  0.00    -0.264 N 
ATOM      4  C   UNL     1      -0.962   3.553   0.078  0.00  0.00    +0.165 A 
ATOM      5  N   UNL     1      -1.064   2.244   0.079  0.00  0.00    -0.225 NA
ATOM      6  C   UNL     1       0.014   1.431   0.086  0.00  0.00    +0.080 A 
ATOM      7  C   UNL     1       0.042   0.017   0.092  0.00  0.00    +0.031 A 
ATOM      8  C   UNL     1       1.234  -0.659   0.092  0.00  0.00    +0.035 A 
ATOM      9  C   UNL     1       2.449   0.011   0.087  0.00  0.00    +0.127 A 
ATOM     10  C   UNL     1       2.459   1.394   0.082  0.00  0.00    +0.050 A 
ATOM     11  C   UNL     1       1.270   2.080   0.081  0.00  0.00    +0.043 A 
ATOM     12  S   UNL     1       0.809   3.796   0.074  0.00  0.00    -0.052 S 
ATOM     13  H   UNL     1      -1.746   5.447   0.071  0.00  0.00    +0.157 HD
ENDROOT
BRANCH   1  16
ATOM     14  N   UNL     1      -6.016   4.496   1.679  0.00  0.00    -0.271 N 
ATOM     15  C   UNL     1      -5.743   4.488   0.237  0.00  0.00    +0.127 C 
ATOM     16  C   UNL     1      -4.357   5.151   0.077  0.00  0.00    +0.102 C 
ATOM     17  C   UNL     1      -4.284   6.038   1.341  0.00  0.00    +0.110 C 
ATOM     18  C   UNL     1      -5.215   5.362   2.323  0.00  0.00    +0.221 C 
ATOM     19  O   UNL     1      -5.236   5.570   3.518  0.00  0.00    -0.275 OA
BRANCH  14  25
ATOM     20  C   UNL     1      -9.740   1.304   1.328  0.00  0.00    +0.044 C 
ATOM     21  C   UNL     1      -8.804   2.147   2.157  0.00  0.00    -0.049 A 
ATOM     22  C   UNL     1      -8.905   2.137   3.536  0.00  0.00    +0.003 A 
ATOM     23  C   UNL     1      -8.049   2.909   4.300  0.00  0.00    +0.002 A 
ATOM     24  C   UNL     1      -7.087   3.688   3.687  0.00  0.00    +0.023 A 
ATOM     25  C   UNL     1      -6.987   3.704   2.303  0.00  0.00    +0.037 A 
ATOM     26  C   UNL     1      -7.848   2.927   1.538  0.00  0.00    +0.027 A 
ENDBRANCH  14  25
ENDBRANCH   1  16
BRANCH   9  27
ATOM     27  N   UNL     1       3.720  -0.746   0.088  0.00  0.00    +0.056 N 
ATOM     28  O   UNL     1       3.704  -1.964   0.093  0.00  0.00    -0.126 OA
ATOM     29  O   UNL     1       4.783  -0.151   0.084  0.00  0.00    -0.126 OA
ENDBRANCH   9  27
TORSDOF 3
