REMARK  Name = ZINC13719217
REMARK  14 active torsions:
REMARK  status: ('A' for Active; 'I' for Inactive)
REMARK    1  A    between atoms: C_1  and  N_2
REMARK    2  A    between atoms: C_6  and  C_13
REMARK    3  A    between atoms: N_9  and  C_12
REMARK    4  A    between atoms: C_13  and  C_15
REMARK    5  A    between atoms: C_13  and  O_34
REMARK    6  A    between atoms: C_15  and  O_16
REMARK    7  A    between atoms: O_16  and  C_17
REMARK    8  A    between atoms: C_20  and  C_23
REMARK    9  A    between atoms: C_23  and  N_64
REMARK   10  A    between atoms: C_24  and  C_25
REMARK   11  A    between atoms: C_24  and  N_64
REMARK   12  A    between atoms: C_25  and  C_26
REMARK   13  A    between atoms: C_31  and  O_32
REMARK   14  A    between atoms: O_32  and  C_33
REMARK                            x       y       z     vdW  Elec       q    Type
REMARK                         _______ _______ _______ _____ _____    ______ ____
ROOT
ATOM      1  C   UNL     1      -4.738  -0.118  -0.996  0.00  0.00    +0.121 A 
ATOM      2  C   UNL     1      -4.460   1.071  -0.337  0.00  0.00    +0.046 A 
ATOM      3  C   UNL     1      -3.185   1.601  -0.379  0.00  0.00    +0.005 A 
ATOM      4  C   UNL     1      -2.186   0.947  -1.076  0.00  0.00    -0.064 A 
ATOM      5  C   UNL     1      -2.462  -0.235  -1.739  0.00  0.00    +0.005 A 
ATOM      6  C   UNL     1      -3.734  -0.772  -1.696  0.00  0.00    +0.046 A 
ENDROOT
BRANCH   1   7
ATOM      7  O   UNL     1      -5.991  -0.641  -0.957  0.00  0.00    -0.489 OA
BRANCH   7   8
ATOM      8  C   UNL     1      -6.205  -1.868  -1.658  0.00  0.00    +0.265 C 
BRANCH   8   9
ATOM      9  C   UNL     1      -7.665  -2.298  -1.501  0.00  0.00    +0.182 C 
BRANCH   9  15
ATOM     10  C   UNL     1      -8.579  -8.060  -4.934  0.00  0.00    +0.154 C 
ATOM     11  N   UNL     1      -8.384  -7.484  -3.601  0.00  0.00    -0.295 N 
ATOM     12  C   UNL     1      -8.223  -6.130  -3.313  0.00  0.00    +0.070 A 
ATOM     13  C   UNL     1      -8.195  -4.988  -4.098  0.00  0.00    +0.028 A 
ATOM     14  C   UNL     1      -8.020  -3.752  -3.507  0.00  0.00    +0.008 A 
ATOM     15  C   UNL     1      -7.861  -3.651  -2.135  0.00  0.00    -0.014 A 
ATOM     16  C   UNL     1      -7.888  -4.783  -1.345  0.00  0.00    +0.034 A 
ATOM     17  C   UNL     1      -8.069  -6.028  -1.930  0.00  0.00    +0.070 A 
ATOM     18  N   UNL     1      -8.140  -7.322  -1.419  0.00  0.00    -0.295 N 
ATOM     19  C   UNL     1      -8.330  -8.172  -2.446  0.00  0.00    +0.330 A 
ATOM     20  O   UNL     1      -8.436  -9.380  -2.344  0.00  0.00    -0.246 OA
ATOM     21  C   UNL     1      -8.028  -7.694  -0.007  0.00  0.00    +0.154 C 
ENDBRANCH   9  15
BRANCH   9  22
ATOM     22  O   UNL     1      -8.514  -1.344  -2.141  0.00  0.00    -0.384 OA
ATOM     23  H   UNL     1      -8.348  -1.241  -3.088  0.00  0.00    +0.210 HD
ENDBRANCH   9  22
ENDBRANCH   8   9
ENDBRANCH   7   8
ENDBRANCH   1   7
BRANCH   4  24
ATOM     24  C   UNL     1      -0.795   1.527  -1.120  0.00  0.00    -0.047 C 
BRANCH  24  25
ATOM     25  N   UNL     1      -0.015   0.998   0.015  0.00  0.00    +0.382 N 
ATOM     26  H   UNL     1       0.032  -0.025  -0.054  0.00  0.00    -0.085 HD
ATOM     27  H   UNL     1      -0.475   1.261   0.894  0.00  0.00    -0.085 HD
BRANCH  25  28
ATOM     28  C   UNL     1       1.353   1.550  -0.003  0.00  0.00    -0.077 C 
BRANCH  28  29
ATOM     29  C   UNL     1       2.136   0.985   1.184  0.00  0.00    +0.020 C 
BRANCH  29  30
ATOM     30  C   UNL     1       3.536   1.544   1.173  0.00  0.00    -0.007 A 
ATOM     31  C   UNL     1       4.562   0.829   0.586  0.00  0.00    +0.007 A 
ATOM     32  C   UNL     1       5.845   1.343   0.572  0.00  0.00    +0.000 A 
ATOM     33  C   UNL     1       6.107   2.570   1.155  0.00  0.00    +0.004 A 
ATOM     34  C   UNL     1       5.086   3.286   1.748  0.00  0.00    +0.046 A 
ATOM     35  C   UNL     1       3.796   2.774   1.759  0.00  0.00    +0.123 A 
BRANCH  35  36
ATOM     36  O   UNL     1       2.790   3.477   2.342  0.00  0.00    -0.495 OA
ATOM     37  C   UNL     1       3.131   4.736   2.925  0.00  0.00    +0.277 C 
ENDBRANCH  35  36
ENDBRANCH  29  30
ENDBRANCH  28  29
ENDBRANCH  25  28
ENDBRANCH  24  25
ENDBRANCH   4  24
TORSDOF 11
