REMARK  Name = ZINC46010541
REMARK  5 active torsions:
REMARK  status: ('A' for Active; 'I' for Inactive)
REMARK    1  A    between atoms: C_1  and  C_2
REMARK    2  A    between atoms: C_2  and  C_3
REMARK    3  A    between atoms: C_2  and  N_4
REMARK    4  A    between atoms: C_8  and  N_14
REMARK    5  A    between atoms: N_17  and  C_18
REMARK                            x       y       z     vdW  Elec       q    Type
REMARK                         _______ _______ _______ _____ _____    ______ ____
ROOT
ATOM      1  N   UNL     1      -0.845  -1.159   0.088  0.00  0.00    -0.272 N 
ATOM      2  C   UNL     1      -1.549  -1.839  -0.909  0.00  0.00    +0.091 A 
ATOM      3  C   UNL     1      -1.204  -2.302  -2.169  0.00  0.00    +0.031 A 
ATOM      4  C   UNL     1      -2.142  -2.955  -2.943  0.00  0.00    +0.025 A 
ATOM      5  C   UNL     1      -3.431  -3.149  -2.461  0.00  0.00    +0.038 A 
ATOM      6  C   UNL     1      -3.781  -2.687  -1.201  0.00  0.00    +0.072 A 
ATOM      7  C   UNL     1      -2.841  -2.031  -0.421  0.00  0.00    +0.159 A 
ATOM      8  O   UNL     1      -2.891  -1.483   0.817  0.00  0.00    -0.407 OA
ATOM      9  C   UNL     1      -1.689  -0.966   1.120  0.00  0.00    +0.421 A 
ATOM     10  O   UNL     1      -1.408  -0.407   2.163  0.00  0.00    -0.223 OA
ENDROOT
BRANCH   5  11
ATOM     11  N   UNL     1      -4.380  -3.812  -3.251  0.00  0.00    -0.269 N 
ATOM     12  C   UNL     1      -5.290  -4.621  -2.673  0.00  0.00    +0.308 C 
ATOM     13  O   UNL     1      -5.342  -4.710  -1.462  0.00  0.00    -0.252 OA
ATOM     14  N   UNL     1      -6.142  -5.331  -3.439  0.00  0.00    -0.269 N 
ATOM     15  H   UNL     1      -4.382  -3.688  -4.213  0.00  0.00    +0.156 HD
ATOM     16  H   UNL     1      -6.053  -5.318  -4.404  0.00  0.00    +0.156 HD
BRANCH  14  17
ATOM     17  C   UNL     1      -7.156  -6.087  -2.840  0.00  0.00    +0.036 A 
ATOM     18  C   UNL     1      -7.756  -5.644  -1.669  0.00  0.00    +0.023 A 
ATOM     19  C   UNL     1      -8.756  -6.392  -1.080  0.00  0.00    +0.003 A 
ATOM     20  C   UNL     1      -9.161  -7.582  -1.655  0.00  0.00    +0.015 A 
ATOM     21  C   UNL     1      -8.565  -8.028  -2.822  0.00  0.00    +0.020 A 
ATOM     22  C   UNL     1      -7.568  -7.280  -3.419  0.00  0.00    +0.038 A 
ATOM     23 BR   UNL     1      -9.121  -9.657  -3.604  0.00  0.00    -0.050 Br
ENDBRANCH  14  17
ENDBRANCH   5  11
BRANCH   1  25
ATOM     24  C   UNL     1       0.642   0.781   0.174  0.00  0.00    +0.031 C 
ATOM     25  C   UNL     1       0.558  -0.740   0.025  0.00  0.00    +0.088 C 
ATOM     26  C   UNL     1       1.341  -1.407   1.158  0.00  0.00    +0.031 C 
ENDBRANCH   1  25
TORSDOF 3
