REMARK  Name = ZINC64156046
REMARK  8 active torsions:
REMARK  status: ('A' for Active; 'I' for Inactive)
REMARK    1  A    between atoms: C_1  and  C_2
REMARK    2  A    between atoms: C_3  and  C_9
REMARK    3  A    between atoms: C_4  and  N_8
REMARK    4  A    between atoms: C_9  and  O_11
REMARK    5  A    between atoms: O_11  and  C_12
REMARK    6  A    between atoms: C_12  and  C_14
REMARK    7  A    between atoms: C_12  and  C_20
REMARK    8  A    between atoms: C_20  and  C_22
REMARK                            x       y       z     vdW  Elec       q    Type
REMARK                         _______ _______ _______ _____ _____    ______ ____
ROOT
ATOM      1  C   UNL     1      -4.778  -0.722   0.023  0.00  0.00    +0.277 C 
ENDROOT
BRANCH   1   2
ATOM      2  C   UNL     1      -5.239  -0.548   1.447  0.00  0.00    +0.000 A 
ATOM      3  C   UNL     1      -4.831  -1.442   2.419  0.00  0.00    +0.008 A 
ATOM      4  C   UNL     1      -5.253  -1.282   3.726  0.00  0.00    +0.000 A 
ATOM      5  C   UNL     1      -6.084  -0.228   4.060  0.00  0.00    +0.000 A 
ATOM      6  C   UNL     1      -6.491   0.666   3.087  0.00  0.00    +0.000 A 
ATOM      7  C   UNL     1      -6.065   0.508   1.782  0.00  0.00    +0.008 A 
ENDBRANCH   1   2
BRANCH   1   8
ATOM      8  C   UNL     1      -5.696  -1.683  -0.688  0.00  0.00    +0.206 C 
ATOM      9  O   UNL     1      -5.365  -2.842  -0.836  0.00  0.00    -0.288 OA
BRANCH   8  10
ATOM     10  C   UNL     1      -6.939  -1.236  -1.183  0.00  0.00    +0.027 C 
ATOM     11  C   UNL     1      -7.893  -1.985  -1.848  0.00  0.00    +0.006 A 
ATOM     12  C   UNL     1      -7.952  -3.345  -2.234  0.00  0.00    +0.010 A 
ATOM     13  C   UNL     1      -9.033  -3.821  -2.891  0.00  0.00    +0.001 A 
ATOM     14  C   UNL     1     -10.133  -3.011  -3.219  0.00  0.00    +0.002 A 
ATOM     15  C   UNL     1     -10.176  -1.701  -2.896  0.00  0.00    +0.026 A 
ATOM     16  C   UNL     1      -9.039  -1.102  -2.179  0.00  0.00    +0.043 A 
ATOM     17  N   UNL     1      -8.819   0.109  -1.753  0.00  0.00    -0.380 N 
ATOM     18  C   UNL     1      -7.512   0.161  -1.090  0.00  0.00    +0.152 C 
ATOM     19  H   UNL     1      -9.427   0.858  -1.854  0.00  0.00    +0.160 HD
ENDBRANCH   8  10
ENDBRANCH   1   8
BRANCH   1  20
ATOM     20  O   UNL     1      -3.446  -1.240   0.013  0.00  0.00    -0.445 OA
BRANCH  20  21
ATOM     21  C   UNL     1      -2.439  -0.341   0.013  0.00  0.00    +0.342 C 
ATOM     22  O   UNL     1      -2.687   0.851   0.020  0.00  0.00    -0.245 OA
BRANCH  21  25
ATOM     23  C   UNL     1      -0.018   1.503   0.010  0.00  0.00    +0.066 C 
ATOM     24  C   UNL     1       0.002  -0.004   0.002  0.00  0.00    +0.050 C 
ATOM     25  C   UNL     1      -1.098  -0.783   0.003  0.00  0.00    +0.102 C 
ATOM     26  C   UNL     1      -0.625  -2.219  -0.007  0.00  0.00    +0.253 C 
ATOM     27  O   UNL     1       0.807  -2.136  -0.013  0.00  0.00    -0.251 OA
ATOM     28  N   UNL     1       1.132  -0.759  -0.013  0.00  0.00    -0.268 N 
ATOM     29  H   UNL     1       2.034  -0.403  -0.021  0.00  0.00    +0.194 HD
BRANCH  26  30
ATOM     30  N   UNL     1      -1.105  -2.907  -1.214  0.00  0.00    -0.300 NA
ATOM     31  H   UNL     1      -0.795  -3.867  -1.230  0.00  0.00    +0.121 HD
ATOM     32  H   UNL     1      -2.110  -2.850  -1.287  0.00  0.00    +0.121 HD
ENDBRANCH  26  30
ENDBRANCH  21  25
ENDBRANCH  20  21
ENDBRANCH   1  20
TORSDOF 7
