REMARK  Name = ZINC11835003
REMARK  6 active torsions:
REMARK  status: ('A' for Active; 'I' for Inactive)
REMARK    1  A    between atoms: C_1  and  S_2
REMARK    2  A    between atoms: S_2  and  C_5
REMARK    3  A    between atoms: C_15  and  C_17
REMARK    4  A    between atoms: C_17  and  C_18
REMARK    5  A    between atoms: C_18  and  C_19
REMARK    6  A    between atoms: C_25  and  C_27
REMARK                            x       y       z     vdW  Elec       q    Type
REMARK                         _______ _______ _______ _____ _____    ______ ____
ROOT
ATOM      1  C   UNL     1      -2.303 -15.530  -1.998  0.00  0.00    +0.089 A 
ATOM      2  C   UNL     1      -3.038 -15.089  -0.906  0.00  0.00    +0.029 A 
ATOM      3  C   UNL     1      -3.182 -13.754  -0.632  0.00  0.00    +0.031 A 
ATOM      4  C   UNL     1      -2.581 -12.777  -1.460  0.00  0.00    +0.080 A 
ATOM      5  C   UNL     1      -1.841 -13.263  -2.562  0.00  0.00    +0.043 A 
ATOM      6  C   UNL     1      -1.702 -14.602  -2.829  0.00  0.00    +0.044 A 
ATOM      7  S   UNL     1      -1.275 -11.763  -3.327  0.00  0.00    -0.052 S 
ATOM      8  C   UNL     1      -2.022 -10.624  -2.170  0.00  0.00    +0.165 A 
ATOM      9  N   UNL     1      -2.625 -11.434  -1.331  0.00  0.00    -0.225 NA
ATOM     10  N   UNL     1      -1.980  -9.240  -2.163  0.00  0.00    -0.265 N 
ATOM     11  C   UNL     1      -2.619  -8.551  -1.197  0.00  0.00    +0.219 C 
ATOM     12  O   UNL     1      -3.231  -9.143  -0.334  0.00  0.00    -0.275 OA
ATOM     13  H   UNL     1      -1.491  -8.766  -2.854  0.00  0.00    +0.157 HD
ENDROOT
BRANCH   1  15
ATOM     14  C   UNL     1      -0.650 -17.759  -1.417  0.00  0.00    +0.200 C 
ATOM     15  S   UNL     1      -2.139 -17.254  -2.323  0.00  0.00    -0.006 S 
ATOM     16  O   UNL     1      -3.291 -17.845  -1.738  0.00  0.00    -0.170 OA
ATOM     17  O   UNL     1      -1.913 -17.339  -3.723  0.00  0.00    -0.170 OA
ENDBRANCH   1  15
BRANCH  11  18
ATOM     18  C   UNL     1      -2.574  -7.045  -1.190  0.00  0.00    +0.102 C 
BRANCH  18  19
ATOM     19  C   UNL     1      -3.374  -6.516   0.002  0.00  0.00    +0.065 C 
BRANCH  19  20
ATOM     20  C   UNL     1      -3.328  -5.010   0.009  0.00  0.00    +0.051 A 
ATOM     21  C   UNL     1      -4.471  -4.281   0.024  0.00  0.00    +0.071 A 
ATOM     22  S   UNL     1      -3.808  -2.622   0.026  0.00  0.00    -0.060 S 
ATOM     23  C   UNL     1      -2.126  -3.051   0.007  0.00  0.00    +0.165 A 
ATOM     24  N   UNL     1      -2.175  -4.369  -0.005  0.00  0.00    -0.230 NA
ATOM     25  N   UNL     1      -1.013  -2.220   0.001  0.00  0.00    -0.258 N 
ATOM     26  C   UNL     1      -1.172  -0.882   0.009  0.00  0.00    +0.285 C 
ATOM     27  O   UNL     1      -2.291  -0.402   0.023  0.00  0.00    -0.266 OA
ATOM     28  H   UNL     1      -0.122  -2.603  -0.011  0.00  0.00    +0.157 HD
BRANCH  26  29
ATOM     29  C   UNL     1       0.002  -0.004   0.002  0.00  0.00    +0.189 A 
ATOM     30  C   UNL     1      -0.016   1.362   0.009  0.00  0.00    +0.054 A 
ATOM     31  C   UNL     1       1.322   1.783  -0.001  0.00  0.00    +0.042 A 
ATOM     32  C   UNL     1       2.090   0.671  -0.014  0.00  0.00    +0.196 A 
ATOM     33  O   UNL     1       1.290  -0.404  -0.012  0.00  0.00    -0.458 OA
ENDBRANCH  26  29
ENDBRANCH  19  20
ENDBRANCH  18  19
ENDBRANCH  11  18
TORSDOF 5
