REMARK  Name = ZINC63952552
REMARK  7 active torsions:
REMARK  status: ('A' for Active; 'I' for Inactive)
REMARK    1  A    between atoms: C_1  and  C_2
REMARK    2  A    between atoms: C_5  and  C_8
REMARK    3  A    between atoms: N_16  and  C_17
REMARK    4  A    between atoms: C_17  and  C_18
REMARK    5  A    between atoms: C_18  and  C_19
REMARK    6  A    between atoms: C_23  and  O_28
REMARK    7  A    between atoms: O_28  and  C_29
REMARK                            x       y       z     vdW  Elec       q    Type
REMARK                         _______ _______ _______ _____ _____    ______ ____
ROOT
ATOM      1  C   UNL     1       0.059  -4.275  -0.021  0.00  0.00    +0.243 C 
ATOM      2  C   UNL     1      -1.367  -4.764   0.149  0.00  0.00    +0.270 C 
ATOM      3  O   UNL     1      -2.245  -4.451  -0.629  0.00  0.00    -0.271 OA
ATOM      4  N   UNL     1      -1.610  -5.561   1.202  0.00  0.00    -0.146 NA
ATOM      5  C   UNL     1      -0.641  -5.885   2.030  0.00  0.00    +0.201 C 
ATOM      6  N   UNL     1       0.647  -5.462   1.902  0.00  0.00    -0.254 N 
ATOM      7  N   UNL     1       1.034  -4.724   0.988  0.00  0.00    -0.192 NA
ATOM      8  N   UNL     1      -0.945  -6.697   3.082  0.00  0.00    -0.315 N 
ATOM      9  H   UNL     1      -0.254  -6.955   3.711  0.00  0.00    +0.149 HD
ATOM     10  H   UNL     1       1.294  -5.754   2.563  0.00  0.00    +0.191 HD
ENDROOT
BRANCH   1  15
ATOM     11  C   UNL     1      -0.018   1.503   0.010  0.00  0.00    +0.044 C 
ATOM     12  C   UNL     1       0.002  -0.004   0.002  0.00  0.00    -0.050 A 
ATOM     13  C   UNL     1       0.006  -0.689  -1.199  0.00  0.00    +0.004 A 
ATOM     14  C   UNL     1       0.025  -2.071  -1.206  0.00  0.00    +0.006 A 
ATOM     15  C   UNL     1       0.040  -2.768  -0.013  0.00  0.00    -0.013 A 
ATOM     16  C   UNL     1       0.037  -2.084   1.188  0.00  0.00    +0.006 A 
ATOM     17  C   UNL     1       0.023  -0.702   1.195  0.00  0.00    +0.004 A 
ENDBRANCH   1  15
BRANCH   8  18
ATOM     18  C   UNL     1      -2.317  -7.178   3.263  0.00  0.00    +0.108 C 
BRANCH  18  19
ATOM     19  C   UNL     1      -2.387  -8.063   4.509  0.00  0.00    +0.052 C 
BRANCH  19  20
ATOM     20  C   UNL     1      -3.798  -8.559   4.695  0.00  0.00    -0.040 C 
ATOM     21  C   UNL     1      -4.305  -9.739   4.276  0.00  0.00    -0.001 A 
ATOM     22  C   UNL     1      -3.716 -10.871   3.549  0.00  0.00    +0.013 A 
ATOM     23  C   UNL     1      -4.489 -11.941   3.263  0.00  0.00    +0.046 A 
ATOM     24  C   UNL     1      -5.843 -11.997   3.644  0.00  0.00    +0.122 A 
ATOM     25  C   UNL     1      -6.453 -10.989   4.318  0.00  0.00    +0.071 A 
ATOM     26  C   UNL     1      -5.731  -9.821   4.667  0.00  0.00    +0.046 A 
ATOM     27  N   UNL     1      -6.090  -8.730   5.304  0.00  0.00    -0.380 N 
ATOM     28  C   UNL     1      -4.929  -7.838   5.394  0.00  0.00    +0.144 C 
ATOM     29  H   UNL     1      -6.974  -8.547   5.660  0.00  0.00    +0.160 HD
BRANCH  24  30
ATOM     30  O   UNL     1      -6.565 -13.100   3.326  0.00  0.00    -0.495 OA
ATOM     31  C   UNL     1      -5.885 -14.138   2.617  0.00  0.00    +0.277 C 
ENDBRANCH  24  30
ENDBRANCH  19  20
ENDBRANCH  18  19
ENDBRANCH   8  18
TORSDOF 5
