REMARK  Name = ZINC39710962
REMARK  9 active torsions:
REMARK  status: ('A' for Active; 'I' for Inactive)
REMARK    1  A    between atoms: C_1  and  C_2
REMARK    2  A    between atoms: C_8  and  C_14
REMARK    3  A    between atoms: C_14  and  C_16
REMARK    4  A    between atoms: C_14  and  N_27
REMARK    5  A    between atoms: N_21  and  C_22
REMARK    6  A    between atoms: N_27  and  C_28
REMARK    7  A    between atoms: N_27  and  C_34
REMARK    8  A    between atoms: C_28  and  C_29
REMARK    9  A    between atoms: C_34  and  C_35
REMARK                            x       y       z     vdW  Elec       q    Type
REMARK                         _______ _______ _______ _____ _____    ______ ____
ROOT
ATOM      1  C   UNL     1       1.109  -1.695   4.755  0.00  0.00    -0.009 C 
ENDROOT
BRANCH   1   9
ATOM      2  C   UNL     1       0.001   3.781   2.213  0.00  0.00    +0.045 C 
ATOM      3  C   UNL     1      -0.140   2.382   1.670  0.00  0.00    -0.029 A 
ATOM      4  C   UNL     1      -0.272   2.189   0.332  0.00  0.00    +0.005 A 
ATOM      5  C   UNL     1      -0.406   0.922  -0.236  0.00  0.00    +0.001 A 
ATOM      6  C   UNL     1      -0.412  -0.199   0.530  0.00  0.00    +0.009 A 
ATOM      7  C   UNL     1      -0.274  -0.064   1.980  0.00  0.00    -0.007 A 
ATOM      8  C   UNL     1      -0.274  -1.161   2.789  0.00  0.00    -0.006 C 
ATOM      9  C   UNL     1      -0.126  -0.927   4.279  0.00  0.00    +0.088 C 
ATOM     10  C   UNL     1       0.010   0.505   4.747  0.00  0.00    +0.223 C 
ATOM     11  O   UNL     1       0.133   0.750   5.933  0.00  0.00    -0.275 OA
ATOM     12  N   UNL     1      -0.004   1.488   3.864  0.00  0.00    -0.284 N 
ATOM     13  C   UNL     1      -0.128   1.286   2.552  0.00  0.00    +0.043 A 
ATOM     14  H   UNL     1       0.085   2.399   4.185  0.00  0.00    +0.155 HD
ENDBRANCH   1   9
BRANCH   1  15
ATOM     15  C   UNL     1       0.892  -3.194   4.539  0.00  0.00    +0.205 C 
ATOM     16  N   UNL     1       2.061  -3.953   5.003  0.00  0.00    -0.152 NA
ATOM     17  N   UNL     1       2.545  -4.564   4.048  0.00  0.00    -0.070 NA
ATOM     18  N   UNL     1       1.850  -4.349   2.858  0.00  0.00    -0.179 N 
ATOM     19  N   UNL     1       0.798  -3.499   3.096  0.00  0.00    -0.185 NA
ATOM     20  H   UNL     1       2.073  -4.740   1.999  0.00  0.00    +0.191 HD
BRANCH  19  21
ATOM     21  C   UNL     1      -0.484  -4.140   2.776  0.00  0.00    +0.080 C 
ATOM     22  C   UNL     1      -0.595  -5.494   3.508  0.00  0.00    +0.021 C 
ATOM     23  C   UNL     1      -1.319  -6.415   2.495  0.00  0.00    +0.002 C 
ATOM     24  C   UNL     1      -0.711  -5.977   1.139  0.00  0.00    +0.002 C 
ATOM     25  C   UNL     1      -0.558  -4.448   1.270  0.00  0.00    +0.021 C 
ENDBRANCH  19  21
ENDBRANCH   1  15
BRANCH   1  26
ATOM     26  N   UNL     1       1.329  -1.432   6.183  0.00  0.00    +0.389 N 
ATOM     27  H   UNL     1       1.118  -0.466   6.384  0.00  0.00    -0.081 HD
BRANCH  26  28
ATOM     28  C   UNL     1       0.454  -2.301   6.981  0.00  0.00    -0.035 C 
BRANCH  28  29
ATOM     29  C   UNL     1      -0.983  -1.899   6.767  0.00  0.00    -0.027 A 
ATOM     30  C   UNL     1      -1.945  -2.521   6.042  0.00  0.00    +0.009 A 
ATOM     31  C   UNL     1      -3.208  -1.964   5.988  0.00  0.00    +0.008 A 
ATOM     32  C   UNL     1      -3.449  -0.812   6.661  0.00  0.00    +0.045 A 
ATOM     33  S   UNL     1      -1.862  -0.484   7.410  0.00  0.00    -0.103 S 
ENDBRANCH  28  29
ENDBRANCH  26  28
BRANCH  26  34
ATOM     34  C   UNL     1       2.732  -1.708   6.522  0.00  0.00    -0.046 C 
BRANCH  34  35
ATOM     35  C   UNL     1       3.636  -0.699   5.809  0.00  0.00    +0.102 C 
ATOM     36  C   UNL     1       5.109  -0.955   6.192  0.00  0.00    +0.032 C 
ATOM     37  C   UNL     1       5.670   0.487   6.326  0.00  0.00    +0.030 C 
ATOM     38  C   UNL     1       4.431   1.234   6.882  0.00  0.00    +0.160 C 
ATOM     39  O   UNL     1       3.303   0.630   6.226  0.00  0.00    -0.378 OA
ENDBRANCH  34  35
ENDBRANCH  26  34
ENDBRANCH   1  26
TORSDOF 8
