REMARK  Name = ZINC13194929
REMARK  13 active torsions:
REMARK  status: ('A' for Active; 'I' for Inactive)
REMARK    1  A    between atoms: C_1  and  C_2
REMARK    2  A    between atoms: C_2  and  O_3
REMARK    3  A    between atoms: O_3  and  C_4
REMARK    4  A    between atoms: C_7  and  C_10
REMARK    5  A    between atoms: C_13  and  S_18
REMARK    6  A    between atoms: N_14  and  C_15
REMARK    7  A    between atoms: C_15  and  C_16
REMARK    8  A    between atoms: S_18  and  C_19
REMARK    9  A    between atoms: C_19  and  C_20
REMARK   10  A    between atoms: N_22  and  C_23
REMARK   11  A    between atoms: C_28  and  C_29
REMARK   12  A    between atoms: C_29  and  C_30
REMARK   13  A    between atoms: C_29  and  C_31
REMARK                            x       y       z     vdW  Elec       q    Type
REMARK                         _______ _______ _______ _____ _____    ______ ____
ROOT
ATOM      1  C   UNL     1      -2.003   1.046   2.032  0.00  0.00    +0.165 A 
ATOM      2  N   UNL     1      -2.325   1.890   2.984  0.00  0.00    -0.128 NA
ATOM      3  N   UNL     1      -1.466   2.845   3.034  0.00  0.00    -0.122 NA
ATOM      4  C   UNL     1      -0.539   2.666   2.119  0.00  0.00    +0.193 A 
ATOM      5  N   UNL     1      -0.851   1.518   1.446  0.00  0.00    -0.291 N 
ENDROOT
BRANCH   1   9
ATOM      6  C   UNL     1      -4.118  -2.481   0.961  0.00  0.00    +0.121 A 
ATOM      7  C   UNL     1      -4.357  -1.875   2.188  0.00  0.00    +0.046 A 
ATOM      8  C   UNL     1      -3.674  -0.731   2.539  0.00  0.00    +0.015 A 
ATOM      9  C   UNL     1      -2.739  -0.181   1.659  0.00  0.00    +0.020 A 
ATOM     10  C   UNL     1      -2.505  -0.789   0.425  0.00  0.00    +0.015 A 
ATOM     11  C   UNL     1      -3.189  -1.937   0.084  0.00  0.00    +0.046 A 
BRANCH   6  12
ATOM     12  O   UNL     1      -4.794  -3.608   0.619  0.00  0.00    -0.492 OA
BRANCH  12  14
ATOM     13  C   UNL     1      -5.351  -5.433  -0.864  0.00  0.00    +0.048 C 
ATOM     14  C   UNL     1      -4.498  -4.180  -0.657  0.00  0.00    +0.225 C 
ENDBRANCH  12  14
ENDBRANCH   6  12
ENDBRANCH   1   9
BRANCH   5  15
ATOM     15  C   UNL     1      -0.110   0.914   0.336  0.00  0.00    +0.250 C 
BRANCH  15  16
ATOM     16  C   UNL     1      -0.713   1.359  -0.971  0.00  0.00    +0.375 C 
ATOM     17  O   UNL     1      -1.664   2.104  -0.976  0.00  0.00    -0.244 OA
ATOM     18  O   UNL     1      -0.193   0.926  -2.131  0.00  0.00    -0.244 OA
ENDBRANCH  15  16
ENDBRANCH   5  15
BRANCH   4  19
ATOM     19  S   UNL     1       0.845   3.712   1.816  0.00  0.00    -0.077 S 
BRANCH  19  20
ATOM     20  C   UNL     1       0.565   4.978   3.079  0.00  0.00    +0.173 C 
BRANCH  20  21
ATOM     21  C   UNL     1       1.660   6.011   3.006  0.00  0.00    +0.227 C 
ATOM     22  O   UNL     1       2.542   5.902   2.181  0.00  0.00    -0.275 OA
ATOM     23  N   UNL     1       1.659   7.056   3.857  0.00  0.00    -0.285 N 
ATOM     24  H   UNL     1       0.998   7.104   4.566  0.00  0.00    +0.155 HD
BRANCH  23  25
ATOM     25  C   UNL     1       2.611   8.072   3.720  0.00  0.00    +0.037 A 
ATOM     26  C   UNL     1       3.205   8.306   2.486  0.00  0.00    +0.023 A 
ATOM     27  C   UNL     1       4.141   9.313   2.353  0.00  0.00    +0.002 A 
ATOM     28  C   UNL     1       4.494  10.081   3.448  0.00  0.00    +0.000 A 
ATOM     29  C   UNL     1       3.908   9.847   4.678  0.00  0.00    +0.006 A 
ATOM     30  C   UNL     1       2.968   8.844   4.817  0.00  0.00    -0.024 A 
BRANCH  30  31
ATOM     31  C   UNL     1       2.330   8.589   6.159  0.00  0.00    +0.015 C 
ATOM     32  C   UNL     1       3.421   8.348   7.204  0.00  0.00    +0.012 C 
ATOM     33  C   UNL     1       1.494   9.804   6.565  0.00  0.00    +0.012 C 
ENDBRANCH  30  31
ENDBRANCH  23  25
ENDBRANCH  20  21
ENDBRANCH  19  20
ENDBRANCH   4  19
TORSDOF 10
