REMARK  Name = ZINC10651012
REMARK  5 active torsions:
REMARK  status: ('A' for Active; 'I' for Inactive)
REMARK    1  A    between atoms: C_1  and  C_2
REMARK    2  A    between atoms: C_2  and  N_3
REMARK    3  A    between atoms: N_12  and  C_13
REMARK    4  A    between atoms: C_13  and  C_15
REMARK    5  A    between atoms: C_15  and  N_16
REMARK                            x       y       z     vdW  Elec       q    Type
REMARK                         _______ _______ _______ _____ _____    ______ ____
ROOT
ATOM      1  C   UNL     1       4.179  -0.940  -0.544  0.00  0.00    +0.257 C 
ATOM      2  O   UNL     1       4.534  -1.327  -1.641  0.00  0.00    -0.272 OA
ENDROOT
BRANCH   1  12
ATOM      3  N   UNL     1       0.685  -0.490  -1.198  0.00  0.00    -0.312 N 
ATOM      4  C   UNL     1       0.085  -0.760  -2.424  0.00  0.00    +0.068 A 
ATOM      5  C   UNL     1      -1.226  -0.689  -2.873  0.00  0.00    +0.028 A 
ATOM      6  C   UNL     1      -1.526  -1.030  -4.176  0.00  0.00    +0.002 A 
ATOM      7  C   UNL     1      -0.524  -1.443  -5.039  0.00  0.00    +0.002 A 
ATOM      8  C   UNL     1       0.783  -1.518  -4.602  0.00  0.00    +0.028 A 
ATOM      9  C   UNL     1       1.095  -1.177  -3.293  0.00  0.00    +0.066 A 
ATOM     10  N   UNL     1       2.288  -1.151  -2.578  0.00  0.00    -0.326 N 
ATOM     11  C   UNL     1       2.018  -0.727  -1.315  0.00  0.00    +0.201 A 
ATOM     12  N   UNL     1       2.916  -0.573  -0.346  0.00  0.00    -0.145 NA
ATOM     13  H   UNL     1       3.163  -1.391  -2.922  0.00  0.00    +0.169 HD
BRANCH   3  15
ATOM     14  C   UNL     1      -0.032   1.505   0.020  0.00  0.00    +0.027 C 
ATOM     15  C   UNL     1      -0.001  -0.024   0.009  0.00  0.00    +0.122 C 
ENDBRANCH   3  15
ENDBRANCH   1  12
BRANCH   1  16
ATOM     16  C   UNL     1       5.169  -0.876   0.590  0.00  0.00    +0.214 C 
BRANCH  16  17
ATOM     17  N   UNL     1       6.480  -1.329   0.119  0.00  0.00    -0.233 N 
ATOM     18  C   UNL     1       6.881  -2.626   0.165  0.00  0.00    +0.226 C 
ATOM     19  O   UNL     1       6.344  -3.533   0.765  0.00  0.00    -0.275 OA
ATOM     20  C   UNL     1       8.118  -2.713  -0.676  0.00  0.00    +0.091 C 
ATOM     21  C   UNL     1       9.207  -3.677  -0.253  0.00  0.00    +0.040 C 
ATOM     22  C   UNL     1      10.447  -3.314  -1.042  0.00  0.00    -0.030 C 
ATOM     23  C   UNL     1      10.629  -2.175  -1.640  0.00  0.00    -0.030 C 
ATOM     24  C   UNL     1       9.639  -1.030  -1.615  0.00  0.00    +0.040 C 
ATOM     25  C   UNL     1       8.689  -1.276  -0.471  0.00  0.00    +0.091 C 
ATOM     26  C   UNL     1       7.411  -0.494  -0.412  0.00  0.00    +0.226 C 
ATOM     27  O   UNL     1       7.242   0.654  -0.764  0.00  0.00    -0.275 OA
ENDBRANCH  16  17
ENDBRANCH   1  16
TORSDOF 4
