REMARK  Name = ZINC39587330
REMARK  4 active torsions:
REMARK  status: ('A' for Active; 'I' for Inactive)
REMARK    1  A    between atoms: C_2  and  C_9
REMARK    2  A    between atoms: C_9  and  O_11
REMARK    3  A    between atoms: O_11  and  C_12
REMARK    4  A    between atoms: C_12  and  C_13
REMARK                            x       y       z     vdW  Elec       q    Type
REMARK                         _______ _______ _______ _____ _____    ______ ____
ROOT
ATOM      1  O   UNL     1       2.430   4.180   0.001  0.00  0.00    -0.452 OA
ENDROOT
BRANCH   1   2
ATOM      2  C   UNL     1       1.246   3.536   0.009  0.00  0.00    +0.341 C 
ATOM      3  O   UNL     1       0.210   4.170   0.022  0.00  0.00    -0.245 OA
BRANCH   2   5
ATOM      4  C   UNL     1      -0.017   1.379   0.010  0.00  0.00    +0.039 A 
ATOM      5  C   UNL     1       1.208   2.060   0.002  0.00  0.00    +0.079 A 
ATOM      6  C   UNL     1       2.391   1.320  -0.014  0.00  0.00    +0.127 A 
ATOM      7  N   UNL     1       2.359   0.004  -0.021  0.00  0.00    -0.241 NA
ATOM      8  C   UNL     1       1.221  -0.666  -0.014  0.00  0.00    +0.147 A 
ATOM      9  C   UNL     1       0.002  -0.004   0.002  0.00  0.00    +0.078 A 
ATOM     10 CL   UNL     1      -1.484  -0.902   0.012  0.00  0.00    -0.080 Cl
ATOM     11 CL   UNL     1       1.251  -2.401  -0.024  0.00  0.00    -0.060 Cl
ENDBRANCH   2   5
ENDBRANCH   1   2
BRANCH   1  12
ATOM     12  C   UNL     1       2.392   5.608   0.008  0.00  0.00    +0.328 C 
BRANCH  12  13
ATOM     13  C   UNL     1       3.799   6.148  -0.002  0.00  0.00    +0.258 C 
ATOM     14  O   UNL     1       4.741   5.385  -0.015  0.00  0.00    -0.272 OA
ATOM     15  N   UNL     1       4.010   7.479   0.003  0.00  0.00    -0.238 N 
ATOM     16  C   UNL     1       5.268   7.962  -0.007  0.00  0.00    +0.303 C 
ATOM     17  O   UNL     1       6.212   7.197  -0.019  0.00  0.00    -0.253 OA
ATOM     18  N   UNL     1       5.479   9.293  -0.002  0.00  0.00    -0.313 N 
ATOM     19  H   UNL     1       3.256   8.090   0.013  0.00  0.00    +0.159 HD
ATOM     20  H   UNL     1       4.725   9.904   0.008  0.00  0.00    +0.146 HD
ATOM     21  H   UNL     1       6.384   9.641  -0.009  0.00  0.00    +0.146 HD
ENDBRANCH  12  13
ENDBRANCH   1  12
TORSDOF 4
