REMARK  Name = ZINC63917275
REMARK  7 active torsions:
REMARK  status: ('A' for Active; 'I' for Inactive)
REMARK    1  A    between atoms: C_7  and  C_10
REMARK    2  A    between atoms: C_16  and  C_18
REMARK    3  A    between atoms: C_18  and  N_19
REMARK    4  A    between atoms: N_19  and  C_20
REMARK    5  A    between atoms: N_19  and  C_27
REMARK    6  A    between atoms: C_20  and  C_21
REMARK    7  A    between atoms: C_27  and  C_28
REMARK                            x       y       z     vdW  Elec       q    Type
REMARK                         _______ _______ _______ _____ _____    ______ ____
ROOT
ATOM      1  C   UNL     1       0.416  -2.704  -0.639  0.00  0.00    +0.079 A 
ATOM      2  C   UNL     1       0.978  -3.972  -0.698  0.00  0.00    +0.076 A 
ATOM      3  S   UNL     1      -0.367  -4.973  -0.556  0.00  0.00    -0.060 S 
ATOM      4  C   UNL     1      -1.620  -3.711  -0.423  0.00  0.00    +0.165 A 
ATOM      5  N   UNL     1      -0.911  -2.605  -0.493  0.00  0.00    -0.225 NA
ATOM      6  N   UNL     1      -2.992  -3.858  -0.278  0.00  0.00    -0.266 N 
ATOM      7  C   UNL     1      -3.535  -5.090  -0.220  0.00  0.00    +0.202 C 
ATOM      8  O   UNL     1      -2.825  -6.070  -0.295  0.00  0.00    -0.277 OA
ATOM      9  H   UNL     1      -3.560  -3.074  -0.218  0.00  0.00    +0.157 HD
ENDROOT
BRANCH   1  16
ATOM     10  C   UNL     1      -0.590   1.721  -0.519  0.00  0.00    +0.001 A 
ATOM     11  C   UNL     1       0.526   2.553  -0.640  0.00  0.00    +0.002 A 
ATOM     12  C   UNL     1       1.779   2.054  -0.778  0.00  0.00    +0.026 A 
ATOM     13  C   UNL     1       1.981   0.650  -0.803  0.00  0.00    +0.043 A 
ATOM     14  N   UNL     1       3.078  -0.071  -0.925  0.00  0.00    -0.380 N 
ATOM     15  C   UNL     1       2.726  -1.494  -0.890  0.00  0.00    +0.151 C 
ATOM     16  C   UNL     1       1.223  -1.549  -0.725  0.00  0.00    +0.007 C 
ATOM     17  C   UNL     1       0.802  -0.223  -0.675  0.00  0.00    +0.005 A 
ATOM     18  C   UNL     1      -0.473   0.369  -0.535  0.00  0.00    +0.010 A 
ATOM     19  H   UNL     1       3.975   0.283  -1.023  0.00  0.00    +0.160 HD
ENDBRANCH   1  16
BRANCH   7  20
ATOM     20  C   UNL     1      -5.025  -5.250  -0.063  0.00  0.00    +0.019 C 
BRANCH  20  21
ATOM     21  N   UNL     1      -5.363  -6.679  -0.027  0.00  0.00    +0.388 N 
ATOM     22  H   UNL     1      -4.990  -7.134  -0.847  0.00  0.00    -0.081 HD
BRANCH  21  23
ATOM     23  C   UNL     1      -6.824  -6.836  -0.001  0.00  0.00    -0.046 C 
BRANCH  23  24
ATOM     24  C   UNL     1      -7.410  -6.376  -1.337  0.00  0.00    +0.102 C 
ATOM     25  C   UNL     1      -8.938  -6.630  -1.370  0.00  0.00    +0.032 C 
ATOM     26  C   UNL     1      -9.390  -5.570  -2.412  0.00  0.00    +0.030 C 
ATOM     27  C   UNL     1      -8.409  -4.409  -2.146  0.00  0.00    +0.160 C 
ATOM     28  O   UNL     1      -7.260  -4.955  -1.484  0.00  0.00    -0.378 OA
ENDBRANCH  23  24
ENDBRANCH  21  23
BRANCH  21  29
ATOM     29  C   UNL     1      -4.784  -7.289   1.177  0.00  0.00    -0.063 C 
BRANCH  29  30
ATOM     30  C   UNL     1      -5.004  -8.803   1.139  0.00  0.00    +0.038 C 
ATOM     31  C   UNL     1      -4.417  -9.495   2.397  0.00  0.00    +0.040 C 
ATOM     32  C   UNL     1      -3.784 -10.800   2.036  0.00  0.00    -0.019 C 
ATOM     33  C   UNL     1      -3.459 -11.048   0.782  0.00  0.00    +0.036 C 
ATOM     34  S   UNL     1      -3.954  -9.605  -0.145  0.00  0.00    -0.131 S 
ENDBRANCH  29  30
ENDBRANCH  21  29
ENDBRANCH  20  21
ENDBRANCH   7  20
TORSDOF 7
