REMARK  Name = ZINC07094579
REMARK  6 active torsions:
REMARK  status: ('A' for Active; 'I' for Inactive)
REMARK    1  A    between atoms: C_1  and  C_2
REMARK    2  A    between atoms: C_5  and  N_9
REMARK    3  A    between atoms: C_6  and  C_8
REMARK    4  A    between atoms: C_10  and  S_14
REMARK    5  A    between atoms: S_14  and  C_15
REMARK    6  A    between atoms: C_15  and  C_16
REMARK                            x       y       z     vdW  Elec       q    Type
REMARK                         _______ _______ _______ _____ _____    ______ ____
ROOT
ATOM      1  S   UNL     1       0.540  -4.671  -2.527  0.00  0.00    -0.076 S 
ENDROOT
BRANCH   1   3
ATOM      2  N   UNL     1       0.453  -4.131   0.209  0.00  0.00    -0.187 N 
ATOM      3  C   UNL     1       0.595  -5.024  -0.802  0.00  0.00    +0.214 A 
ATOM      4  N   UNL     1       0.781  -6.204  -0.251  0.00  0.00    -0.101 NA
ATOM      5  N   UNL     1       0.765  -6.110   1.030  0.00  0.00    -0.022 NA
ATOM      6  N   UNL     1       0.577  -4.886   1.388  0.00  0.00    -0.038 NA
BRANCH   2  11
ATOM      7  C   UNL     1      -0.428   1.459  -0.230  0.00  0.00    +0.044 C 
ATOM      8  C   UNL     1      -0.194  -0.025  -0.113  0.00  0.00    -0.050 A 
ATOM      9  C   UNL     1       0.799  -0.628  -0.863  0.00  0.00    +0.005 A 
ATOM     10  C   UNL     1       1.016  -1.988  -0.759  0.00  0.00    +0.028 A 
ATOM     11  C   UNL     1       0.236  -2.750   0.101  0.00  0.00    +0.073 A 
ATOM     12  C   UNL     1      -0.759  -2.141   0.853  0.00  0.00    -0.025 A 
ATOM     13  C   UNL     1      -0.968  -0.780   0.748  0.00  0.00    +0.008 A 
ATOM     14  C   UNL     1      -1.608  -2.965   1.788  0.00  0.00    +0.046 C 
ENDBRANCH   2  11
ENDBRANCH   1   3
BRANCH   1  15
ATOM     15  C   UNL     1       0.796  -6.286  -3.314  0.00  0.00    +0.151 C 
BRANCH  15  16
ATOM     16  C   UNL     1       0.771  -6.124  -4.812  0.00  0.00    +0.121 A 
ATOM     17  N   UNL     1       0.941  -7.231  -5.583  0.00  0.00    -0.310 N 
ATOM     18  H   UNL     1       1.073  -8.094  -5.161  0.00  0.00    +0.170 HD
ATOM     19  C   UNL     1       0.926  -7.139  -6.933  0.00  0.00    +0.259 A 
ATOM     20  O   UNL     1       1.076  -8.121  -7.635  0.00  0.00    -0.267 OA
ATOM     21  C   UNL     1       0.721  -5.806  -7.518  0.00  0.00    +0.066 A 
ATOM     22  C   UNL     1       0.690  -5.603  -8.897  0.00  0.00    +0.035 A 
ATOM     23  C   UNL     1       0.494  -4.331  -9.392  0.00  0.00    +0.042 A 
ATOM     24  C   UNL     1       0.330  -3.255  -8.528  0.00  0.00    +0.022 A 
ATOM     25  C   UNL     1       0.358  -3.434  -7.164  0.00  0.00    +0.030 A 
ATOM     26  C   UNL     1       0.553  -4.713  -6.638  0.00  0.00    +0.078 A 
ATOM     27  N   UNL     1       0.583  -4.936  -5.300  0.00  0.00    -0.233 NA
ATOM     28 CL   UNL     1       0.454  -4.072 -11.108  0.00  0.00    -0.084 Cl
ENDBRANCH  15  16
ENDBRANCH   1  15
TORSDOF 4
