REMARK  Name = ZINC23383996
REMARK  9 active torsions:
REMARK  status: ('A' for Active; 'I' for Inactive)
REMARK    1  A    between atoms: C_1  and  C_2
REMARK    2  A    between atoms: C_7  and  C_8
REMARK    3  A    between atoms: C_8  and  N_9
REMARK    4  A    between atoms: N_9  and  C_10
REMARK    5  A    between atoms: N_9  and  C_11
REMARK    6  A    between atoms: C_11  and  N_12
REMARK    7  A    between atoms: C_15  and  C_19
REMARK    8  A    between atoms: C_15  and  C_20
REMARK    9  A    between atoms: C_23  and  N_26
REMARK                            x       y       z     vdW  Elec       q    Type
REMARK                         _______ _______ _______ _____ _____    ______ ____
ROOT
ATOM      1  N   UNL     1       4.466   5.804  -2.285  0.00  0.00    -0.210 N 
ATOM      2  C   UNL     1       3.922   6.988  -2.628  0.00  0.00    +0.252 C 
ATOM      3  O   UNL     1       3.170   7.668  -1.964  0.00  0.00    -0.272 OA
ATOM      4  C   UNL     1       4.446   7.292  -4.018  0.00  0.00    +0.135 C 
ATOM      5  N   UNL     1       5.305   6.135  -4.325  0.00  0.00    -0.281 N 
ATOM      6  C   UNL     1       5.256   5.325  -3.252  0.00  0.00    +0.311 C 
ATOM      7  O   UNL     1       5.861   4.273  -3.173  0.00  0.00    -0.252 OA
ATOM      8  C   UNL     1       5.265   8.584  -4.013  0.00  0.00    +0.047 C 
ATOM      9  H   UNL     1       5.827   6.079  -5.292  0.00  0.00    +0.152 HD
ENDROOT
BRANCH   4  10
ATOM     10  C   UNL     1       3.310   7.386  -5.003  0.00  0.00    -0.015 A 
ATOM     11  C   UNL     1       2.064   7.812  -4.583  0.00  0.00    +0.008 A 
ATOM     12  C   UNL     1       1.023   7.903  -5.489  0.00  0.00    +0.033 A 
ATOM     13  C   UNL     1       1.226   7.557  -6.812  0.00  0.00    +0.126 A 
ATOM     14  C   UNL     1       2.470   7.126  -7.231  0.00  0.00    +0.033 A 
ATOM     15  C   UNL     1       3.513   7.040  -6.327  0.00  0.00    +0.008 A 
BRANCH  13  16
ATOM     16  N   UNL     1       0.110   7.649  -7.780  0.00  0.00    +0.056 N 
ATOM     17  O   UNL     1       0.288   7.344  -8.946  0.00  0.00    -0.126 OA
ATOM     18  O   UNL     1      -0.987   8.028  -7.411  0.00  0.00    -0.126 OA
ENDBRANCH  13  16
ENDBRANCH   4  10
BRANCH   1  19
ATOM     19  C   UNL     1       4.227   5.127  -1.008  0.00  0.00    +0.205 C 
BRANCH  19  20
ATOM     20  N   UNL     1       3.061   4.242  -1.133  0.00  0.00    -0.285 NA
ATOM     21  C   UNL     1       3.431   2.970  -1.767  0.00  0.00    +0.106 C 
BRANCH  20  22
ATOM     22  C   UNL     1       2.429   4.016   0.174  0.00  0.00    +0.121 C 
BRANCH  22  29
ATOM     23  C   UNL     1       0.259   5.744  -0.631  0.00  0.00    +0.044 C 
ATOM     24  C   UNL     1       0.010   4.274  -0.413  0.00  0.00    -0.046 A 
ATOM     25  C   UNL     1      -1.257   3.752  -0.598  0.00  0.00    +0.003 A 
ATOM     26  C   UNL     1      -1.486   2.404  -0.392  0.00  0.00    +0.000 A 
ATOM     27  C   UNL     1      -0.446   1.576  -0.013  0.00  0.00    +0.000 A 
ATOM     28  C   UNL     1       0.821   2.098   0.172  0.00  0.00    +0.005 A 
ATOM     29  C   UNL     1       1.048   3.447  -0.028  0.00  0.00    -0.030 A 
ENDBRANCH  22  29
ENDBRANCH  20  22
ENDBRANCH  19  20
ENDBRANCH   1  19
TORSDOF 6
