REMARK  Name = ZINC18203620
REMARK  4 active torsions:
REMARK  status: ('A' for Active; 'I' for Inactive)
REMARK    1  A    between atoms: C_1  and  C_2
REMARK    2  A    between atoms: C_2  and  C_4
REMARK    3  A    between atoms: C_2  and  N_13
REMARK    4  A    between atoms: C_14  and  C_16
REMARK                            x       y       z     vdW  Elec       q    Type
REMARK                         _______ _______ _______ _____ _____    ______ ____
ROOT
ATOM      1  N   UNL     1       0.711  -0.489   1.189  0.00  0.00    -0.302 N 
ATOM      2  C   UNL     1       2.054  -0.600   1.174  0.00  0.00    +0.246 C 
ATOM      3  O   UNL     1       2.678  -0.297   0.175  0.00  0.00    -0.270 OA
ATOM      4  H   UNL     1       0.213  -0.731   1.986  0.00  0.00    +0.150 HD
ENDROOT
BRANCH   2   5
ATOM      5  C   UNL     1       2.767  -1.088   2.368  0.00  0.00    +0.053 A 
ATOM      6  C   UNL     1       2.046  -1.448   3.532  0.00  0.00    +0.020 A 
ATOM      7  C   UNL     1       2.729  -1.896   4.620  0.00  0.00    +0.071 A 
ATOM      8  C   UNL     1       4.132  -1.991   4.565  0.00  0.00    +0.249 A 
ATOM      9  O   UNL     1       4.750  -2.392   5.538  0.00  0.00    -0.268 OA
ATOM     10  N   UNL     1       4.798  -1.644   3.449  0.00  0.00    -0.328 N 
ATOM     11  H   UNL     1       5.765  -1.716   3.427  0.00  0.00    +0.168 HD
ATOM     12  C   UNL     1       4.142  -1.203   2.359  0.00  0.00    +0.099 A 
ENDBRANCH   2   5
BRANCH   1  14
ATOM     13  C   UNL     1      -0.019   1.526   0.010  0.00  0.00    +0.036 C 
ATOM     14  C   UNL     1       0.002  -0.004   0.002  0.00  0.00    +0.136 C 
BRANCH  14  15
ATOM     15  C   UNL     1      -1.412  -0.526   0.013  0.00  0.00    +0.126 A 
ATOM     16  C   UNL     1      -2.074  -0.969  -1.064  0.00  0.00    +0.055 A 
ATOM     17  C   UNL     1      -3.402  -1.375  -0.590  0.00  0.00    +0.020 A 
ATOM     18  C   UNL     1      -4.536  -1.907  -1.202  0.00  0.00    +0.011 A 
ATOM     19  C   UNL     1      -5.646  -2.180  -0.453  0.00  0.00    +0.001 A 
ATOM     20  C   UNL     1      -5.651  -1.931   0.912  0.00  0.00    +0.004 A 
ATOM     21  C   UNL     1      -4.540  -1.404   1.535  0.00  0.00    +0.047 A 
ATOM     22  C   UNL     1      -3.401  -1.120   0.792  0.00  0.00    +0.135 A 
ATOM     23  O   UNL     1      -2.189  -0.619   1.105  0.00  0.00    -0.458 OA
ENDBRANCH  14  15
ENDBRANCH   1  14
TORSDOF 3
