REMARK  Name = ZINC64392206
REMARK  7 active torsions:
REMARK  status: ('A' for Active; 'I' for Inactive)
REMARK    1  A    between atoms: C_1  and  C_2
REMARK    2  A    between atoms: C_5  and  C_8
REMARK    3  A    between atoms: C_8  and  N_9
REMARK    4  A    between atoms: C_15  and  C_22
REMARK    5  A    between atoms: C_25  and  C_28
REMARK    6  A    between atoms: C_31  and  C_35
REMARK    7  A    between atoms: C_32  and  C_34
REMARK                            x       y       z     vdW  Elec       q    Type
REMARK                         _______ _______ _______ _____ _____    ______ ____
ROOT
ATOM      1  N   UNL     1       1.447  -4.746  -0.032  0.00  0.00    -0.256 N 
ATOM      2  C   UNL     1       2.069  -4.947  -1.214  0.00  0.00    +0.265 A 
ATOM      3  O   UNL     1       1.493  -4.742  -2.265  0.00  0.00    -0.267 OA
ATOM      4  C   UNL     1       3.465  -5.420  -1.196  0.00  0.00    +0.063 A 
ATOM      5  C   UNL     1       4.176  -5.650  -2.372  0.00  0.00    +0.016 A 
ATOM      6  C   UNL     1       5.480  -6.092  -2.301  0.00  0.00    +0.009 A 
ATOM      7  C   UNL     1       6.083  -6.307  -1.072  0.00  0.00    +0.006 A 
ATOM      8  C   UNL     1       5.390  -6.083   0.101  0.00  0.00    +0.034 A 
ATOM      9  C   UNL     1       4.078  -5.638   0.050  0.00  0.00    +0.056 A 
ATOM     10  N   UNL     1       3.346  -5.399   1.205  0.00  0.00    -0.307 N 
ATOM     11  H   UNL     1       3.756  -5.545   2.072  0.00  0.00    +0.170 HD
ATOM     12  C   UNL     1       2.077  -4.963   1.133  0.00  0.00    +0.330 A 
ATOM     13  O   UNL     1       1.471  -4.762   2.168  0.00  0.00    -0.246 OA
ENDROOT
BRANCH   7  14
ATOM     14  C   UNL     1       7.509  -6.791  -1.015  0.00  0.00    +0.274 C 
ATOM     15  N   UNL     1       8.249  -6.332  -2.196  0.00  0.00    -0.339 N 
ATOM     16  C   UNL     1       8.666  -7.370  -2.854  0.00  0.00    +0.134 C 
ATOM     17  N   UNL     1       8.286  -8.538  -2.242  0.00  0.00    -0.247 N 
ATOM     18  O   UNL     1       7.550  -8.226  -1.069  0.00  0.00    -0.243 OA
ATOM     19  H   UNL     1       8.488  -9.432  -2.560  0.00  0.00    +0.196 HD
ATOM     20  H   UNL     1       8.401  -5.407  -2.444  0.00  0.00    +0.164 HD
BRANCH  16  21
ATOM     21  C   UNL     1       9.453  -7.302  -4.107  0.00  0.00    +0.017 A 
ATOM     22  C   UNL     1      10.311  -6.227  -4.338  0.00  0.00    +0.012 A 
ATOM     23  C   UNL     1      11.041  -6.169  -5.507  0.00  0.00    +0.004 A 
ATOM     24  C   UNL     1      10.923  -7.175  -6.450  0.00  0.00    -0.047 A 
ATOM     25  C   UNL     1      10.073  -8.243  -6.228  0.00  0.00    -0.047 A 
ATOM     26  C   UNL     1       9.342  -8.315  -5.059  0.00  0.00    +0.015 A 
ATOM     27  C   UNL     1       9.949  -9.333  -7.260  0.00  0.00    +0.044 C 
ATOM     28  C   UNL     1      11.723  -7.106  -7.725  0.00  0.00    +0.044 C 
ENDBRANCH  16  21
ENDBRANCH   7  14
BRANCH   1  29
ATOM     29  C   UNL     1       0.059  -4.275  -0.021  0.00  0.00    +0.165 C 
BRANCH  29  34
ATOM     30  C   UNL     1      -0.018   1.503   0.010  0.00  0.00    +0.044 C 
ATOM     31  C   UNL     1       0.002  -0.004   0.002  0.00  0.00    -0.050 A 
ATOM     32  C   UNL     1       0.006  -0.689  -1.199  0.00  0.00    +0.004 A 
ATOM     33  C   UNL     1       0.025  -2.071  -1.206  0.00  0.00    +0.005 A 
ATOM     34  C   UNL     1       0.040  -2.768  -0.013  0.00  0.00    -0.027 A 
ATOM     35  C   UNL     1       0.037  -2.084   1.188  0.00  0.00    +0.005 A 
ATOM     36  C   UNL     1       0.023  -0.702   1.195  0.00  0.00    +0.004 A 
ENDBRANCH  29  34
ENDBRANCH   1  29
TORSDOF 4
