REMARK  Name = ZINC13185947
REMARK  8 active torsions:
REMARK  status: ('A' for Active; 'I' for Inactive)
REMARK    1  A    between atoms: C_3  and  N_23
REMARK    2  A    between atoms: C_6  and  N_7
REMARK    3  A    between atoms: N_7  and  C_8
REMARK    4  A    between atoms: C_8  and  C_9
REMARK    5  A    between atoms: C_9  and  N_10
REMARK    6  A    between atoms: N_10  and  S_11
REMARK    7  A    between atoms: S_11  and  C_14
REMARK    8  A    between atoms: C_18  and  C_20
REMARK                            x       y       z     vdW  Elec       q    Type
REMARK                         _______ _______ _______ _____ _____    ______ ____
ROOT
ATOM      1  N   UNL     1       3.543  -5.009  -0.058  0.00  0.00    -0.188 NA
ATOM      2  H   UNL     1       4.359  -4.535  -0.281  0.00  0.00    +0.148 HD
ENDROOT
BRANCH   1   3
ATOM      3  S   UNL     1       3.598  -6.624   0.305  0.00  0.00    +0.058 S 
ATOM      4  O   UNL     1       4.955  -7.024   0.178  0.00  0.00    -0.153 OA
ATOM      5  O   UNL     1       2.862  -6.795   1.509  0.00  0.00    -0.153 OA
BRANCH   3   6
ATOM      6  C   UNL     1       2.704  -7.471  -0.955  0.00  0.00    +0.106 A 
ATOM      7  C   UNL     1       1.347  -7.698  -0.806  0.00  0.00    +0.029 A 
ATOM      8  C   UNL     1       0.636  -8.357  -1.792  0.00  0.00    +0.018 A 
ATOM      9  C   UNL     1       1.279  -8.804  -2.929  0.00  0.00    +0.032 A 
ATOM     10  C   UNL     1       2.650  -8.583  -3.084  0.00  0.00    +0.079 A 
ATOM     11  C   UNL     1       3.360  -7.912  -2.086  0.00  0.00    +0.044 A 
ATOM     12 BR   UNL     1       0.307  -9.711  -4.274  0.00  0.00    -0.049 Br
BRANCH  10  13
ATOM     13  C   UNL     1       3.346  -9.057  -4.297  0.00  0.00    +0.388 C 
ATOM     14  O   UNL     1       2.726  -9.640  -5.164  0.00  0.00    -0.241 OA
ATOM     15  O   UNL     1       4.668  -8.842  -4.443  0.00  0.00    -0.241 OA
ENDBRANCH  10  13
ENDBRANCH   3   6
ENDBRANCH   1   3
BRANCH   1  16
ATOM     16  C   UNL     1       2.263  -4.298  -0.042  0.00  0.00    +0.124 C 
BRANCH  16  17
ATOM     17  C   UNL     1       2.518  -2.789  -0.036  0.00  0.00    +0.118 C 
BRANCH  17  18
ATOM     18  N   UNL     1       1.238  -2.077  -0.020  0.00  0.00    -0.343 N 
ATOM     19  H   UNL     1       0.406  -2.576  -0.015  0.00  0.00    +0.146 HD
BRANCH  18  25
ATOM     20  C   UNL     1       0.002  -0.004   0.002  0.00  0.00    +0.025 A 
ATOM     21  C   UNL     1      -0.017   1.377   0.010  0.00  0.00    +0.034 A 
ATOM     22  C   UNL     1       1.171   2.086   0.002  0.00  0.00    +0.126 A 
ATOM     23  C   UNL     1       2.380   1.416  -0.013  0.00  0.00    +0.034 A 
ATOM     24  C   UNL     1       2.406   0.035  -0.021  0.00  0.00    +0.025 A 
ATOM     25  C   UNL     1       1.215  -0.681  -0.013  0.00  0.00    +0.027 A 
BRANCH  22  26
ATOM     26  N   UNL     1       1.147   3.566   0.010  0.00  0.00    +0.056 N 
ATOM     27  O   UNL     1       0.082   4.158   0.024  0.00  0.00    -0.126 OA
ATOM     28  O   UNL     1       2.191   4.192   0.004  0.00  0.00    -0.126 OA
ENDBRANCH  22  26
ENDBRANCH  18  25
ENDBRANCH  17  18
ENDBRANCH  16  17
ENDBRANCH   1  16
TORSDOF 8
