REMARK  Name = ZINC21281073
REMARK  8 active torsions:
REMARK  status: ('A' for Active; 'I' for Inactive)
REMARK    1  A    between atoms: C_1  and  C_2
REMARK    2  A    between atoms: C_2  and  C_4
REMARK    3  A    between atoms: C_9  and  N_10
REMARK    4  A    between atoms: C_11  and  C_13
REMARK    5  A    between atoms: C_13  and  O_14
REMARK    6  A    between atoms: O_14  and  C_15
REMARK    7  A    between atoms: C_15  and  C_17
REMARK    8  A    between atoms: C_23  and  C_25
REMARK                            x       y       z     vdW  Elec       q    Type
REMARK                         _______ _______ _______ _____ _____    ______ ____
ROOT
ATOM      1  C   UNL     1       0.608   1.536   2.978  0.00  0.00    +0.311 C 
ATOM      2  O   UNL     1       0.981   2.537   3.541  0.00  0.00    -0.251 OA
ENDROOT
BRANCH   1   3
ATOM      3  C   UNL     1      -0.317   1.637   1.793  0.00  0.00    +0.110 C 
ATOM      4  C   UNL     1       0.354   1.014   0.568  0.00  0.00    +0.015 C 
ATOM      5  C   UNL     1      -0.585   1.117  -0.636  0.00  0.00    +0.001 C 
ATOM      6  C   UNL     1      -0.894   2.589  -0.917  0.00  0.00    +0.001 C 
ATOM      7  C   UNL     1      -1.565   3.212   0.309  0.00  0.00    +0.013 C 
ATOM      8  C   UNL     1      -0.626   3.109   1.512  0.00  0.00    +0.089 C 
BRANCH   8   9
ATOM      9  C   UNL     1      -1.288   3.723   2.719  0.00  0.00    +0.224 C 
ATOM     10  O   UNL     1      -1.847   3.015   3.530  0.00  0.00    -0.275 OA
ATOM     11  N   UNL     1      -1.257   5.058   2.898  0.00  0.00    -0.271 N 
ATOM     12  C   UNL     1      -0.704   6.021   1.943  0.00  0.00    +0.118 C 
ATOM     13  C   UNL     1      -0.905   7.399   2.596  0.00  0.00    +0.056 C 
ATOM     14  C   UNL     1      -1.571   7.098   3.920  0.00  0.00    -0.024 A 
ATOM     15  C   UNL     1      -1.743   5.727   4.026  0.00  0.00    +0.039 A 
ATOM     16  C   UNL     1      -2.342   5.207   5.174  0.00  0.00    +0.024 A 
ATOM     17  C   UNL     1      -2.756   6.048   6.185  0.00  0.00    +0.002 A 
ATOM     18  C   UNL     1      -2.580   7.414   6.069  0.00  0.00    +0.000 A 
ATOM     19  C   UNL     1      -1.987   7.938   4.935  0.00  0.00    +0.005 A 
ENDBRANCH   8   9
ENDBRANCH   1   3
BRANCH   1  20
ATOM     20  O   UNL     1       1.016   0.332   3.410  0.00  0.00    -0.455 OA
BRANCH  20  21
ATOM     21  C   UNL     1       1.907   0.310   4.556  0.00  0.00    +0.328 C 
BRANCH  21  23
ATOM     22  N   UNL     1       3.076  -1.383   5.930  0.00  0.00    -0.282 N 
ATOM     23  C   UNL     1       2.256  -1.117   4.894  0.00  0.00    +0.255 C 
ATOM     24  O   UNL     1       1.800  -2.026   4.232  0.00  0.00    -0.272 OA
ATOM     25  H   UNL     1       3.439  -0.564   6.568  0.00  0.00    +0.155 HD
BRANCH  22  31
ATOM     26  C   UNL     1       3.793  -3.085   7.503  0.00  0.00    +0.042 A 
ATOM     27  C   UNL     1       4.182  -4.408   7.756  0.00  0.00    +0.062 A 
ATOM     28  C   UNL     1       4.239  -5.318   6.724  0.00  0.00    +0.167 A 
ATOM     29  C   UNL     1       3.910  -4.927   5.422  0.00  0.00    +0.168 A 
ATOM     30  C   UNL     1       3.520  -3.622   5.164  0.00  0.00    +0.073 A 
ATOM     31  C   UNL     1       3.463  -2.695   6.192  0.00  0.00    +0.048 A 
ATOM     32  O   UNL     1       4.048  -6.004   4.597  0.00  0.00    -0.453 OA
ATOM     33  C   UNL     1       4.855  -6.947   5.325  0.00  0.00    +0.466 C 
ATOM     34  O   UNL     1       4.582  -6.641   6.705  0.00  0.00    -0.453 OA
BRANCH  26  36
ATOM     35  C   UNL     1       4.197  -2.502   9.977  0.00  0.00    +0.091 C 
ATOM     36  C   UNL     1       3.730  -2.114   8.597  0.00  0.00    +0.162 C 
ATOM     37  O   UNL     1       3.302  -0.997   8.393  0.00  0.00    -0.292 OA
ENDBRANCH  26  36
ENDBRANCH  22  31
ENDBRANCH  21  23
ENDBRANCH  20  21
ENDBRANCH   1  20
TORSDOF 7
