REMARK  Name = ZINC36142405
REMARK  7 active torsions:
REMARK  status: ('A' for Active; 'I' for Inactive)
REMARK    1  A    between atoms: C_1  and  C_2
REMARK    2  A    between atoms: C_9  and  C_15
REMARK    3  A    between atoms: C_9  and  N_19
REMARK    4  A    between atoms: C_11  and  C_13
REMARK    5  A    between atoms: C_11  and  C_14
REMARK    6  A    between atoms: C_15  and  O_17
REMARK    7  A    between atoms: O_17  and  C_18
REMARK                            x       y       z     vdW  Elec       q    Type
REMARK                         _______ _______ _______ _____ _____    ______ ____
ROOT
ATOM      1  C   UNL     1       0.250   1.283   1.011  0.00  0.00    +0.045 C 
ATOM      2  C   UNL     1       0.201  -0.197   0.731  0.00  0.00    -0.029 A 
ATOM      3  C   UNL     1       0.115  -0.652  -0.569  0.00  0.00    +0.050 A 
ATOM      4  C   UNL     1       0.068  -2.017  -0.832  0.00  0.00    +0.127 A 
ATOM      5  C   UNL     1       0.105  -2.919   0.217  0.00  0.00    +0.026 A 
ATOM      6  C   UNL     1       0.194  -2.458   1.520  0.00  0.00    +0.030 A 
ATOM      7  C   UNL     1       0.247  -1.101   1.778  0.00  0.00    +0.044 A 
ATOM      8 CL   UNL     1       0.365  -0.531   3.413  0.00  0.00    -0.083 Cl
ATOM      9  C   UNL     1       0.045  -4.407  -0.023  0.00  0.00    +0.147 C 
ATOM     10  C   UNL     1       0.390  -4.707  -1.484  0.00  0.00    +0.085 C 
ATOM     11  C   UNL     1      -0.431  -3.768  -2.376  0.00  0.00    +0.108 C 
ATOM     12  O   UNL     1      -0.011  -2.426  -2.125  0.00  0.00    -0.486 OA
ATOM     13  C   UNL     1      -1.918  -3.912  -2.046  0.00  0.00    +0.055 C 
ATOM     14  C   UNL     1      -0.194  -4.115  -3.847  0.00  0.00    +0.055 C 
ENDROOT
BRANCH   9  15
ATOM     15  N   UNL     1      -1.309  -4.895   0.270  0.00  0.00    -0.312 NA
ATOM     16  H   UNL     1      -1.362  -5.897   0.167  0.00  0.00    +0.120 HD
ATOM     17  H   UNL     1      -1.605  -4.609   1.191  0.00  0.00    +0.120 HD
ENDBRANCH   9  15
BRANCH   9  18
ATOM     18  C   UNL     1       1.034  -5.101   0.878  0.00  0.00    +0.332 C 
ATOM     19  O   UNL     1       2.138  -5.370   0.470  0.00  0.00    -0.248 OA
BRANCH  18  20
ATOM     20  O   UNL     1       0.686  -5.420   2.135  0.00  0.00    -0.466 OA
ATOM     21  C   UNL     1       1.673  -6.076   2.934  0.00  0.00    +0.280 C 
ENDBRANCH  18  20
ENDBRANCH   9  18
TORSDOF 3
