REMARK  Name = ZINC22782307
REMARK  4 active torsions:
REMARK  status: ('A' for Active; 'I' for Inactive)
REMARK    1  A    between atoms: C_3  and  O_19
REMARK    2  A    between atoms: C_4  and  N_8
REMARK    3  A    between atoms: N_8  and  C_9
REMARK    4  A    between atoms: C_10  and  N_16
REMARK                            x       y       z     vdW  Elec       q    Type
REMARK                         _______ _______ _______ _____ _____    ______ ____
ROOT
ATOM      1  N   UNL     1      -0.213   0.871   0.077  0.00  0.00    -0.312 N 
ATOM      2  H   UNL     1       0.669   1.177   0.657  0.00  0.00    +0.152 HD
ENDROOT
BRANCH   1   6
ATOM      3  C   UNL     1       0.120  -2.132  -2.797  0.00  0.00    +0.019 A 
ATOM      4  C   UNL     1       1.193  -1.849  -1.972  0.00  0.00    +0.048 A 
ATOM      5  C   UNL     1       1.087  -0.853  -1.016  0.00  0.00    +0.138 A 
ATOM      6  C   UNL     1      -0.102  -0.137  -0.888  0.00  0.00    +0.074 A 
ATOM      7  C   UNL     1      -1.176  -0.430  -1.716  0.00  0.00    +0.042 A 
ATOM      8  C   UNL     1      -1.061  -1.423  -2.671  0.00  0.00    +0.020 A 
ATOM      9 BR   UNL     1      -2.524  -1.817  -3.803  0.00  0.00    -0.050 Br
BRANCH   5  10
ATOM     10  O   UNL     1       2.142  -0.574  -0.203  0.00  0.00    -0.505 OA
ATOM     11  H   UNL     1       2.057   0.218   0.556  0.00  0.00    +0.292 HD
ENDBRANCH   5  10
ENDBRANCH   1   6
BRANCH   1  12
ATOM     12  C   UNL     1      -1.439   1.484   0.302  0.00  0.00    +0.057 C 
ATOM     13  C   UNL     1      -1.580   2.765   0.139  0.00  0.00    +0.143 C 
ATOM     14  C   UNL     1      -2.944   3.383   0.394  0.00  0.00    +0.228 C 
ATOM     15  S   UNL     1      -4.008   1.875   0.439  0.00  0.00    -0.020 S 
ATOM     16  O   UNL     1      -4.560   1.645  -0.850  0.00  0.00    -0.174 OA
ATOM     17  O   UNL     1      -4.860   1.930   1.576  0.00  0.00    -0.174 OA
ATOM     18  C   UNL     1      -2.643   0.673   0.749  0.00  0.00    +0.219 C 
BRANCH  13  19
ATOM     19  N   UNL     1      -0.438   3.603  -0.290  0.00  0.00    +0.055 N 
ATOM     20  O   UNL     1       0.620   3.082  -0.593  0.00  0.00    -0.126 OA
ATOM     21  O   UNL     1      -0.557   4.814  -0.341  0.00  0.00    -0.126 OA
ENDBRANCH  13  19
ENDBRANCH   1  12
TORSDOF 4
