REMARK  Name = ZINC36278095
REMARK  6 active torsions:
REMARK  status: ('A' for Active; 'I' for Inactive)
REMARK    1  A    between atoms: C_1  and  C_2
REMARK    2  A    between atoms: C_11  and  N_16
REMARK    3  A    between atoms: N_16  and  C_17
REMARK    4  A    between atoms: C_17  and  C_18
REMARK    5  A    between atoms: C_18  and  C_20
REMARK    6  A    between atoms: C_18  and  O_21
REMARK                            x       y       z     vdW  Elec       q    Type
REMARK                         _______ _______ _______ _____ _____    ______ ____
ROOT
ATOM      1  C   UNL     1       0.063   1.544  -0.006  0.00  0.00    +0.008 C 
ATOM      2  C   UNL     1       0.065   0.014  -0.010  0.00  0.00    -0.009 C 
ATOM      3  C   UNL     1       0.779  -0.496  -1.266  0.00  0.00    +0.008 C 
ATOM      4  C   UNL     1       0.571  -2.004  -1.403  0.00  0.00    +0.037 C 
ATOM      5  C   UNL     1       0.981  -2.681  -0.098  0.00  0.00    -0.025 A 
ATOM      6  C   UNL     1       1.075  -1.967   1.046  0.00  0.00    -0.004 A 
ATOM      7  S   UNL     1       1.571  -3.136   2.288  0.00  0.00    -0.073 S 
ATOM      8  C   UNL     1       1.653  -4.577   1.275  0.00  0.00    +0.115 A 
ATOM      9  C   UNL     1       1.288  -4.099  -0.009  0.00  0.00    +0.051 A 
ATOM     10  C   UNL     1       1.261  -5.053  -1.067  0.00  0.00    +0.132 A 
ATOM     11  N   UNL     1       1.584  -6.301  -0.732  0.00  0.00    -0.202 NA
ATOM     12  C   UNL     1       1.915  -6.674   0.489  0.00  0.00    +0.225 A 
ATOM     13  N   UNL     1       1.959  -5.836   1.520  0.00  0.00    -0.210 NA
ATOM     14 CL   UNL     1       2.310  -8.342   0.764  0.00  0.00    -0.041 Cl
ATOM     15  C   UNL     1       0.812  -0.503   1.228  0.00  0.00    +0.046 C 
ENDROOT
BRANCH  10  16
ATOM     16  N   UNL     1       0.920  -4.705  -2.361  0.00  0.00    -0.326 N 
ATOM     17  H   UNL     1       0.609  -3.807  -2.556  0.00  0.00    +0.148 HD
BRANCH  16  18
ATOM     18  C   UNL     1       1.027  -5.692  -3.438  0.00  0.00    +0.134 C 
BRANCH  18  19
ATOM     19  C   UNL     1       0.593  -5.055  -4.760  0.00  0.00    +0.128 C 
ATOM     20  C   UNL     1       0.586  -6.118  -5.860  0.00  0.00    +0.039 C 
BRANCH  19  21
ATOM     21  O   UNL     1       1.506  -4.013  -5.109  0.00  0.00    -0.391 OA
ATOM     22  H   UNL     1       1.292  -3.564  -5.938  0.00  0.00    +0.210 HD
ENDBRANCH  19  21
ENDBRANCH  18  19
ENDBRANCH  16  18
ENDBRANCH  10  16
TORSDOF 4
