REMARK  Name = ZINC63847716
REMARK  5 active torsions:
REMARK  status: ('A' for Active; 'I' for Inactive)
REMARK    1  A    between atoms: C_1  and  N_2
REMARK    2  A    between atoms: C_11  and  C_14
REMARK    3  A    between atoms: N_16  and  C_17
REMARK    4  A    between atoms: N_16  and  C_18
REMARK    5  A    between atoms: C_18  and  C_19
REMARK                            x       y       z     vdW  Elec       q    Type
REMARK                         _______ _______ _______ _____ _____    ______ ____
ROOT
ATOM      1  C   UNL     1       0.681  -2.757   2.329  0.00  0.00    +0.238 C 
ATOM      2  O   UNL     1      -0.386  -2.643   2.893  0.00  0.00    -0.273 OA
ATOM      3  N   UNL     1       1.635  -3.557   2.846  0.00  0.00    -0.299 N 
ATOM      4  C   UNL     1       2.958  -3.618   2.220  0.00  0.00    +0.132 C 
ENDROOT
BRANCH   1  15
ATOM      5  C   UNL     1       0.294   1.365  -0.124  0.00  0.00    +0.153 C 
ATOM      6  N   UNL     1       0.193  -0.096  -0.134  0.00  0.00    -0.235 N 
ATOM      7  C   UNL     1       0.138  -0.743  -1.318  0.00  0.00    +0.260 C 
ATOM      8  O   UNL     1       0.084  -0.128  -2.365  0.00  0.00    -0.269 OA
ATOM      9  C   UNL     1       0.146  -2.223  -1.305  0.00  0.00    +0.043 A 
ATOM     10  C   UNL     1      -0.227  -2.974  -2.412  0.00  0.00    +0.013 A 
ATOM     11  C   UNL     1      -0.199  -4.354  -2.336  0.00  0.00    +0.001 A 
ATOM     12  C   UNL     1       0.197  -4.979  -1.166  0.00  0.00    +0.000 A 
ATOM     13  C   UNL     1       0.569  -4.233  -0.060  0.00  0.00    +0.006 A 
ATOM     14  C   UNL     1       0.545  -2.859  -0.124  0.00  0.00    -0.008 A 
ATOM     15  C   UNL     1       0.941  -2.004   1.050  0.00  0.00    +0.189 C 
ATOM     16  N   UNL     1       0.163  -0.765   1.048  0.00  0.00    -0.222 NA
ATOM     17  H   UNL     1      -0.786  -0.938   1.342  0.00  0.00    +0.146 HD
ENDBRANCH   1  15
BRANCH   3  18
ATOM     18  C   UNL     1       1.349  -4.366   4.033  0.00  0.00    +0.154 C 
BRANCH  18  19
ATOM     19  C   UNL     1       1.813  -3.617   5.284  0.00  0.00    +0.192 C 
ATOM     20  N   UNL     1       1.210  -2.280   5.324  0.00  0.00    -0.362 N 
ATOM     21  C   UNL     1       2.179  -1.412   5.306  0.00  0.00    +0.060 A 
ATOM     22  C   UNL     1       2.204   0.058   5.327  0.00  0.00    +0.030 A 
ATOM     23  C   UNL     1       3.386   0.703   5.298  0.00  0.00    +0.040 A 
ATOM     24  C   UNL     1       4.621   0.025   5.247  0.00  0.00    +0.125 A 
ATOM     25  C   UNL     1       4.708  -1.324   5.223  0.00  0.00    +0.065 A 
ATOM     26  C   UNL     1       3.482  -2.130   5.252  0.00  0.00    +0.063 A 
ATOM     27  N   UNL     1       3.267  -3.416   5.240  0.00  0.00    -0.362 N 
ATOM     28  F   UNL     1       5.760   0.750   5.220  0.00  0.00    -0.205 F 
ATOM     29  H   UNL     1       0.261  -2.079   5.359  0.00  0.00    +0.162 HD
ATOM     30  H   UNL     1       3.942  -4.111   5.207  0.00  0.00    +0.162 HD
ENDBRANCH  18  19
ENDBRANCH   3  18
TORSDOF 3
