REMARK  Name = ZINC47435810
REMARK  2 active torsions:
REMARK  status: ('A' for Active; 'I' for Inactive)
REMARK    1  A    between atoms: C_1  and  C_2
REMARK    2  A    between atoms: C_8  and  C_10
REMARK                            x       y       z     vdW  Elec       q    Type
REMARK                         _______ _______ _______ _____ _____    ______ ____
ROOT
ATOM      1  C   UNL     1       0.087  -6.359   0.193  0.00  0.00    +0.103 A 
ATOM      2  C   UNL     1       0.104  -7.417  -0.659  0.00  0.00    +0.040 A 
ATOM      3  C   UNL     1       0.121  -8.599   0.120  0.00  0.00    +0.000 A 
ATOM      4  C   UNL     1       0.141  -9.963  -0.201  0.00  0.00    +0.011 A 
ATOM      5  C   UNL     1       0.154 -10.894   0.796  0.00  0.00    +0.021 A 
ATOM      6  C   UNL     1       0.146 -10.504   2.130  0.00  0.00    +0.043 A 
ATOM      7  C   UNL     1       0.125  -9.169   2.471  0.00  0.00    +0.046 A 
ATOM      8  C   UNL     1       0.113  -8.200   1.471  0.00  0.00    +0.048 A 
ATOM      9  N   UNL     1       0.098  -6.825   1.494  0.00  0.00    -0.351 N 
ATOM     10  H   UNL     1       0.094  -6.274   2.292  0.00  0.00    +0.166 HD
ATOM     11 CL   UNL     1       0.161 -11.710   3.379  0.00  0.00    -0.083 Cl
ENDROOT
BRANCH   1  19
ATOM     12  C   UNL     1      -0.018   1.503   0.010  0.00  0.00    +0.075 C 
ATOM     13  C   UNL     1       0.002  -0.004   0.002  0.00  0.00    +0.101 A 
ATOM     14  N   UNL     1       0.010  -0.846  -1.013  0.00  0.00    -0.145 NA
ATOM     15  N   UNL     1       0.027  -2.096  -0.848  0.00  0.00    -0.126 NA
ATOM     16  C   UNL     1       0.039  -2.642   0.360  0.00  0.00    +0.188 A 
ATOM     17  S   UNL     1       0.031  -1.162   1.367  0.00  0.00    -0.036 S 
ATOM     18  N   UNL     1       0.058  -3.980   0.736  0.00  0.00    -0.258 N 
ATOM     19  C   UNL     1       0.067  -4.944  -0.205  0.00  0.00    +0.266 C 
ATOM     20  O   UNL     1       0.059  -4.644  -1.384  0.00  0.00    -0.268 OA
ATOM     21  H   UNL     1       0.065  -4.219   1.676  0.00  0.00    +0.157 HD
ENDBRANCH   1  19
TORSDOF 1
