REMARK  Name = ZINC36117525
REMARK  10 active torsions:
REMARK  status: ('A' for Active; 'I' for Inactive)
REMARK    1  A    between atoms: C_1  and  O_2
REMARK    2  A    between atoms: O_2  and  C_3
REMARK    3  A    between atoms: C_7  and  O_9
REMARK    4  A    between atoms: O_9  and  C_10
REMARK    5  A    between atoms: C_10  and  C_11
REMARK    6  A    between atoms: C_21  and  C_23
REMARK    7  A    between atoms: C_23  and  N_24
REMARK    8  A    between atoms: N_24  and  C_25
REMARK    9  A    between atoms: C_25  and  C_26
REMARK   10  A    between atoms: C_28  and  C_30
REMARK                            x       y       z     vdW  Elec       q    Type
REMARK                         _______ _______ _______ _____ _____    ______ ____
ROOT
ATOM      1  C   UNL     1       2.506  -4.699  -1.731  0.00  0.00    +0.144 C 
ATOM      2  C   UNL     1       1.000  -4.884  -1.556  0.00  0.00    -0.014 A 
ATOM      3  C   UNL     1       0.056  -4.308  -2.405  0.00  0.00    +0.013 A 
ATOM      4  C   UNL     1      -1.263  -4.511  -2.187  0.00  0.00    +0.046 A 
ATOM      5  S   UNL     1      -1.240  -5.553  -0.736  0.00  0.00    -0.101 S 
ATOM      6  C   UNL     1       0.520  -5.641  -0.532  0.00  0.00    -0.004 A 
ATOM      7  C   UNL     1       1.298  -6.374   0.511  0.00  0.00    +0.061 C 
ATOM      8  C   UNL     1       2.737  -5.835   0.522  0.00  0.00    +0.114 C 
ATOM      9  N   UNL     1       3.183  -5.680  -0.872  0.00  0.00    -0.289 N 
ATOM     10  C   UNL     1       4.196  -6.426  -1.354  0.00  0.00    +0.234 C 
ATOM     11  O   UNL     1       4.555  -6.291  -2.505  0.00  0.00    -0.274 OA
ENDROOT
BRANCH   1  12
ATOM     12  C   UNL     1       2.906  -3.282  -1.315  0.00  0.00    +0.256 C 
BRANCH  12  13
ATOM     13  O   UNL     1       2.441  -3.026   0.012  0.00  0.00    -0.490 OA
BRANCH  13  18
ATOM     14  C   UNL     1       2.573  -0.239   2.351  0.00  0.00    +0.124 A 
ATOM     15  C   UNL     1       3.277   0.693   1.600  0.00  0.00    +0.046 A 
ATOM     16  C   UNL     1       3.697   0.376   0.323  0.00  0.00    +0.007 A 
ATOM     17  C   UNL     1       3.418  -0.868  -0.210  0.00  0.00    +0.046 A 
ATOM     18  C   UNL     1       2.715  -1.803   0.537  0.00  0.00    +0.124 A 
ATOM     19  C   UNL     1       2.298  -1.489   1.821  0.00  0.00    +0.091 A 
BRANCH  14  21
ATOM     20  C   UNL     1       2.479   1.380   4.090  0.00  0.00    +0.277 C 
ATOM     21  O   UNL     1       2.160   0.073   3.608  0.00  0.00    -0.495 OA
ENDBRANCH  14  21
ENDBRANCH  13  18
ENDBRANCH  12  13
ENDBRANCH   1  12
BRANCH  10  22
ATOM     22  C   UNL     1       4.883  -7.429  -0.463  0.00  0.00    +0.204 C 
BRANCH  22  23
ATOM     23  N   UNL     1       5.941  -8.107  -1.216  0.00  0.00    -0.285 N 
ATOM     24  C   UNL     1       5.735  -9.349  -1.699  0.00  0.00    +0.247 C 
ATOM     25  O   UNL     1       6.626  -9.926  -2.293  0.00  0.00    -0.270 OA
BRANCH  24  26
ATOM     26  C   UNL     1       4.428 -10.007  -1.508  0.00  0.00    +0.041 A 
ATOM     27  C   UNL     1       3.282  -9.239  -1.287  0.00  0.00    +0.017 A 
ATOM     28  C   UNL     1       2.063  -9.855  -1.110  0.00  0.00    +0.050 A 
ATOM     29  C   UNL     1       1.968 -11.240  -1.149  0.00  0.00    +0.166 A 
ATOM     30  C   UNL     1       3.108 -12.013  -1.369  0.00  0.00    +0.167 A 
ATOM     31  C   UNL     1       4.332 -11.400  -1.554  0.00  0.00    +0.062 A 
ATOM     32  O   UNL     1       2.749 -13.331  -1.363  0.00  0.00    -0.453 OA
ATOM     33  C   UNL     1       1.456 -13.372  -0.732  0.00  0.00    +0.466 C 
ATOM     34  O   UNL     1       0.898 -12.074  -1.007  0.00  0.00    -0.453 OA
ENDBRANCH  24  26
BRANCH  23  35
ATOM     35  C   UNL     1       7.223  -7.436  -1.445  0.00  0.00    +0.135 C 
BRANCH  35  36
ATOM     36  C   UNL     1       8.205  -7.853  -0.380  0.00  0.00    -0.016 C 
ATOM     37  C   UNL     1       9.369  -8.349  -0.719  0.00  0.00    +0.005 C 
ENDBRANCH  35  36
ENDBRANCH  23  35
ENDBRANCH  22  23
ENDBRANCH  10  22
TORSDOF 9
