REMARK  Name = ZINC55085819
REMARK  3 active torsions:
REMARK  status: ('A' for Active; 'I' for Inactive)
REMARK    1  A    between atoms: C_4  and  N_7
REMARK    2  A    between atoms: C_8  and  C_10
REMARK    3  A    between atoms: C_16  and  N_18
REMARK                            x       y       z     vdW  Elec       q    Type
REMARK                         _______ _______ _______ _____ _____    ______ ____
ROOT
ATOM      1  N   UNL     1       2.839  -0.440  -2.473  0.00  0.00    -0.312 N 
ATOM      2  C   UNL     1       3.424  -1.655  -2.483  0.00  0.00    +0.215 C 
ATOM      3  O   UNL     1       3.383  -2.356  -1.495  0.00  0.00    -0.276 OA
ATOM      4  H   UNL     1       2.872   0.121  -3.264  0.00  0.00    +0.149 HD
ENDROOT
BRANCH   1   8
ATOM      5  C   UNL     1      -0.019   1.526   0.010  0.00  0.00    +0.000 C 
ATOM      6  C   UNL     1       1.417   2.055  -0.000  0.00  0.00    +0.002 C 
ATOM      7  C   UNL     1       2.133   1.562  -1.259  0.00  0.00    +0.022 C 
ATOM      8  C   UNL     1       2.154   0.032  -1.268  0.00  0.00    +0.073 C 
ATOM      9  C   UNL     1       0.718  -0.497  -1.257  0.00  0.00    +0.022 C 
ATOM     10  C   UNL     1       0.002  -0.004   0.002  0.00  0.00    +0.002 C 
ENDBRANCH   1   8
BRANCH   2  11
ATOM     11  C   UNL     1       4.130  -2.140  -3.723  0.00  0.00    +0.060 C 
ATOM     12  C   UNL     1       3.136  -2.199  -4.885  0.00  0.00    +0.011 C 
ATOM     13  C   UNL     1       1.999  -3.160  -4.536  0.00  0.00    +0.001 C 
ATOM     14  C   UNL     1       2.571  -4.557  -4.283  0.00  0.00    -0.002 C 
ATOM     15  C   UNL     1       3.564  -4.498  -3.121  0.00  0.00    -0.016 C 
ATOM     16  C   UNL     1       4.702  -3.537  -3.470  0.00  0.00    -0.063 C 
BRANCH  16  17
ATOM     17  N   UNL     1       5.656  -3.481  -2.354  0.00  0.00    +0.380 N 
ATOM     18  H   UNL     1       5.183  -3.155  -1.524  0.00  0.00    -0.090 HD
ATOM     19  H   UNL     1       6.033  -4.402  -2.188  0.00  0.00    -0.090 HD
ATOM     20  H   UNL     1       6.406  -2.846  -2.585  0.00  0.00    -0.090 HD
ENDBRANCH  16  17
ENDBRANCH   2  11
TORSDOF 3
