REMARK  Name = ZINC06443520
REMARK  9 active torsions:
REMARK  status: ('A' for Active; 'I' for Inactive)
REMARK    1  A    between atoms: C_1  and  C_2
REMARK    2  A    between atoms: C_12  and  C_14
REMARK    3  A    between atoms: C_14  and  N_64
REMARK    4  A    between atoms: C_15  and  C_16
REMARK    5  A    between atoms: C_15  and  N_64
REMARK    6  A    between atoms: C_25  and  C_26
REMARK    7  A    between atoms: C_25  and  N_64
REMARK    8  A    between atoms: N_30  and  C_31
REMARK    9  A    between atoms: C_31  and  C_32
REMARK                            x       y       z     vdW  Elec       q    Type
REMARK                         _______ _______ _______ _____ _____    ______ ____
ROOT
ATOM      1  N   UNL     1       5.162   4.545   1.254  0.00  0.00    +0.390 N 
ATOM      2  H   UNL     1       5.256   3.677   1.796  0.00  0.00    -0.080 HD
ENDROOT
BRANCH   1   3
ATOM      3  C   UNL     1       4.418   4.255   0.010  0.00  0.00    -0.036 C 
BRANCH   3  15
ATOM      4  C   UNL     1       0.416  -0.776   1.380  0.00  0.00    +0.046 C 
ATOM      5  C   UNL     1       0.149   0.701   1.250  0.00  0.00    -0.026 A 
ATOM      6  C   UNL     1      -1.128   1.192   1.426  0.00  0.00    +0.005 A 
ATOM      7  C   UNL     1      -1.386   2.551   1.314  0.00  0.00    +0.001 A 
ATOM      8  C   UNL     1      -0.381   3.428   1.017  0.00  0.00    +0.010 A 
ATOM      9  C   UNL     1       0.921   2.952   0.829  0.00  0.00    -0.001 A 
ATOM     10  C   UNL     1       1.188   1.575   0.947  0.00  0.00    +0.052 A 
ATOM     11  N   UNL     1       2.473   1.111   0.761  0.00  0.00    -0.322 N 
ATOM     12  H   UNL     1       2.655   0.162   0.843  0.00  0.00    +0.169 HD
ATOM     13  C   UNL     1       3.477   1.956   0.468  0.00  0.00    +0.251 A 
ATOM     14  O   UNL     1       4.601   1.511   0.310  0.00  0.00    -0.268 OA
ATOM     15  C   UNL     1       3.263   3.345   0.339  0.00  0.00    +0.001 A 
ATOM     16  C   UNL     1       2.021   3.863   0.509  0.00  0.00    +0.017 A 
ENDBRANCH   3  15
ENDBRANCH   1   3
BRANCH   1  17
ATOM     17  C   UNL     1       4.426   5.538   2.063  0.00  0.00    -0.042 C 
BRANCH  17  18
ATOM     18  C   UNL     1       4.377   6.867   1.353  0.00  0.00    -0.060 A 
ATOM     19  C   UNL     1       5.320   7.836   1.638  0.00  0.00    +0.005 A 
ATOM     20  C   UNL     1       5.283   9.055   0.986  0.00  0.00    +0.050 A 
ATOM     21  C   UNL     1       4.292   9.310   0.051  0.00  0.00    +0.166 A 
ATOM     22  C   UNL     1       3.339   8.335  -0.232  0.00  0.00    +0.166 A 
ATOM     23  C   UNL     1       3.386   7.115   0.422  0.00  0.00    +0.051 A 
ATOM     24  O   UNL     1       2.482   8.824  -1.176  0.00  0.00    -0.453 OA
ATOM     25  C   UNL     1       3.159   9.951  -1.763  0.00  0.00    +0.466 C 
ATOM     26  O   UNL     1       4.033  10.410  -0.715  0.00  0.00    -0.453 OA
ENDBRANCH  17  18
ENDBRANCH   1  17
BRANCH   1  27
ATOM     27  C   UNL     1       6.510   5.056   0.929  0.00  0.00    +0.001 C 
BRANCH  27  28
ATOM     28  C   UNL     1       7.371   4.969   2.162  0.00  0.00    +0.135 A 
ATOM     29  N   UNL     1       7.473   5.867   3.111  0.00  0.00    -0.115 NA
ATOM     30  N   UNL     1       8.304   5.425   3.990  0.00  0.00    -0.023 NA
ATOM     31  N   UNL     1       8.742   4.271   3.623  0.00  0.00    -0.044 NA
ATOM     32  N   UNL     1       8.190   3.955   2.501  0.00  0.00    -0.229 N 
BRANCH  32  33
ATOM     33  C   UNL     1       8.413   2.725   1.737  0.00  0.00    +0.178 C 
BRANCH  33  34
ATOM     34  C   UNL     1       9.572   2.934   0.761  0.00  0.00    +0.140 C 
ATOM     35  C   UNL     1       9.740   1.683  -0.128  0.00  0.00    +0.035 C 
ATOM     36  C   UNL     1      11.285   1.557  -0.231  0.00  0.00    +0.031 C 
ATOM     37  C   UNL     1      11.716   2.062   1.169  0.00  0.00    +0.160 C 
ATOM     38  O   UNL     1      10.793   3.115   1.488  0.00  0.00    -0.375 OA
ENDBRANCH  33  34
ENDBRANCH  32  33
ENDBRANCH  27  28
ENDBRANCH   1  27
TORSDOF 8
