REMARK  Name = ZINC05359123
REMARK  5 active torsions:
REMARK  status: ('A' for Active; 'I' for Inactive)
REMARK    1  A    between atoms: C_1  and  C_2
REMARK    2  A    between atoms: C_2  and  C_4
REMARK    3  A    between atoms: C_2  and  O_10
REMARK    4  A    between atoms: O_10  and  C_11
REMARK    5  A    between atoms: C_11  and  C_13
REMARK                            x       y       z     vdW  Elec       q    Type
REMARK                         _______ _______ _______ _____ _____    ______ ____
ROOT
ATOM      1  O   UNL     1       1.343   2.028   0.000  0.00  0.00    -0.448 OA
ENDROOT
BRANCH   1   3
ATOM      2  C   UNL     1       0.002  -0.004   0.002  0.00  0.00    +0.062 C 
ATOM      3  C   UNL     1      -0.019   1.526   0.010  0.00  0.00    +0.259 C 
BRANCH   3   4
ATOM      4  C   UNL     1      -0.748   2.025  -1.210  0.00  0.00    +0.261 C 
ATOM      5  O   UNL     1      -0.152   2.658  -2.055  0.00  0.00    -0.271 OA
ATOM      6  N   UNL     1      -2.062   1.768  -1.363  0.00  0.00    -0.237 N 
ATOM      7  C   UNL     1      -2.713   2.214  -2.455  0.00  0.00    +0.303 C 
ATOM      8  O   UNL     1      -2.116   2.849  -3.302  0.00  0.00    -0.253 OA
ATOM      9  N   UNL     1      -4.028   1.957  -2.607  0.00  0.00    -0.313 N 
ATOM     10  H   UNL     1      -2.538   1.261  -0.687  0.00  0.00    +0.159 HD
ATOM     11  H   UNL     1      -4.504   1.450  -1.931  0.00  0.00    +0.146 HD
ATOM     12  H   UNL     1      -4.497   2.278  -3.393  0.00  0.00    +0.146 HD
ENDBRANCH   3   4
ENDBRANCH   1   3
BRANCH   1  13
ATOM     13  C   UNL     1       1.929   2.234   1.196  0.00  0.00    +0.360 C 
ATOM     14  O   UNL     1       1.318   1.999   2.219  0.00  0.00    -0.243 OA
BRANCH  13  15
ATOM     15  C   UNL     1       3.315   2.744   1.263  0.00  0.00    +0.167 A 
ATOM     16  C   UNL     1       3.914   2.960   2.504  0.00  0.00    +0.093 A 
ATOM     17  C   UNL     1       5.218   3.435   2.550  0.00  0.00    +0.081 A 
ATOM     18  C   UNL     1       5.872   3.687   1.352  0.00  0.00    +0.079 A 
ATOM     19  C   UNL     1       5.212   3.454   0.154  0.00  0.00    +0.133 A 
ATOM     20  N   UNL     1       3.978   2.999   0.140  0.00  0.00    -0.246 NA
ATOM     21 CL   UNL     1       7.501   4.287   1.352  0.00  0.00    -0.080 Cl
ATOM     22 CL   UNL     1       6.009   3.712   4.070  0.00  0.00    -0.080 Cl
ATOM     23 CL   UNL     1       3.043   2.634   3.970  0.00  0.00    -0.080 Cl
ENDBRANCH  13  15
ENDBRANCH   1  13
TORSDOF 4
