REMARK  Name = ZINC15670087
REMARK  7 active torsions:
REMARK  status: ('A' for Active; 'I' for Inactive)
REMARK    1  A    between atoms: C_1  and  C_2
REMARK    2  A    between atoms: C_5  and  C_8
REMARK    3  A    between atoms: C_17  and  C_19
REMARK    4  A    between atoms: C_20  and  C_26
REMARK    5  A    between atoms: C_31  and  O_32
REMARK    6  A    between atoms: O_32  and  C_33
REMARK    7  A    between atoms: C_33  and  C_34
REMARK                            x       y       z     vdW  Elec       q    Type
REMARK                         _______ _______ _______ _____ _____    ______ ____
ROOT
ATOM      1  C   UNL     1       1.172  -0.641  -0.013  0.00  0.00    +0.095 A 
ATOM      2  C   UNL     1       2.347   0.118  -0.020  0.00  0.00    +0.163 A 
ATOM      3  N   UNL     1       2.261   1.435  -0.012  0.00  0.00    -0.152 NA
ATOM      4  N   UNL     1       1.113   2.016   0.002  0.00  0.00    -0.109 NA
ATOM      5  C   UNL     1      -0.016   1.321   0.009  0.00  0.00    +0.273 A 
ATOM      6  N   UNL     1       0.002  -0.004   0.002  0.00  0.00    -0.208 NA
ATOM      7  N   UNL     1      -1.238   1.992   0.019  0.00  0.00    -0.182 N 
ATOM      8  C   UNL     1      -1.411   3.331   0.032  0.00  0.00    +0.136 A 
ATOM      9  C   UNL     1      -2.759   3.572   0.025  0.00  0.00    +0.023 A 
ATOM     10  C   UNL     1      -3.414   2.349   0.025  0.00  0.00    +0.066 A 
ATOM     11  N   UNL     1      -2.510   1.398   0.022  0.00  0.00    -0.167 NA
ATOM     12  C   UNL     1      -4.907   2.147   0.028  0.00  0.00    +0.068 C 
ATOM     13  C   UNL     1      -3.328   4.969   0.018  0.00  0.00    +0.066 C 
ATOM     14  C   UNL     1      -2.325   5.900   0.706  0.00  0.00    +0.109 C 
ATOM     15  C   UNL     1      -0.921   5.622   0.248  0.00  0.00    +0.219 C 
ATOM     16  O   UNL     1      -0.163   6.553   0.078  0.00  0.00    -0.275 OA
ATOM     17  N   UNL     1      -0.479   4.367   0.021  0.00  0.00    -0.270 N 
ATOM     18  H   UNL     1       0.461   4.191  -0.142  0.00  0.00    +0.156 HD
ENDROOT
BRANCH   1  23
ATOM     19  C   UNL     1       1.387  -6.396  -0.048  0.00  0.00    +0.044 C 
ATOM     20  C   UNL     1       1.331  -4.890  -0.038  0.00  0.00    -0.050 A 
ATOM     21  C   UNL     1       2.500  -4.157   0.059  0.00  0.00    +0.004 A 
ATOM     22  C   UNL     1       2.454  -2.778   0.068  0.00  0.00    +0.010 A 
ATOM     23  C   UNL     1       1.227  -2.123  -0.021  0.00  0.00    +0.002 A 
ATOM     24  C   UNL     1       0.052  -2.866  -0.114  0.00  0.00    +0.010 A 
ATOM     25  C   UNL     1       0.110  -4.245  -0.127  0.00  0.00    +0.004 A 
ENDBRANCH   1  23
BRANCH  13  26
ATOM     26  C   UNL     1      -3.549   5.420  -1.403  0.00  0.00    +0.002 A 
ATOM     27  C   UNL     1      -2.483   5.499  -2.277  0.00  0.00    +0.008 A 
ATOM     28  C   UNL     1      -2.686   5.909  -3.582  0.00  0.00    +0.001 A 
ATOM     29  C   UNL     1      -3.955   6.250  -4.013  0.00  0.00    +0.004 A 
ATOM     30  C   UNL     1      -5.024   6.178  -3.141  0.00  0.00    +0.046 A 
ATOM     31  C   UNL     1      -4.823   5.762  -1.832  0.00  0.00    +0.125 A 
BRANCH  31  32
ATOM     32  O   UNL     1      -5.873   5.691  -0.973  0.00  0.00    -0.488 OA
BRANCH  32  33
ATOM     33  C   UNL     1      -7.156   6.058  -1.484  0.00  0.00    +0.256 C 
BRANCH  33  34
ATOM     34  C   UNL     1      -8.190   5.917  -0.395  0.00  0.00    +0.006 C 
ATOM     35  C   UNL     1      -9.079   6.861  -0.210  0.00  0.00    +0.007 C 
ENDBRANCH  33  34
ENDBRANCH  32  33
ENDBRANCH  31  32
ENDBRANCH  13  26
TORSDOF 5
