REMARK  Name = ZINC35005629
REMARK  10 active torsions:
REMARK  status: ('A' for Active; 'I' for Inactive)
REMARK    1  A    between atoms: C_1  and  C_2
REMARK    2  A    between atoms: C_13  and  C_15
REMARK    3  A    between atoms: C_15  and  N_16
REMARK    4  A    between atoms: N_16  and  C_17
REMARK    5  A    between atoms: N_16  and  S_21
REMARK    6  A    between atoms: C_17  and  C_18
REMARK    7  A    between atoms: C_18  and  C_19
REMARK    8  A    between atoms: C_18  and  C_20
REMARK    9  A    between atoms: S_21  and  C_24
REMARK   10  A    between atoms: C_28  and  N_30
REMARK                            x       y       z     vdW  Elec       q    Type
REMARK                         _______ _______ _______ _____ _____    ______ ____
ROOT
ATOM      1  N   UNL     1      -0.409  -2.165   4.119  0.00  0.00    -0.168 NA
ENDROOT
BRANCH   1   2
ATOM      2  S   UNL     1      -1.114  -1.121   5.194  0.00  0.00    +0.061 S 
ATOM      3  O   UNL     1      -1.555  -1.907   6.293  0.00  0.00    -0.153 OA
ATOM      4  O   UNL     1      -0.216  -0.031   5.349  0.00  0.00    -0.153 OA
BRANCH   2   5
ATOM      5  C   UNL     1      -2.561  -0.476   4.423  0.00  0.00    +0.108 A 
ATOM      6  C   UNL     1      -2.483   0.676   3.662  0.00  0.00    +0.030 A 
ATOM      7  C   UNL     1      -3.617   1.182   3.056  0.00  0.00    +0.024 A 
ATOM      8  C   UNL     1      -4.831   0.536   3.211  0.00  0.00    +0.071 A 
ATOM      9  C   UNL     1      -4.908  -0.617   3.973  0.00  0.00    +0.146 A 
ATOM     10  C   UNL     1      -3.772  -1.125   4.574  0.00  0.00    +0.062 A 
ATOM     11 CL   UNL     1      -6.256   1.171   2.451  0.00  0.00    -0.081 Cl
BRANCH   9  12
ATOM     12  N   UNL     1      -6.206  -1.308   4.139  0.00  0.00    +0.058 N 
ATOM     13  O   UNL     1      -6.273  -2.315   4.804  0.00  0.00    -0.126 OA
ATOM     14  O   UNL     1      -7.199  -0.866   3.610  0.00  0.00    -0.126 OA
ENDBRANCH   9  12
ENDBRANCH   2   5
ENDBRANCH   1   2
BRANCH   1  15
ATOM     15  C   UNL     1       0.584  -1.671   3.162  0.00  0.00    +0.205 C 
BRANCH  15  27
ATOM     16  C   UNL     1      -0.133   0.932  -0.624  0.00  0.00    +0.033 C 
ATOM     17  C   UNL     1       0.006  -0.584  -0.475  0.00  0.00    +0.103 C 
ATOM     18  C   UNL     1       0.860  -1.122  -1.595  0.00  0.00    -0.024 A 
ATOM     19  C   UNL     1       0.316  -1.142  -2.873  0.00  0.00    +0.006 A 
ATOM     20  C   UNL     1       1.052  -1.613  -3.940  0.00  0.00    +0.000 A 
ATOM     21  C   UNL     1       2.342  -2.068  -3.736  0.00  0.00    +0.000 A 
ATOM     22  C   UNL     1       2.882  -2.052  -2.467  0.00  0.00    +0.004 A 
ATOM     23  C   UNL     1       2.141  -1.583  -1.389  0.00  0.00    -0.041 A 
ATOM     24  C   UNL     1       2.786  -1.622  -0.029  0.00  0.00    +0.054 C 
ATOM     25  C   UNL     1       2.082  -0.668   0.935  0.00  0.00    +0.113 C 
ATOM     26  N   UNL     1       0.633  -0.893   0.815  0.00  0.00    -0.293 N 
ATOM     27  C   UNL     1      -0.090  -1.364   1.850  0.00  0.00    +0.232 C 
ATOM     28  O   UNL     1      -1.284  -1.540   1.726  0.00  0.00    -0.274 OA
ENDBRANCH  15  27
ENDBRANCH   1  15
BRANCH   1  29
ATOM     29  C   UNL     1      -0.780  -3.582   4.123  0.00  0.00    +0.113 C 
BRANCH  29  30
ATOM     30  C   UNL     1       0.193  -4.361   5.011  0.00  0.00    -0.001 C 
ATOM     31  C   UNL     1      -0.275  -5.813   5.129  0.00  0.00    +0.008 C 
ATOM     32  C   UNL     1       1.591  -4.323   4.392  0.00  0.00    +0.008 C 
ENDBRANCH  29  30
ENDBRANCH   1  29
TORSDOF 7
