REMARK  Name = ZINC18247111
REMARK  4 active torsions:
REMARK  status: ('A' for Active; 'I' for Inactive)
REMARK    1  A    between atoms: C_4  and  S_7
REMARK    2  A    between atoms: S_7  and  O_10
REMARK    3  A    between atoms: O_10  and  C_11
REMARK    4  A    between atoms: C_16  and  N_17
REMARK                            x       y       z     vdW  Elec       q    Type
REMARK                         _______ _______ _______ _____ _____    ______ ____
ROOT
ATOM      1  N   UNL     1       5.163  -3.708   1.545  0.00  0.00    -0.206 N 
ATOM      2  C   UNL     1       6.317  -3.799   2.220  0.00  0.00    +0.231 C 
ATOM      3  O   UNL     1       6.465  -3.544   3.395  0.00  0.00    -0.274 OA
ATOM      4  C   UNL     1       7.405  -4.271   1.280  0.00  0.00    +0.100 C 
ATOM      5  C   UNL     1       6.676  -4.441  -0.064  0.00  0.00    +0.100 C 
ATOM      6  C   UNL     1       5.248  -4.051   0.253  0.00  0.00    +0.231 C 
ATOM      7  O   UNL     1       4.329  -4.045  -0.537  0.00  0.00    -0.274 OA
ATOM      8  C   UNL     1       6.703  -5.913  -0.529  0.00  0.00    +0.062 C 
ATOM      9  C   UNL     1       6.106  -6.711   0.619  0.00  0.00    -0.035 A 
ATOM     10  C   UNL     1       5.012  -7.523   0.518  0.00  0.00    +0.004 A 
ATOM     11  C   UNL     1       4.571  -8.196   1.650  0.00  0.00    +0.000 A 
ATOM     12  C   UNL     1       5.230  -8.045   2.856  0.00  0.00    +0.000 A 
ATOM     13  C   UNL     1       6.341  -7.217   2.951  0.00  0.00    +0.004 A 
ATOM     14  C   UNL     1       6.769  -6.558   1.834  0.00  0.00    -0.035 A 
ATOM     15  C   UNL     1       7.960  -5.614   1.800  0.00  0.00    +0.062 C 
ATOM     16  C   UNL     1       8.829  -6.157   0.676  0.00  0.00    -0.035 A 
ATOM     17  C   UNL     1       8.173  -6.300  -0.560  0.00  0.00    -0.035 A 
ATOM     18  C   UNL     1       8.833  -6.764  -1.662  0.00  0.00    +0.004 A 
ATOM     19  C   UNL     1      10.181  -7.081  -1.550  0.00  0.00    +0.000 A 
ATOM     20  C   UNL     1      10.839  -6.927  -0.343  0.00  0.00    +0.000 A 
ATOM     21  C   UNL     1      10.153  -6.468   0.794  0.00  0.00    +0.004 A 
ENDROOT
BRANCH   1  27
ATOM     22  C   UNL     1       3.694  -1.938   2.303  0.00  0.00    +0.178 A 
ATOM     23  C   UNL     1       2.505  -1.535   2.890  0.00  0.00    +0.050 A 
ATOM     24  C   UNL     1       1.593  -2.479   3.321  0.00  0.00    +0.004 A 
ATOM     25  C   UNL     1       1.862  -3.827   3.169  0.00  0.00    +0.002 A 
ATOM     26  C   UNL     1       3.046  -4.237   2.585  0.00  0.00    +0.028 A 
ATOM     27  C   UNL     1       3.964  -3.295   2.144  0.00  0.00    +0.088 A 
BRANCH  22  28
ATOM     28  O   UNL     1       4.593  -1.010   1.878  0.00  0.00    -0.340 OA
BRANCH  28  29
ATOM     29  S   UNL     1       4.300  -0.455   0.492  0.00  0.00    +0.151 S 
ATOM     30  O   UNL     1       3.809  -1.539  -0.285  0.00  0.00    -0.131 OA
ATOM     31  O   UNL     1       5.441   0.302   0.108  0.00  0.00    -0.131 OA
BRANCH  29  35
ATOM     32  C   UNL     1       0.884   2.484   0.919  0.00  0.00    +0.000 A 
ATOM     33  C   UNL     1       2.189   2.919   1.043  0.00  0.00    +0.002 A 
ATOM     34  C   UNL     1       3.233   2.022   0.913  0.00  0.00    +0.030 A 
ATOM     35  C   UNL     1       2.970   0.689   0.659  0.00  0.00    +0.128 A 
ATOM     36  C   UNL     1       1.664   0.253   0.535  0.00  0.00    +0.030 A 
ATOM     37  C   UNL     1       0.621   1.151   0.664  0.00  0.00    +0.002 A 
ENDBRANCH  29  35
ENDBRANCH  28  29
ENDBRANCH  22  28
ENDBRANCH   1  27
TORSDOF 4
