REMARK  Name = ZINC03643338
REMARK  8 active torsions:
REMARK  status: ('A' for Active; 'I' for Inactive)
REMARK    1  A    between atoms: C_1  and  C_2
REMARK    2  A    between atoms: C_3  and  C_33
REMARK    3  A    between atoms: C_8  and  C_23
REMARK    4  A    between atoms: C_27  and  O_29
REMARK    5  A    between atoms: O_29  and  C_30
REMARK    6  A    between atoms: C_30  and  C_31
REMARK    7  A    between atoms: C_33  and  O_35
REMARK    8  A    between atoms: O_35  and  C_36
REMARK                            x       y       z     vdW  Elec       q    Type
REMARK                         _______ _______ _______ _____ _____    ______ ____
ROOT
ATOM      1  C   UNL     1      -7.576   6.356  -6.431  0.00  0.00    +0.067 C 
ATOM      2  C   UNL     1      -6.842   5.226  -5.756  0.00  0.00    +0.062 A 
ATOM      3  C   UNL     1      -5.463   5.103  -5.858  0.00  0.00    +0.120 A 
ATOM      4  S   UNL     1      -5.191   3.628  -4.886  0.00  0.00    -0.045 S 
ATOM      5  C   UNL     1      -6.848   3.330  -4.459  0.00  0.00    +0.169 A 
ATOM      6  N   UNL     1      -7.484   4.324  -5.060  0.00  0.00    -0.229 NA
ATOM      7  N   UNL     1      -7.372   2.308  -3.690  0.00  0.00    -0.232 N 
ATOM      8  C   UNL     1      -6.609   1.227  -3.054  0.00  0.00    +0.152 C 
ATOM      9  C   UNL     1      -7.620   0.373  -2.335  0.00  0.00    +0.072 A 
ATOM     10  C   UNL     1      -7.497  -0.841  -1.523  0.00  0.00    +0.199 A 
ATOM     11  O   UNL     1      -6.416  -1.362  -1.312  0.00  0.00    -0.287 OA
ATOM     12  C   UNL     1      -8.747  -1.399  -0.972  0.00  0.00    +0.064 A 
ATOM     13  C   UNL     1      -8.745  -2.550  -0.185  0.00  0.00    +0.015 A 
ATOM     14  C   UNL     1      -9.926  -3.035   0.306  0.00  0.00    +0.001 A 
ATOM     15  C   UNL     1     -11.121  -2.388   0.024  0.00  0.00    +0.004 A 
ATOM     16  C   UNL     1     -11.142  -1.250  -0.752  0.00  0.00    +0.047 A 
ATOM     17  C   UNL     1      -9.953  -0.737  -1.263  0.00  0.00    +0.139 A 
ATOM     18  O   UNL     1      -9.955   0.374  -2.021  0.00  0.00    -0.450 OA
ATOM     19  C   UNL     1      -8.842   0.923  -2.546  0.00  0.00    +0.199 A 
ATOM     20  C   UNL     1      -8.671   2.129  -3.393  0.00  0.00    +0.289 C 
ATOM     21  O   UNL     1      -9.575   2.850  -3.765  0.00  0.00    -0.266 OA
ENDROOT
BRANCH   8  22
ATOM     22  C   UNL     1      -5.619   1.799  -2.072  0.00  0.00    -0.019 A 
ATOM     23  C   UNL     1      -5.971   2.883  -1.289  0.00  0.00    +0.006 A 
ATOM     24  C   UNL     1      -5.065   3.409  -0.387  0.00  0.00    +0.004 A 
ATOM     25  C   UNL     1      -3.806   2.853  -0.266  0.00  0.00    +0.045 A 
ATOM     26  C   UNL     1      -3.451   1.766  -1.051  0.00  0.00    +0.121 A 
ATOM     27  C   UNL     1      -4.360   1.243  -1.960  0.00  0.00    +0.051 A 
BRANCH  26  28
ATOM     28  O   UNL     1      -2.213   1.218  -0.933  0.00  0.00    -0.488 OA
BRANCH  28  29
ATOM     29  C   UNL     1      -1.328   1.812   0.018  0.00  0.00    +0.256 C 
BRANCH  29  30
ATOM     30  C   UNL     1      -0.013   1.076   0.008  0.00  0.00    +0.006 C 
ATOM     31  C   UNL     1       1.113   1.746   0.001  0.00  0.00    +0.007 C 
ENDBRANCH  29  30
ENDBRANCH  28  29
ENDBRANCH  26  28
ENDBRANCH   8  22
BRANCH   3  32
ATOM     32  C   UNL     1      -4.500   5.947  -6.563  0.00  0.00    +0.347 C 
ATOM     33  O   UNL     1      -4.883   6.923  -7.179  0.00  0.00    -0.244 OA
BRANCH  32  34
ATOM     34  O   UNL     1      -3.186   5.642  -6.532  0.00  0.00    -0.464 OA
ATOM     35  C   UNL     1      -2.301   6.510  -7.243  0.00  0.00    +0.280 C 
ENDBRANCH  32  34
ENDBRANCH   3  32
TORSDOF 6
