REMARK  Name = ZINC63138616
REMARK  7 active torsions:
REMARK  status: ('A' for Active; 'I' for Inactive)
REMARK    1  A    between atoms: C_1  and  O_2
REMARK    2  A    between atoms: O_2  and  C_3
REMARK    3  A    between atoms: C_6  and  O_37
REMARK    4  A    between atoms: C_7  and  C_9
REMARK    5  A    between atoms: N_28  and  C_31
REMARK    6  A    between atoms: C_31  and  C_32
REMARK    7  A    between atoms: O_37  and  C_38
REMARK                            x       y       z     vdW  Elec       q    Type
REMARK                         _______ _______ _______ _____ _____    ______ ____
ROOT
ATOM      1  C   UNL     1       1.323  -4.108  -2.285  0.00  0.00    +0.137 C 
ATOM      2  C   UNL     1       0.143  -4.627  -3.112  0.00  0.00    +0.131 C 
ATOM      3  C   UNL     1      -1.112  -4.392  -2.281  0.00  0.00    -0.034 C 
ATOM      4  C   UNL     1      -1.933  -3.672  -3.036  0.00  0.00    -0.001 A 
ATOM      5  C   UNL     1      -3.309  -3.200  -2.812  0.00  0.00    +0.010 A 
ATOM      6  C   UNL     1      -3.859  -2.461  -3.812  0.00  0.00    +0.001 A 
ATOM      7  C   UNL     1      -3.186  -2.148  -4.996  0.00  0.00    +0.002 A 
ATOM      8  C   UNL     1      -1.922  -2.545  -5.289  0.00  0.00    +0.026 A 
ATOM      9  C   UNL     1      -1.240  -3.333  -4.316  0.00  0.00    +0.043 A 
ATOM     10  N   UNL     1      -0.033  -3.866  -4.351  0.00  0.00    -0.375 N 
ATOM     11  C   UNL     1      -1.236  -4.868  -0.854  0.00  0.00    +0.065 C 
ATOM     12  C   UNL     1       0.031  -4.393  -0.120  0.00  0.00    +0.167 C 
ATOM     13  N   UNL     1       1.211  -4.687  -0.928  0.00  0.00    -0.279 N 
ATOM     14  C   UNL     1       2.209  -5.468  -0.495  0.00  0.00    +0.234 C 
ATOM     15  O   UNL     1       3.136  -5.667  -1.251  0.00  0.00    -0.274 OA
ATOM     16  C   UNL     1       2.261  -6.110   0.851  0.00  0.00    +0.204 C 
ATOM     17  N   UNL     1       1.098  -5.786   1.660  0.00  0.00    -0.286 N 
ATOM     18  C   UNL     1       0.091  -5.019   1.234  0.00  0.00    +0.237 C 
ATOM     19  O   UNL     1      -0.831  -4.815   1.995  0.00  0.00    -0.274 OA
ATOM     20  H   UNL     1       0.624  -3.773  -5.058  0.00  0.00    +0.160 HD
ENDROOT
BRANCH   1  25
ATOM     21  C   UNL     1       0.119  -0.597  -1.575  0.00  0.00    +0.121 A 
ATOM     22  C   UNL     1       1.175   0.161  -2.060  0.00  0.00    +0.049 A 
ATOM     23  C   UNL     1       2.275  -0.462  -2.617  0.00  0.00    +0.049 A 
ATOM     24  C   UNL     1       2.324  -1.846  -2.690  0.00  0.00    +0.125 A 
ATOM     25  C   UNL     1       1.269  -2.604  -2.205  0.00  0.00    +0.020 A 
ATOM     26  C   UNL     1       0.172  -1.981  -1.644  0.00  0.00    +0.054 A 
BRANCH  21  28
ATOM     27  C   UNL     1      -0.950   1.445  -0.990  0.00  0.00    +0.277 C 
ATOM     28  O   UNL     1      -0.964   0.016  -1.028  0.00  0.00    -0.495 OA
ENDBRANCH  21  28
BRANCH  24  29
ATOM     29  O   UNL     1       3.407  -2.459  -3.239  0.00  0.00    -0.495 OA
ATOM     30  C   UNL     1       4.456  -1.617  -3.719  0.00  0.00    +0.277 C 
ENDBRANCH  24  29
ENDBRANCH   1  25
BRANCH  17  31
ATOM     31  C   UNL     1       1.024  -6.333   3.017  0.00  0.00    +0.150 C 
BRANCH  31  32
ATOM     32  C   UNL     1       1.667  -5.371   3.982  0.00  0.00    +0.007 A 
ATOM     33  C   UNL     1       1.102  -4.352   4.676  0.00  0.00    +0.013 A 
ATOM     34  C   UNL     1       1.895  -3.592   5.515  0.00  0.00    +0.008 A 
ATOM     35  C   UNL     1       3.213  -3.887   5.620  0.00  0.00    +0.045 A 
ATOM     36  S   UNL     1       3.368  -5.282   4.516  0.00  0.00    -0.100 S 
ENDBRANCH  31  32
ENDBRANCH  17  31
TORSDOF 5
