REMARK  Name = ZINC14464263
REMARK  4 active torsions:
REMARK  status: ('A' for Active; 'I' for Inactive)
REMARK    1  A    between atoms: C_1  and  C_2
REMARK    2  A    between atoms: C_2  and  N_3
REMARK    3  A    between atoms: C_4  and  C_6
REMARK    4  A    between atoms: C_13  and  C_22
REMARK                            x       y       z     vdW  Elec       q    Type
REMARK                         _______ _______ _______ _____ _____    ______ ____
ROOT
ATOM      1  C   UNL     1       3.615   6.248  -0.324  0.00  0.00    +0.058 A 
ATOM      2  C   UNL     1       4.776   6.284   0.446  0.00  0.00    +0.015 A 
ATOM      3  C   UNL     1       4.730   5.948   1.781  0.00  0.00    +0.001 A 
ATOM      4  C   UNL     1       3.529   5.566   2.355  0.00  0.00    +0.006 A 
ATOM      5  C   UNL     1       2.373   5.516   1.607  0.00  0.00    -0.019 A 
ATOM      6  C   UNL     1       2.386   5.865   0.254  0.00  0.00    +0.044 A 
ATOM      7  N   UNL     1       1.268   5.864  -0.562  0.00  0.00    -0.336 N 
ATOM      8  C   UNL     1       0.012   5.378   0.031  0.00  0.00    +0.105 C 
ATOM      9  C   UNL     1      -0.034   5.887   1.457  0.00  0.00    +0.029 C 
ATOM     10  C   UNL     1       1.085   5.087   2.195  0.00  0.00    +0.049 C 
ATOM     11  C   UNL     1       0.741   5.302   3.621  0.00  0.00    -0.023 C 
ATOM     12  C   UNL     1      -0.572   5.480   3.717  0.00  0.00    -0.030 C 
ATOM     13  C   UNL     1      -1.208   5.431   2.325  0.00  0.00    +0.033 C 
ATOM     14  H   UNL     1       1.459   5.398  -1.437  0.00  0.00    +0.147 HD
ENDROOT
BRANCH   8  15
ATOM     15  C   UNL     1      -0.011   3.871   0.022  0.00  0.00    -0.019 A 
ATOM     16  C   UNL     1       1.156   3.169   0.008  0.00  0.00    +0.006 A 
ATOM     17  C   UNL     1       1.155   1.776   0.001  0.00  0.00    +0.001 A 
ATOM     18  C   UNL     1      -0.013   1.076   0.008  0.00  0.00    +0.008 A 
ATOM     19  C   UNL     1      -1.237   1.765   0.018  0.00  0.00    -0.018 A 
ATOM     20  C   UNL     1      -1.236   3.183   0.030  0.00  0.00    -0.013 A 
ATOM     21  C   UNL     1      -2.460   3.873   0.045  0.00  0.00    +0.009 A 
ATOM     22  C   UNL     1      -3.627   3.172   0.053  0.00  0.00    +0.001 A 
ATOM     23  C   UNL     1      -3.628   1.779   0.045  0.00  0.00    +0.001 A 
ATOM     24  C   UNL     1      -2.462   1.077   0.029  0.00  0.00    +0.008 A 
ENDBRANCH   8  15
BRANCH   1  26
ATOM     25  N   UNL     1       4.843   6.976  -2.308  0.00  0.00    -0.312 N 
ATOM     26  C   UNL     1       3.671   6.611  -1.752  0.00  0.00    +0.246 C 
ATOM     27  O   UNL     1       2.661   6.580  -2.427  0.00  0.00    -0.270 OA
ATOM     28  H   UNL     1       5.649   7.001  -1.769  0.00  0.00    +0.149 HD
BRANCH  25  30
ATOM     29  C   UNL     1       6.335   7.710  -4.102  0.00  0.00    +0.024 C 
ATOM     30  C   UNL     1       4.899   7.337  -3.727  0.00  0.00    +0.101 C 
ENDBRANCH  25  30
ENDBRANCH   1  26
TORSDOF 3
