REMARK  Name = ZINC02481959
REMARK  6 active torsions:
REMARK  status: ('A' for Active; 'I' for Inactive)
REMARK    1  A    between atoms: C_1  and  C_2
REMARK    2  A    between atoms: C_3  and  C_22
REMARK    3  A    between atoms: C_4  and  C_10
REMARK    4  A    between atoms: C_15  and  O_16
REMARK    5  A    between atoms: O_16  and  C_17
REMARK    6  A    between atoms: N_24  and  C_25
REMARK                            x       y       z     vdW  Elec       q    Type
REMARK                         _______ _______ _______ _____ _____    ______ ____
ROOT
ATOM      1  C   UNL     1       2.667  -1.423   0.299  0.00  0.00    +0.061 C 
ATOM      2  C   UNL     1       1.351  -2.047  -0.088  0.00  0.00    +0.017 C 
ATOM      3  C   UNL     1       0.205  -1.555   0.429  0.00  0.00    +0.056 C 
ATOM      4  C   UNL     1      -1.095  -2.212   0.013  0.00  0.00    +0.143 C 
ATOM      5  N   UNL     1      -1.002  -3.340  -0.929  0.00  0.00    -0.315 N 
ATOM      6  C   UNL     1       0.218  -3.717  -1.359  0.00  0.00    +0.135 C 
ATOM      7  N   UNL     1       1.337  -3.097  -0.961  0.00  0.00    -0.300 N 
ATOM      8  S   UNL     1       0.343  -5.028  -2.453  0.00  0.00    -0.019 S 
ATOM      9  H   UNL     1       2.184  -3.414  -1.310  0.00  0.00    +0.154 HD
ATOM     10  H   UNL     1      -1.800  -3.801  -1.232  0.00  0.00    +0.149 HD
ENDROOT
BRANCH   4  11
ATOM     11  C   UNL     1      -1.788  -2.703   1.258  0.00  0.00    +0.019 A 
ATOM     12  C   UNL     1      -1.077  -2.857   2.430  0.00  0.00    +0.013 A 
ATOM     13  C   UNL     1      -1.705  -3.308   3.584  0.00  0.00    -0.044 A 
ATOM     14  C   UNL     1      -3.051  -3.600   3.561  0.00  0.00    -0.041 A 
ATOM     15  C   UNL     1      -3.768  -3.450   2.382  0.00  0.00    +0.050 A 
ATOM     16  C   UNL     1      -3.143  -2.996   1.232  0.00  0.00    +0.126 A 
ATOM     17  C   UNL     1      -3.799  -4.077   4.779  0.00  0.00    +0.035 C 
ATOM     18  C   UNL     1      -2.827  -4.594   5.837  0.00  0.00    +0.005 C 
ATOM     19  C   UNL     1      -1.750  -3.527   6.068  0.00  0.00    +0.005 C 
ATOM     20  C   UNL     1      -0.865  -3.459   4.825  0.00  0.00    +0.035 C 
BRANCH  16  21
ATOM     21  O   UNL     1      -3.853  -2.845   0.083  0.00  0.00    -0.495 OA
ATOM     22  C   UNL     1      -5.263  -3.060   0.159  0.00  0.00    +0.277 C 
ENDBRANCH  16  21
ENDBRANCH   4  11
BRANCH   3  23
ATOM     23  C   UNL     1       0.219  -0.463   1.331  0.00  0.00    +0.243 C 
ATOM     24  O   UNL     1       1.278  -0.021   1.736  0.00  0.00    -0.270 OA
ATOM     25  N   UNL     1      -0.942   0.086   1.741  0.00  0.00    -0.315 N 
ATOM     26  C   UNL     1      -0.927   1.282   2.587  0.00  0.00    +0.128 C 
ATOM     27  H   UNL     1      -1.786  -0.310   1.476  0.00  0.00    +0.149 HD
ENDBRANCH   3  23
TORSDOF 3
