REMARK  Name = ZINC20775144
REMARK  5 active torsions:
REMARK  status: ('A' for Active; 'I' for Inactive)
REMARK    1  A    between atoms: C_3  and  C_6
REMARK    2  A    between atoms: C_6  and  N_7
REMARK    3  A    between atoms: C_12  and  C_14
REMARK    4  A    between atoms: N_16  and  C_17
REMARK    5  A    between atoms: C_20  and  N_23
REMARK                            x       y       z     vdW  Elec       q    Type
REMARK                         _______ _______ _______ _____ _____    ______ ____
ROOT
ATOM      1  C   UNL     1      -6.727  -1.092  -0.064  0.00  0.00    +0.204 C 
ATOM      2  O   UNL     1      -5.931  -1.815   0.497  0.00  0.00    -0.277 OA
ATOM      3  N   UNL     1      -6.322   0.086  -0.578  0.00  0.00    -0.287 N 
ATOM      4  H   UNL     1      -7.058   0.776  -1.018  0.00  0.00    +0.155 HD
ENDROOT
BRANCH   1  10
ATOM      5  N   UNL     1      -8.255  -2.978  -0.182  0.00  0.00    +0.390 N 
ATOM      6  C   UNL     1      -9.643  -3.429  -0.340  0.00  0.00    -0.077 C 
ATOM      7  C   UNL     1     -10.482  -2.925   0.836  0.00  0.00    -0.019 C 
ATOM      8  C   UNL     1     -10.425  -1.396   0.879  0.00  0.00    -0.003 C 
ATOM      9  C   UNL     1      -8.965  -0.951   0.996  0.00  0.00    -0.006 C 
ATOM     10  C   UNL     1      -8.170  -1.512  -0.185  0.00  0.00    +0.020 C 
ATOM     11  H   UNL     1      -7.897  -3.332   0.796  0.00  0.00    -0.080 HD
BRANCH   5  12
ATOM     12  C   UNL     1      -7.391  -3.557  -1.219  0.00  0.00    -0.035 C 
BRANCH  12  15
ATOM     13  C   UNL     1      -7.572  -7.356  -1.002  0.00  0.00    +0.008 A 
ATOM     14  C   UNL     1      -7.942  -6.078  -1.375  0.00  0.00    +0.009 A 
ATOM     15  C   UNL     1      -7.199  -5.027  -0.948  0.00  0.00    -0.027 A 
ATOM     16  S   UNL     1      -5.939  -5.837   0.024  0.00  0.00    -0.103 S 
ATOM     17  C   UNL     1      -6.483  -7.521  -0.211  0.00  0.00    +0.045 A 
ENDBRANCH  12  15
ENDBRANCH   5  12
ENDBRANCH   1  10
BRANCH   3  18
ATOM     18  C   UNL     1      -4.966   0.432  -0.552  0.00  0.00    +0.033 A 
ATOM     19  C   UNL     1      -4.412   1.148  -1.605  0.00  0.00    +0.025 A 
ATOM     20  C   UNL     1      -3.075   1.489  -1.579  0.00  0.00    +0.030 A 
ATOM     21  C   UNL     1      -2.284   1.116  -0.501  0.00  0.00    +0.069 A 
ATOM     22  C   UNL     1      -2.837   0.395   0.549  0.00  0.00    +0.030 A 
ATOM     23  C   UNL     1      -4.175   0.059   0.527  0.00  0.00    +0.025 A 
BRANCH  21  24
ATOM     24  N   UNL     1      -0.924   1.462  -0.475  0.00  0.00    -0.200 N 
ATOM     25  C   UNL     1      -0.024   1.179   0.491  0.00  0.00    +0.250 A 
ATOM     26  N   UNL     1       1.123   1.679   0.112  0.00  0.00    -0.116 NA
ATOM     27  N   UNL     1       1.008   2.265  -1.026  0.00  0.00    -0.023 NA
ATOM     28  N   UNL     1      -0.207   2.180  -1.449  0.00  0.00    -0.039 NA
ENDBRANCH  21  24
ENDBRANCH   3  18
TORSDOF 5
