REMARK  Name = ZINC00894559
REMARK  10 active torsions:
REMARK  status: ('A' for Active; 'I' for Inactive)
REMARK    1  A    between atoms: C_1  and  C_2
REMARK    2  A    between atoms: C_2  and  N_62
REMARK    3  A    between atoms: C_3  and  C_4
REMARK    4  A    between atoms: C_3  and  N_62
REMARK    5  A    between atoms: C_5  and  C_7
REMARK    6  A    between atoms: C_5  and  C_21
REMARK    7  A    between atoms: C_5  and  N_62
REMARK    8  A    between atoms: C_10  and  C_20
REMARK    9  A    between atoms: C_12  and  C_19
REMARK   10  A    between atoms: N_25  and  C_26
REMARK                            x       y       z     vdW  Elec       q    Type
REMARK                         _______ _______ _______ _____ _____    ______ ____
ROOT
ATOM      1  C   UNL     1      -3.664   6.370   0.249  0.00  0.00    +0.039 C 
ENDROOT
BRANCH   1   2
ATOM      2  C   UNL     1      -2.455   5.489   0.063  0.00  0.00    +0.011 A 
ATOM      3  C   UNL     1      -2.562   4.149   0.243  0.00  0.00    +0.018 A 
ATOM      4  C   UNL     1      -1.369   3.322   0.055  0.00  0.00    +0.002 A 
ATOM      5  C   UNL     1      -1.418   1.933   0.220  0.00  0.00    -0.041 A 
ATOM      6  C   UNL     1      -0.286   1.190   0.043  0.00  0.00    +0.007 A 
ATOM      7  C   UNL     1       0.911   1.798  -0.311  0.00  0.00    -0.048 A 
ATOM      8  C   UNL     1       0.981   3.164  -0.485  0.00  0.00    +0.029 A 
ATOM      9  C   UNL     1      -0.158   3.942  -0.304  0.00  0.00    +0.050 A 
ATOM     10  N   UNL     1      -0.116   5.310  -0.472  0.00  0.00    -0.322 N 
ATOM     11  H   UNL     1       0.746   5.749  -0.727  0.00  0.00    +0.169 HD
ATOM     12  C   UNL     1      -1.217   6.062  -0.297  0.00  0.00    +0.251 A 
ATOM     13  O   UNL     1      -1.143   7.268  -0.454  0.00  0.00    -0.268 OA
ATOM     14  C   UNL     1       2.146   0.957  -0.507  0.00  0.00    +0.044 C 
ATOM     15  C   UNL     1      -2.713   1.262   0.599  0.00  0.00    +0.044 C 
ENDBRANCH   1   2
BRANCH   1  16
ATOM     16  C   UNL     1      -3.918   7.148  -1.017  0.00  0.00    +0.143 A 
ATOM     17  N   UNL     1      -3.236   8.181  -1.450  0.00  0.00    -0.115 NA
ATOM     18  N   UNL     1      -3.760   8.565  -2.563  0.00  0.00    -0.023 NA
ATOM     19  N   UNL     1      -4.758   7.804  -2.851  0.00  0.00    -0.044 NA
ATOM     20  N   UNL     1      -4.884   6.914  -1.924  0.00  0.00    -0.227 N 
BRANCH  20  21
ATOM     21  C   UNL     1      -5.891   5.852  -1.869  0.00  0.00    +0.111 C 
ATOM     22  C   UNL     1      -5.750   4.950  -3.097  0.00  0.00    +0.027 C 
ATOM     23  C   UNL     1      -6.802   3.841  -3.039  0.00  0.00    +0.002 C 
ATOM     24  C   UNL     1      -8.199   4.464  -3.022  0.00  0.00    +0.000 C 
ATOM     25  C   UNL     1      -8.341   5.365  -1.794  0.00  0.00    +0.002 C 
ATOM     26  C   UNL     1      -7.288   6.475  -1.851  0.00  0.00    +0.027 C 
ENDBRANCH  20  21
ENDBRANCH   1  16
BRANCH   1  27
ATOM     27  N   UNL     1      -3.403   7.320   1.350  0.00  0.00    +0.389 N 
ATOM     28  H   UNL     1      -2.634   7.943   1.078  0.00  0.00    -0.080 HD
BRANCH  27  30
ATOM     29  C   UNL     1      -4.689   9.244   0.563  0.00  0.00    -0.017 C 
ATOM     30  C   UNL     1      -4.609   8.133   1.613  0.00  0.00    -0.081 C 
ENDBRANCH  27  30
BRANCH  27  31
ATOM     31  C   UNL     1      -3.015   6.583   2.571  0.00  0.00    -0.081 C 
ATOM     32  C   UNL     1      -1.544   6.178   2.452  0.00  0.00    -0.017 C 
ENDBRANCH  27  31
ENDBRANCH   1  27
TORSDOF 6
