REMARK  Name = ZINC08682348
REMARK  9 active torsions:
REMARK  status: ('A' for Active; 'I' for Inactive)
REMARK    1  A    between atoms: C_1  and  C_2
REMARK    2  A    between atoms: C_2  and  C_3
REMARK    3  A    between atoms: C_7  and  C_37
REMARK    4  A    between atoms: C_8  and  N_9
REMARK    5  A    between atoms: C_10  and  C_12
REMARK    6  A    between atoms: N_15  and  S_28
REMARK    7  A    between atoms: N_18  and  S_19
REMARK    8  A    between atoms: S_19  and  C_22
REMARK    9  A    between atoms: S_28  and  C_31
REMARK                            x       y       z     vdW  Elec       q    Type
REMARK                         _______ _______ _______ _____ _____    ______ ____
ROOT
ATOM      1  C   UNL     1      -1.270   0.009  -5.668  0.00  0.00    +0.181 C 
ATOM      2  C   UNL     1       0.057  -0.630  -6.098  0.00  0.00    +0.139 C 
ATOM      3  N   UNL     1       0.229  -0.430  -7.543  0.00  0.00    -0.173 NA
ATOM      4  C   UNL     1      -0.830  -0.890  -8.453  0.00  0.00    +0.126 C 
ATOM      5  C   UNL     1      -2.157  -0.252  -8.024  0.00  0.00    +0.127 C 
ATOM      6  N   UNL     1      -2.330  -0.448  -6.577  0.00  0.00    -0.162 NA
ENDROOT
BRANCH   1   8
ATOM      7  N   UNL     1      -1.636   0.514  -3.275  0.00  0.00    -0.284 N 
ATOM      8  C   UNL     1      -1.598  -0.407  -4.258  0.00  0.00    +0.237 C 
ATOM      9  O   UNL     1      -1.829  -1.571  -4.007  0.00  0.00    -0.274 OA
ATOM     10  H   UNL     1      -1.474   1.448  -3.479  0.00  0.00    +0.155 HD
BRANCH   7  16
ATOM     11  C   UNL     1      -2.779   0.871  -1.178  0.00  0.00    -0.026 A 
ATOM     12  C   UNL     1      -3.051   0.478   0.119  0.00  0.00    +0.005 A 
ATOM     13  C   UNL     1      -2.452  -0.654   0.640  0.00  0.00    +0.001 A 
ATOM     14  C   UNL     1      -1.581  -1.397  -0.134  0.00  0.00    +0.005 A 
ATOM     15  C   UNL     1      -1.305  -1.011  -1.431  0.00  0.00    -0.029 A 
ATOM     16  C   UNL     1      -1.909   0.123  -1.959  0.00  0.00    +0.040 A 
ATOM     17  C   UNL     1      -0.355  -1.822  -2.274  0.00  0.00    +0.045 C 
BRANCH  11  19
ATOM     18  C   UNL     1      -4.695   1.707  -2.511  0.00  0.00    +0.009 C 
ATOM     19  C   UNL     1      -3.432   2.105  -1.745  0.00  0.00    +0.033 C 
ENDBRANCH  11  19
ENDBRANCH   7  16
ENDBRANCH   1   8
BRANCH   6  20
ATOM     20  S   UNL     1      -3.694  -1.177  -5.983  0.00  0.00    +0.062 S 
ATOM     21  O   UNL     1      -3.892  -0.660  -4.674  0.00  0.00    -0.153 OA
ATOM     22  O   UNL     1      -4.682  -1.078  -6.999  0.00  0.00    -0.153 OA
BRANCH  20  23
ATOM     23  C   UNL     1      -3.330  -2.891  -5.798  0.00  0.00    +0.106 A 
ATOM     24  C   UNL     1      -3.115  -3.676  -6.916  0.00  0.00    +0.028 A 
ATOM     25  C   UNL     1      -2.829  -5.021  -6.771  0.00  0.00    +0.002 A 
ATOM     26  C   UNL     1      -2.759  -5.580  -5.509  0.00  0.00    +0.000 A 
ATOM     27  C   UNL     1      -2.973  -4.795  -4.391  0.00  0.00    +0.002 A 
ATOM     28  C   UNL     1      -3.255  -3.450  -4.536  0.00  0.00    +0.028 A 
ENDBRANCH  20  23
ENDBRANCH   6  20
BRANCH   3  29
ATOM     29  S   UNL     1       1.590   0.302  -8.137  0.00  0.00    +0.061 S 
ATOM     30  O   UNL     1       1.241   0.844  -9.403  0.00  0.00    -0.153 OA
ATOM     31  O   UNL     1       2.114   1.101  -7.085  0.00  0.00    -0.153 OA
BRANCH  29  32
ATOM     32  C   UNL     1       2.773  -0.968  -8.442  0.00  0.00    +0.105 A 
ATOM     33  C   UNL     1       3.654  -1.346  -7.445  0.00  0.00    +0.028 A 
ATOM     34  C   UNL     1       4.582  -2.342  -7.685  0.00  0.00    +0.002 A 
ATOM     35  C   UNL     1       4.630  -2.960  -8.920  0.00  0.00    +0.000 A 
ATOM     36  C   UNL     1       3.749  -2.582  -9.917  0.00  0.00    +0.002 A 
ATOM     37  C   UNL     1       2.818  -1.589  -9.676  0.00  0.00    +0.028 A 
ENDBRANCH  29  32
ENDBRANCH   3  29
TORSDOF 7
