REMARK  Name = ZINC59121948
REMARK  9 active torsions:
REMARK  status: ('A' for Active; 'I' for Inactive)
REMARK    1  A    between atoms: C_1  and  C_2
REMARK    2  A    between atoms: C_3  and  C_28
REMARK    3  A    between atoms: N_6  and  C_7
REMARK    4  A    between atoms: C_7  and  C_8
REMARK    5  A    between atoms: N_14  and  C_21
REMARK    6  A    between atoms: C_16  and  C_18
REMARK    7  A    between atoms: C_18  and  C_20
REMARK    8  A    between atoms: C_28  and  O_30
REMARK    9  A    between atoms: O_30  and  C_31
REMARK                            x       y       z     vdW  Elec       q    Type
REMARK                         _______ _______ _______ _____ _____    ______ ____
ROOT
ATOM      1  C   UNL     1      -0.201   1.887   0.316  0.00  0.00    +0.062 C 
ATOM      2  C   UNL     1      -0.125   0.407   0.046  0.00  0.00    +0.027 C 
ATOM      3  C   UNL     1      -0.264  -0.036  -1.228  0.00  0.00    +0.113 C 
ATOM      4  S   UNL     1      -0.107  -1.813  -1.067  0.00  0.00    -0.058 S 
ATOM      5  C   UNL     1       0.139  -1.849   0.740  0.00  0.00    +0.229 C 
ATOM      6  N   UNL     1       0.084  -0.441   1.086  0.00  0.00    -0.288 N 
ATOM      7  N   UNL     1       1.344  -2.560   1.133  0.00  0.00    -0.180 N 
ATOM      8  N   UNL     1       1.123  -3.670   1.934  0.00  0.00    -0.166 NA
ATOM      9  C   UNL     1      -0.076  -4.048   2.307  0.00  0.00    +0.162 C 
ATOM     10  S   UNL     1      -1.160  -2.840   1.553  0.00  0.00    -0.042 S 
ENDROOT
BRANCH   7  11
ATOM     11  C   UNL     1       2.619  -2.158   0.737  0.00  0.00    +0.056 A 
ATOM     12  C   UNL     1       2.778  -1.032  -0.063  0.00  0.00    +0.026 A 
ATOM     13  C   UNL     1       4.042  -0.637  -0.454  0.00  0.00    +0.017 A 
ATOM     14  C   UNL     1       5.150  -1.361  -0.050  0.00  0.00    +0.018 A 
ATOM     15  C   UNL     1       4.996  -2.482   0.746  0.00  0.00    +0.017 A 
ATOM     16  C   UNL     1       3.735  -2.880   1.145  0.00  0.00    +0.026 A 
ATOM     17 BR   UNL     1       6.879  -0.817  -0.589  0.00  0.00    -0.050 Br
ENDBRANCH   7  11
BRANCH   9  18
ATOM     18  C   UNL     1      -0.431  -5.154   3.117  0.00  0.00    +0.186 C 
ATOM     19  O   UNL     1      -1.599  -5.370   3.373  0.00  0.00    -0.290 OA
ATOM     20  C   UNL     1       0.640  -6.063   3.663  0.00  0.00    +0.094 C 
ENDBRANCH   9  18
BRANCH   3  21
ATOM     21  C   UNL     1      -0.480   0.724  -2.404  0.00  0.00    +0.347 C 
ATOM     22  O   UNL     1      -0.564   1.936  -2.338  0.00  0.00    -0.244 OA
BRANCH  21  23
ATOM     23  O   UNL     1      -0.594   0.103  -3.597  0.00  0.00    -0.464 OA
ATOM     24  C   UNL     1      -0.812   0.931  -4.741  0.00  0.00    +0.280 C 
ENDBRANCH  21  23
ENDBRANCH   3  21
BRANCH   6  25
ATOM     25  C   UNL     1       0.241   0.034   2.463  0.00  0.00    +0.143 C 
BRANCH  25  26
ATOM     26  C   UNL     1       1.682   0.402   2.707  0.00  0.00    -0.030 A 
ATOM     27  C   UNL     1       2.543  -0.518   3.276  0.00  0.00    +0.005 A 
ATOM     28  C   UNL     1       3.865  -0.180   3.499  0.00  0.00    +0.000 A 
ATOM     29  C   UNL     1       4.325   1.077   3.154  0.00  0.00    +0.000 A 
ATOM     30  C   UNL     1       3.464   1.996   2.584  0.00  0.00    +0.000 A 
ATOM     31  C   UNL     1       2.143   1.657   2.356  0.00  0.00    +0.005 A 
ENDBRANCH  25  26
ENDBRANCH   6  25
TORSDOF 6
