REMARK  Name = ZINC12310012
REMARK  9 active torsions:
REMARK  status: ('A' for Active; 'I' for Inactive)
REMARK    1  A    between atoms: C_1  and  C_2
REMARK    2  A    between atoms: C_2  and  C_3
REMARK    3  A    between atoms: C_2  and  C_4
REMARK    4  A    between atoms: C_10  and  N_11
REMARK    5  A    between atoms: N_11  and  O_12
REMARK    6  A    between atoms: O_12  and  C_13
REMARK    7  A    between atoms: C_13  and  C_14
REMARK    8  A    between atoms: N_24  and  C_29
REMARK    9  A    between atoms: N_27  and  C_28
REMARK                            x       y       z     vdW  Elec       q    Type
REMARK                         _______ _______ _______ _____ _____    ______ ____
ROOT
ATOM      1  C   UNL     1      -1.374   5.989  -0.478  0.00  0.00    -0.003 A 
ATOM      2  C   UNL     1      -2.483   5.232  -0.457  0.00  0.00    +0.090 A 
ATOM      3  N   UNL     1      -2.471   3.946   0.010  0.00  0.00    -0.347 N 
ATOM      4  H   UNL     1      -3.418   3.433   0.234  0.00  0.00    +0.167 HD
ATOM      5  C   UNL     1      -1.313   3.262   0.213  0.00  0.00    +0.129 A 
ATOM      6  C   UNL     1      -0.100   3.944   0.230  0.00  0.00    +0.106 A 
ATOM      7  C   UNL     1      -0.111   5.403   0.013  0.00  0.00    +0.082 A 
ATOM      8  C   UNL     1       1.099   3.227   0.450  0.00  0.00    +0.268 A 
ATOM      9  O   UNL     1       2.172   3.803   0.471  0.00  0.00    -0.267 OA
ATOM     10  N   UNL     1       1.032   1.890   0.635  0.00  0.00    -0.263 N 
ATOM     11  C   UNL     1      -0.150   1.251   0.611  0.00  0.00    +0.333 A 
ATOM     12  O   UNL     1      -0.174   0.048   0.779  0.00  0.00    -0.246 OA
ATOM     13  N   UNL     1      -1.309   1.903   0.400  0.00  0.00    -0.282 N 
ATOM     14  C   UNL     1      -2.571   1.160   0.376  0.00  0.00    +0.155 C 
ATOM     15  C   UNL     1       2.262   1.128   0.866  0.00  0.00    +0.157 C 
ENDROOT
BRANCH   1  17
ATOM     16  C   UNL     1      -1.134   7.411  -2.496  0.00  0.00    +0.012 C 
ATOM     17  C   UNL     1      -1.417   7.405  -0.992  0.00  0.00    +0.016 C 
ATOM     18  C   UNL     1      -2.802   8.000  -0.732  0.00  0.00    +0.012 C 
ENDBRANCH   1  17
BRANCH   7  19
ATOM     19  N   UNL     1       0.950   6.143   0.244  0.00  0.00    -0.264 N 
ATOM     20  H   UNL     1       1.065   7.113  -0.262  0.00  0.00    +0.194 HD
BRANCH  19  21
ATOM     21  O   UNL     1       1.944   5.693   1.146  0.00  0.00    -0.269 OA
BRANCH  21  22
ATOM     22  C   UNL     1       2.984   6.644   1.387  0.00  0.00    +0.229 C 
BRANCH  22  23
ATOM     23  C   UNL     1       4.033   6.027   2.275  0.00  0.00    -0.001 A 
ATOM     24  C   UNL     1       3.829   4.771   2.816  0.00  0.00    +0.009 A 
ATOM     25  C   UNL     1       4.793   4.202   3.626  0.00  0.00    +0.020 A 
ATOM     26  C   UNL     1       5.959   4.894   3.905  0.00  0.00    +0.042 A 
ATOM     27  C   UNL     1       6.161   6.153   3.369  0.00  0.00    +0.040 A 
ATOM     28  C   UNL     1       5.198   6.719   2.553  0.00  0.00    +0.048 A 
ATOM     29 CL   UNL     1       5.450   8.299   1.880  0.00  0.00    -0.083 Cl
ATOM     30 CL   UNL     1       7.168   4.182   4.928  0.00  0.00    -0.083 Cl
ENDBRANCH  22  23
ENDBRANCH  21  22
ENDBRANCH  19  21
ENDBRANCH   7  19
TORSDOF 5
