REMARK  Name = ZINC13221849
REMARK  10 active torsions:
REMARK  status: ('A' for Active; 'I' for Inactive)
REMARK    1  A    between atoms: C_1  and  C_2
REMARK    2  A    between atoms: C_3  and  C_27
REMARK    3  A    between atoms: C_4  and  C_26
REMARK    4  A    between atoms: C_9  and  S_11
REMARK    5  A    between atoms: S_11  and  C_12
REMARK    6  A    between atoms: C_12  and  C_13
REMARK    7  A    between atoms: N_15  and  C_16
REMARK    8  A    between atoms: C_16  and  C_17
REMARK    9  A    between atoms: C_17  and  C_18
REMARK   10  A    between atoms: C_27  and  C_28
REMARK                            x       y       z     vdW  Elec       q    Type
REMARK                         _______ _______ _______ _____ _____    ______ ____
ROOT
ATOM      1  S   UNL     1      -5.101   5.069   4.308  0.00  0.00    -0.075 S 
ENDROOT
BRANCH   1  10
ATOM      2  C   UNL     1     -11.582   8.233   2.031  0.00  0.00    +0.066 C 
ATOM      3  C   UNL     1     -10.470   7.794   2.948  0.00  0.00    +0.047 A 
ATOM      4  C   UNL     1     -10.531   8.100   4.312  0.00  0.00    +0.006 A 
ATOM      5  C   UNL     1      -9.521   7.698   5.128  0.00  0.00    +0.049 A 
ATOM      6  N   UNL     1      -8.478   7.010   4.596  0.00  0.00    -0.200 N 
ATOM      7  C   UNL     1      -8.448   6.728   3.260  0.00  0.00    +0.254 A 
ATOM      8  N   UNL     1      -9.447   7.127   2.463  0.00  0.00    -0.216 NA
ATOM      9  N   UNL     1      -7.325   6.059   3.020  0.00  0.00    -0.183 NA
ATOM     10  C   UNL     1      -6.646   5.900   4.154  0.00  0.00    +0.211 A 
ATOM     11  N   UNL     1      -7.308   6.466   5.144  0.00  0.00    -0.137 NA
ATOM     12  C   UNL     1      -9.559   8.011   6.602  0.00  0.00    +0.066 C 
BRANCH   4  13
ATOM     13  C   UNL     1     -11.704   8.864   4.870  0.00  0.00    +0.163 C 
BRANCH  13  14
ATOM     14  C   UNL     1     -11.412  10.342   4.814  0.00  0.00    +0.360 C 
ATOM     15  O   UNL     1     -10.361  10.734   4.367  0.00  0.00    -0.246 OA
ATOM     16  O   UNL     1     -12.321  11.223   5.261  0.00  0.00    -0.246 OA
ENDBRANCH  13  14
ENDBRANCH   4  13
ENDBRANCH   1  10
BRANCH   1  17
ATOM     17  C   UNL     1      -4.726   4.524   2.619  0.00  0.00    +0.173 C 
BRANCH  17  18
ATOM     18  C   UNL     1      -3.410   3.788   2.609  0.00  0.00    +0.223 C 
ATOM     19  O   UNL     1      -2.787   3.646   3.639  0.00  0.00    -0.275 OA
ATOM     20  N   UNL     1      -2.927   3.289   1.454  0.00  0.00    -0.314 N 
ATOM     21  H   UNL     1      -3.425   3.402   0.630  0.00  0.00    +0.149 HD
BRANCH  20  22
ATOM     22  C   UNL     1      -1.648   2.574   1.444  0.00  0.00    +0.109 C 
BRANCH  22  23
ATOM     23  C   UNL     1      -1.332   2.114   0.020  0.00  0.00    +0.055 C 
BRANCH  23  24
ATOM     24  C   UNL     1      -0.017   1.378   0.010  0.00  0.00    -0.027 A 
ATOM     25  C   UNL     1       0.002  -0.004   0.002  0.00  0.00    +0.006 A 
ATOM     26  C   UNL     1       1.208  -0.679  -0.013  0.00  0.00    +0.020 A 
ATOM     27  C   UNL     1       2.397   0.028  -0.021  0.00  0.00    +0.042 A 
ATOM     28  C   UNL     1       2.379   1.411  -0.013  0.00  0.00    +0.040 A 
ATOM     29  C   UNL     1       1.172   2.086   0.002  0.00  0.00    +0.046 A 
ATOM     30 CL   UNL     1       1.148   3.822   0.012  0.00  0.00    -0.083 Cl
ATOM     31 CL   UNL     1       3.912  -0.820  -0.039  0.00  0.00    -0.083 Cl
ENDBRANCH  23  24
ENDBRANCH  22  23
ENDBRANCH  20  22
ENDBRANCH  17  18
ENDBRANCH   1  17
TORSDOF 8
