REMARK  Name = ZINC16608086
REMARK  6 active torsions:
REMARK  status: ('A' for Active; 'I' for Inactive)
REMARK    1  A    between atoms: C_1  and  C_2
REMARK    2  A    between atoms: N_6  and  C_31
REMARK    3  A    between atoms: N_15  and  C_18
REMARK    4  A    between atoms: C_18  and  N_67
REMARK    5  A    between atoms: C_21  and  C_24
REMARK    6  A    between atoms: C_24  and  C_25
REMARK                            x       y       z     vdW  Elec       q    Type
REMARK                         _______ _______ _______ _____ _____    ______ ____
ROOT
ATOM      1  C   UNL     1       1.992   8.166   3.781  0.00  0.00    +0.029 C 
ATOM      2  C   UNL     1       2.618   7.293   4.870  0.00  0.00    +0.132 C 
ATOM      3  C   UNL     1       4.086   7.017   4.577  0.00  0.00    +0.234 C 
ATOM      4  O   UNL     1       4.937   7.859   4.771  0.00  0.00    -0.274 OA
ATOM      5  N   UNL     1       4.401   5.814   4.099  0.00  0.00    -0.243 N 
ATOM      6  C   UNL     1       3.337   4.836   3.898  0.00  0.00    +0.193 C 
ATOM      7  S   UNL     1       1.938   5.577   4.825  0.00  0.00    -0.108 S 
ATOM      8  C   UNL     1       2.979   4.631   2.459  0.00  0.00    +0.017 A 
ATOM      9  C   UNL     1       2.585   5.474   1.443  0.00  0.00    +0.009 A 
ATOM     10  C   UNL     1       2.335   4.968   0.180  0.00  0.00    +0.000 A 
ATOM     11  C   UNL     1       2.468   3.612  -0.057  0.00  0.00    +0.002 A 
ATOM     12  C   UNL     1       2.857   2.763   0.958  0.00  0.00    +0.024 A 
ATOM     13  C   UNL     1       3.119   3.264   2.230  0.00  0.00    +0.041 A 
ATOM     14  N   UNL     1       3.518   2.616   3.402  0.00  0.00    -0.285 N 
ATOM     15  C   UNL     1       3.671   3.475   4.431  0.00  0.00    +0.257 C 
ATOM     16  O   UNL     1       4.012   3.202   5.562  0.00  0.00    -0.272 OA
ENDROOT
BRANCH   5  17
ATOM     17  C   UNL     1       5.729   5.494   3.795  0.00  0.00    +0.038 A 
ATOM     18  C   UNL     1       6.200   5.639   2.497  0.00  0.00    +0.023 A 
ATOM     19  C   UNL     1       7.513   5.329   2.201  0.00  0.00    +0.002 A 
ATOM     20  C   UNL     1       8.355   4.861   3.194  0.00  0.00    +0.000 A 
ATOM     21  C   UNL     1       7.887   4.709   4.487  0.00  0.00    +0.002 A 
ATOM     22  C   UNL     1       6.577   5.024   4.790  0.00  0.00    +0.023 A 
ENDBRANCH   5  17
BRANCH  14  23
ATOM     23  C   UNL     1       3.750   1.173   3.501  0.00  0.00    +0.038 C 
BRANCH  23  29
ATOM     24  C   UNL     1       1.624   0.313   2.726  0.00  0.00    -0.076 C 
ATOM     25  C   UNL     1       0.280  -0.254   3.188  0.00  0.00    -0.015 C 
ATOM     26  C   UNL     1       0.512  -1.590   3.898  0.00  0.00    -0.010 C 
ATOM     27  C   UNL     1       1.468  -1.375   5.075  0.00  0.00    -0.015 C 
ATOM     28  C   UNL     1       2.778  -0.775   4.558  0.00  0.00    -0.076 C 
ATOM     29  N   UNL     1       2.489   0.520   3.907  0.00  0.00    +0.390 N 
ATOM     30  H   UNL     1       2.000   1.127   4.576  0.00  0.00    -0.080 HD
BRANCH  26  31
ATOM     31  C   UNL     1      -0.822  -2.132   4.416  0.00  0.00    +0.038 C 
BRANCH  31  32
ATOM     32  C   UNL     1      -0.612  -3.503   5.006  0.00  0.00    -0.047 A 
ATOM     33  C   UNL     1      -0.736  -4.625   4.208  0.00  0.00    +0.003 A 
ATOM     34  C   UNL     1      -0.539  -5.883   4.748  0.00  0.00    +0.000 A 
ATOM     35  C   UNL     1      -0.227  -6.018   6.088  0.00  0.00    +0.000 A 
ATOM     36  C   UNL     1      -0.108  -4.896   6.887  0.00  0.00    +0.000 A 
ATOM     37  C   UNL     1      -0.301  -3.639   6.346  0.00  0.00    +0.003 A 
ENDBRANCH  31  32
ENDBRANCH  26  31
ENDBRANCH  23  29
ENDBRANCH  14  23
TORSDOF 5
