REMARK  Name = ZINC64430510
REMARK  8 active torsions:
REMARK  status: ('A' for Active; 'I' for Inactive)
REMARK    1  A    between atoms: C_1  and  C_2
REMARK    2  A    between atoms: C_2  and  C_3
REMARK    3  A    between atoms: C_2  and  N_4
REMARK    4  A    between atoms: N_4  and  C_5
REMARK    5  A    between atoms: C_11  and  C_13
REMARK    6  A    between atoms: C_13  and  O_14
REMARK    7  A    between atoms: O_14  and  N_15
REMARK    8  A    between atoms: C_16  and  C_17
REMARK                            x       y       z     vdW  Elec       q    Type
REMARK                         _______ _______ _______ _____ _____    ______ ____
ROOT
ATOM      1  N   UNL     1      -4.008   1.355   4.919  0.00  0.00    -0.069 NA
ATOM      2  C   UNL     1      -5.095   1.415   5.629  0.00  0.00    +0.163 C 
ATOM      3  N   UNL     1      -5.164   2.267   6.719  0.00  0.00    -0.340 N 
ATOM      4  H   UNL     1      -4.402   2.819   6.952  0.00  0.00    +0.144 HD
ATOM      5  H   UNL     1      -5.975   2.312   7.249  0.00  0.00    +0.144 HD
ENDROOT
BRANCH   2   6
ATOM      6  C   UNL     1      -6.260   0.572   5.273  0.00  0.00    +0.022 A 
ATOM      7  C   UNL     1      -6.084  -0.672   4.654  0.00  0.00    +0.029 A 
ATOM      8  C   UNL     1      -7.193  -1.428   4.338  0.00  0.00    +0.085 A 
ATOM      9  N   UNL     1      -8.410  -0.997   4.611  0.00  0.00    -0.350 N 
ATOM     10  C   UNL     1      -8.624   0.172   5.195  0.00  0.00    +0.099 A 
ATOM     11  C   UNL     1      -7.561   0.993   5.551  0.00  0.00    +0.053 A 
ATOM     12  N   UNL     1      -9.927   0.580   5.460  0.00  0.00    -0.317 N 
ATOM     13  C   UNL     1     -11.056  -0.336   5.248  0.00  0.00    +0.106 C 
ATOM     14  C   UNL     1     -11.876  -0.414   6.539  0.00  0.00    +0.019 C 
ATOM     15  C   UNL     1     -12.284   0.997   6.967  0.00  0.00    +0.003 C 
ATOM     16  C   UNL     1     -11.030   1.831   7.241  0.00  0.00    +0.019 C 
ATOM     17  C   UNL     1     -10.199   1.933   5.963  0.00  0.00    +0.106 C 
ATOM     18  H   UNL     1      -9.170  -1.552   4.376  0.00  0.00    +0.166 HD
ENDBRANCH   2   6
BRANCH   1  19
ATOM     19  O   UNL     1      -3.984   0.597   3.723  0.00  0.00    -0.383 OA
BRANCH  19  20
ATOM     20  C   UNL     1      -2.727   0.621   3.045  0.00  0.00    +0.358 C 
BRANCH  20  22
ATOM     21  N   UNL     1      -1.718  -0.412   1.036  0.00  0.00    -0.266 N 
ATOM     22  C   UNL     1      -2.815  -0.214   1.794  0.00  0.00    +0.260 C 
ATOM     23  O   UNL     1      -3.874  -0.708   1.468  0.00  0.00    -0.271 OA
BRANCH  21  24
ATOM     24  C   UNL     1      -1.818  -1.114  -0.170  0.00  0.00    +0.037 A 
ATOM     25  C   UNL     1      -0.724  -1.191  -1.022  0.00  0.00    +0.023 A 
ATOM     26  C   UNL     1      -0.826  -1.885  -2.212  0.00  0.00    +0.002 A 
ATOM     27  C   UNL     1      -2.014  -2.503  -2.555  0.00  0.00    +0.000 A 
ATOM     28  C   UNL     1      -3.105  -2.428  -1.708  0.00  0.00    +0.002 A 
ATOM     29  C   UNL     1      -3.009  -1.740  -0.514  0.00  0.00    +0.023 A 
ENDBRANCH  21  24
BRANCH  21  31
ATOM     30  C   UNL     1       0.599  -1.032   1.514  0.00  0.00    +0.028 C 
ATOM     31  C   UNL     1      -0.421   0.108   1.476  0.00  0.00    +0.075 C 
ATOM     32  C   UNL     1       0.054   1.186   0.500  0.00  0.00    +0.028 C 
ENDBRANCH  21  31
ENDBRANCH  20  22
ENDBRANCH  19  20
ENDBRANCH   1  19
TORSDOF 6
