REMARK  Name = ZINC33271394
REMARK  3 active torsions:
REMARK  status: ('A' for Active; 'I' for Inactive)
REMARK    1  A    between atoms: C_1  and  C_2
REMARK    2  A    between atoms: C_13  and  C_16
REMARK    3  A    between atoms: C_21  and  C_23
REMARK                            x       y       z     vdW  Elec       q    Type
REMARK                         _______ _______ _______ _____ _____    ______ ____
ROOT
ATOM      1  C   UNL     1      -1.207  -0.903   0.009  0.00  0.00    +0.068 C 
ATOM      2  C   UNL     1       0.002  -0.004   0.002  0.00  0.00    +0.066 A 
ATOM      3  C   UNL     1       1.325  -0.422  -0.013  0.00  0.00    +0.023 A 
ATOM      4  C   UNL     1       2.120   0.693  -0.020  0.00  0.00    +0.134 A 
ATOM      5  N   UNL     1       1.310   1.772  -0.001  0.00  0.00    -0.198 N 
ATOM      6  N   UNL     1      -0.016   1.308   0.009  0.00  0.00    -0.168 NA
ATOM      7  C   UNL     1       1.717   3.110   0.007  0.00  0.00    +0.176 A 
ATOM      8  C   UNL     1       0.851   4.102  -0.490  0.00  0.00    +0.054 A 
ATOM      9  C   UNL     1       1.235   5.407  -0.487  0.00  0.00    +0.054 A 
ATOM     10  C   UNL     1       2.504   5.746   0.019  0.00  0.00    +0.178 A 
ATOM     11  N   UNL     1       3.160   6.887   0.159  0.00  0.00    -0.128 NA
ATOM     12  N   UNL     1       4.311   6.653   0.686  0.00  0.00    -0.132 NA
ATOM     13  C   UNL     1       4.454   5.370   0.908  0.00  0.00    +0.152 A 
ATOM     14  N   UNL     1       3.325   4.754   0.498  0.00  0.00    -0.195 N 
ATOM     15  N   UNL     1       2.897   3.425   0.484  0.00  0.00    -0.144 NA
ATOM     16  C   UNL     1       5.662   4.702   1.514  0.00  0.00    +0.090 C 
ATOM     17  N   UNL     1       3.511   0.606  -0.049  0.00  0.00    -0.270 N 
ATOM     18  C   UNL     1       4.068  -0.603  -0.274  0.00  0.00    +0.219 C 
ATOM     19  O   UNL     1       5.263  -0.738  -0.117  0.00  0.00    -0.275 OA
ATOM     20  C   UNL     1       3.254  -1.786  -0.714  0.00  0.00    +0.109 C 
ATOM     21  C   UNL     1       1.894  -1.818  -0.011  0.00  0.00    +0.063 C 
ATOM     22  H   UNL     1       4.122   1.507   0.111  0.00  0.00    +0.156 HD
ENDROOT
BRANCH  21  23
ATOM     23  C   UNL     1       2.068  -2.293   1.409  0.00  0.00    -0.038 A 
ATOM     24  C   UNL     1       1.403  -3.424   1.846  0.00  0.00    +0.004 A 
ATOM     25  C   UNL     1       1.562  -3.860   3.148  0.00  0.00    +0.001 A 
ATOM     26  C   UNL     1       2.387  -3.166   4.013  0.00  0.00    +0.015 A 
ATOM     27  C   UNL     1       3.053  -2.035   3.576  0.00  0.00    +0.018 A 
ATOM     28  C   UNL     1       2.897  -1.602   2.271  0.00  0.00    +0.019 A 
ATOM     29 BR   UNL     1       4.182  -1.086   4.760  0.00  0.00    -0.050 Br
ENDBRANCH  21  23
TORSDOF 1
