REMARK  Name = ZINC37063180
REMARK  5 active torsions:
REMARK  status: ('A' for Active; 'I' for Inactive)
REMARK    1  A    between atoms: C_1  and  C_2
REMARK    2  A    between atoms: C_5  and  C_22
REMARK    3  A    between atoms: N_8  and  S_10
REMARK    4  A    between atoms: S_10  and  C_13
REMARK    5  A    between atoms: C_15  and  N_21
REMARK                            x       y       z     vdW  Elec       q    Type
REMARK                         _______ _______ _______ _____ _____    ______ ____
ROOT
ATOM      1  S   UNL     1       2.871   0.732   2.387  0.00  0.00    +0.064 S 
ATOM      2  O   UNL     1       2.133   0.430   3.563  0.00  0.00    -0.153 OA
ATOM      3  O   UNL     1       4.268   0.492   2.281  0.00  0.00    -0.153 OA
ENDROOT
BRANCH   1   9
ATOM      4  C   UNL     1      -0.019   1.526   0.010  0.00  0.00    +0.009 C 
ATOM      5  C   UNL     1       0.002  -0.004   0.002  0.00  0.00    +0.002 C 
ATOM      6  C   UNL     1       0.720  -0.498  -1.256  0.00  0.00    +0.009 C 
ATOM      7  C   UNL     1       2.145   0.059  -1.285  0.00  0.00    +0.002 C 
ATOM      8  C   UNL     1       2.912  -0.448  -0.060  0.00  0.00    +0.112 C 
ATOM      9  N   UNL     1       2.153  -0.103   1.150  0.00  0.00    -0.176 NA
ATOM     10  C   UNL     1       0.744  -0.512   1.242  0.00  0.00    +0.112 C 
ATOM     11  C   UNL     1       2.850  -0.408  -2.559  0.00  0.00    +0.009 C 
ENDBRANCH   1   9
BRANCH   1  12
ATOM     12  C   UNL     1       2.629   2.448   2.067  0.00  0.00    +0.144 A 
ATOM     13  C   UNL     1       1.861   3.208   2.927  0.00  0.00    +0.054 A 
ATOM     14  C   UNL     1       1.670   4.560   2.676  0.00  0.00    +0.028 A 
ATOM     15  C   UNL     1       2.253   5.146   1.560  0.00  0.00    +0.045 A 
ATOM     16  C   UNL     1       3.021   4.382   0.702  0.00  0.00    +0.080 A 
ATOM     17  C   UNL     1       3.214   3.034   0.958  0.00  0.00    +0.168 A 
ATOM     18  F   UNL     1       3.969   2.289   0.121  0.00  0.00    -0.202 F 
ATOM     19 CL   UNL     1       3.750   5.112  -0.694  0.00  0.00    -0.080 Cl
BRANCH  14  20
ATOM     20  N   UNL     1       0.892   5.331   3.545  0.00  0.00    -0.358 N 
ATOM     21  H   UNL     1       0.485   4.921   4.324  0.00  0.00    +0.142 HD
ATOM     22  H   UNL     1       0.759   6.276   3.369  0.00  0.00    +0.142 HD
ENDBRANCH  14  20
ENDBRANCH   1  12
TORSDOF 3
