REMARK  Name = ZINC08152475
REMARK  9 active torsions:
REMARK  status: ('A' for Active; 'I' for Inactive)
REMARK    1  A    between atoms: C_1  and  C_2
REMARK    2  A    between atoms: C_7  and  N_12
REMARK    3  A    between atoms: C_9  and  C_11
REMARK    4  A    between atoms: C_13  and  C_15
REMARK    5  A    between atoms: C_15  and  N_53
REMARK    6  A    between atoms: C_16  and  N_53
REMARK    7  A    between atoms: C_17  and  C_18
REMARK    8  A    between atoms: C_17  and  N_53
REMARK    9  A    between atoms: N_20  and  C_21
REMARK                            x       y       z     vdW  Elec       q    Type
REMARK                         _______ _______ _______ _____ _____    ______ ____
ROOT
ATOM      1  C   UNL     1      -2.411  -0.971  -0.327  0.00  0.00    -0.095 C 
ATOM      2  N   UNL     1      -1.062  -1.435   0.060  0.00  0.00    +0.389 N 
ATOM      3  H   UNL     1      -1.150  -2.117   0.822  0.00  0.00    -0.081 HD
ENDROOT
BRANCH   2   4
ATOM      4  C   UNL     1      -0.402  -2.084  -1.093  0.00  0.00    +0.019 C 
BRANCH   4   6
ATOM      5  N   UNL     1      -0.700  -4.152  -2.417  0.00  0.00    -0.314 N 
ATOM      6  C   UNL     1      -1.129  -3.366  -1.409  0.00  0.00    +0.197 C 
ATOM      7  O   UNL     1      -2.098  -3.691  -0.757  0.00  0.00    -0.278 OA
ATOM      8  H   UNL     1       0.075  -3.892  -2.939  0.00  0.00    +0.149 HD
BRANCH   5  14
ATOM      9  C   UNL     1      -0.226  -8.645  -4.426  0.00  0.00    +0.008 C 
ATOM     10  C   UNL     1      -1.185  -7.672  -3.736  0.00  0.00    -0.009 C 
ATOM     11  C   UNL     1      -2.364  -7.374  -4.665  0.00  0.00    +0.003 C 
ATOM     12  C   UNL     1      -3.323  -6.402  -3.975  0.00  0.00    +0.002 C 
ATOM     13  C   UNL     1      -2.585  -5.100  -3.654  0.00  0.00    +0.022 C 
ATOM     14  C   UNL     1      -1.406  -5.398  -2.725  0.00  0.00    +0.076 C 
ATOM     15  C   UNL     1      -0.447  -6.370  -3.414  0.00  0.00    +0.009 C 
ATOM     16  C   UNL     1       0.070  -5.744  -4.711  0.00  0.00    +0.009 C 
ENDBRANCH   5  14
ENDBRANCH   4   6
ENDBRANCH   2   4
BRANCH   2  17
ATOM     17  C   UNL     1      -0.250  -0.292   0.529  0.00  0.00    +0.019 C 
BRANCH  17  18
ATOM     18  C   UNL     1      -0.824   0.212   1.827  0.00  0.00    +0.201 C 
ATOM     19  O   UNL     1      -1.811  -0.313   2.298  0.00  0.00    -0.278 OA
ATOM     20  N   UNL     1      -0.242   1.246   2.466  0.00  0.00    -0.285 N 
ATOM     21  H   UNL     1       0.588   1.619   2.129  0.00  0.00    +0.155 HD
BRANCH  20  22
ATOM     22  C   UNL     1      -0.834   1.782   3.616  0.00  0.00    +0.070 A 
ATOM     23  C   UNL     1      -1.765   2.807   3.506  0.00  0.00    +0.064 A 
ATOM     24  C   UNL     1      -2.351   3.331   4.643  0.00  0.00    +0.022 A 
ATOM     25  C   UNL     1      -2.004   2.843   5.889  0.00  0.00    +0.003 A 
ATOM     26  C   UNL     1      -1.073   1.827   6.003  0.00  0.00    +0.022 A 
ATOM     27  C   UNL     1      -0.487   1.294   4.870  0.00  0.00    +0.064 A 
ATOM     28 CL   UNL     1       0.680   0.018   5.013  0.00  0.00    -0.082 Cl
ATOM     29 CL   UNL     1      -2.197   3.426   1.942  0.00  0.00    -0.082 Cl
ENDBRANCH  20  22
ENDBRANCH  17  18
ENDBRANCH   2  17
TORSDOF 6
