REMARK  Name = ZINC09804900
REMARK  11 active torsions:
REMARK  status: ('A' for Active; 'I' for Inactive)
REMARK    1  A    between atoms: C_1  and  C_2
REMARK    2  A    between atoms: C_3  and  C_34
REMARK    3  A    between atoms: C_4  and  C_23
REMARK    4  A    between atoms: C_10  and  C_15
REMARK    5  A    between atoms: C_20  and  O_21
REMARK    6  A    between atoms: O_21  and  C_22
REMARK    7  A    between atoms: C_34  and  O_36
REMARK    8  A    between atoms: O_36  and  C_37
REMARK    9  A    between atoms: C_37  and  C_38
REMARK   10  A    between atoms: C_38  and  O_39
REMARK   11  A    between atoms: O_39  and  C_40
REMARK                            x       y       z     vdW  Elec       q    Type
REMARK                         _______ _______ _______ _____ _____    ______ ____
ROOT
ATOM      1  C   UNL     1      -7.477   1.973  -2.407  0.00  0.00    +0.061 C 
ATOM      2  C   UNL     1      -6.758   2.352  -1.138  0.00  0.00    +0.031 C 
ATOM      3  C   UNL     1      -5.799   3.293  -1.170  0.00  0.00    +0.154 C 
ATOM      4  C   UNL     1      -5.059   3.693   0.071  0.00  0.00    +0.080 C 
ATOM      5  C   UNL     1      -5.798   3.252   1.310  0.00  0.00    +0.025 C 
ATOM      6  C   UNL     1      -6.763   2.311   1.238  0.00  0.00    +0.049 C 
ATOM      7  N   UNL     1      -7.087   1.737   0.038  0.00  0.00    -0.260 NA
ATOM      8  C   UNL     1      -7.509   1.867   2.472  0.00  0.00    +0.064 C 
ATOM      9  C   UNL     1      -6.600   1.989   3.696  0.00  0.00    +0.036 C 
ATOM     10  C   UNL     1      -6.137   3.445   3.816  0.00  0.00    +0.088 C 
ATOM     11  C   UNL     1      -5.455   3.848   2.536  0.00  0.00    +0.162 C 
ATOM     12  O   UNL     1      -4.591   4.702   2.564  0.00  0.00    -0.292 OA
ENDROOT
BRANCH   4  13
ATOM     13  C   UNL     1      -3.696   3.052   0.055  0.00  0.00    +0.043 A 
ATOM     14  C   UNL     1      -3.578   1.712   0.046  0.00  0.00    +0.203 A 
ATOM     15  O   UNL     1      -2.396   1.087   0.032  0.00  0.00    -0.462 OA
ATOM     16  C   UNL     1      -1.225   1.756   0.018  0.00  0.00    +0.138 A 
ATOM     17  C   UNL     1      -0.013   1.077   0.009  0.00  0.00    +0.047 A 
ATOM     18  C   UNL     1       1.171   1.784   0.001  0.00  0.00    +0.004 A 
ATOM     19  C   UNL     1       1.168   3.171   0.008  0.00  0.00    +0.001 A 
ATOM     20  C   UNL     1      -0.023   3.864   0.024  0.00  0.00    +0.015 A 
ATOM     21  C   UNL     1      -1.226   3.160   0.032  0.00  0.00    +0.064 A 
ATOM     22  C   UNL     1      -2.527   3.858   0.048  0.00  0.00    +0.196 A 
ATOM     23  O   UNL     1      -2.595   5.075   0.055  0.00  0.00    -0.287 OA
ENDBRANCH   4  13
BRANCH   9  24
ATOM     24  C   UNL     1      -7.363   1.597   4.935  0.00  0.00    -0.002 A 
ATOM     25  C   UNL     1      -8.507   2.285   5.289  0.00  0.00    +0.007 A 
ATOM     26  C   UNL     1      -9.210   1.923   6.424  0.00  0.00    +0.001 A 
ATOM     27  C   UNL     1      -8.764   0.878   7.211  0.00  0.00    +0.004 A 
ATOM     28  C   UNL     1      -7.618   0.190   6.864  0.00  0.00    +0.046 A 
ATOM     29  C   UNL     1      -6.914   0.548   5.724  0.00  0.00    +0.124 A 
BRANCH  29  30
ATOM     30  O   UNL     1      -5.786  -0.128   5.380  0.00  0.00    -0.495 OA
ATOM     31  C   UNL     1      -5.382  -1.196   6.239  0.00  0.00    +0.277 C 
ENDBRANCH  29  30
ENDBRANCH   9  24
BRANCH   3  32
ATOM     32  C   UNL     1      -5.483   3.921  -2.397  0.00  0.00    +0.317 C 
ATOM     33  O   UNL     1      -6.078   3.608  -3.412  0.00  0.00    -0.250 OA
BRANCH  32  34
ATOM     34  O   UNL     1      -4.522   4.867  -2.444  0.00  0.00    -0.462 OA
BRANCH  34  35
ATOM     35  C   UNL     1      -4.256   5.460  -3.717  0.00  0.00    +0.260 C 
BRANCH  35  36
ATOM     36  C   UNL     1      -3.146   6.502  -3.572  0.00  0.00    +0.200 C 
BRANCH  36  37
ATOM     37  O   UNL     1      -1.929   5.853  -3.195  0.00  0.00    -0.380 OA
ATOM     38  C   UNL     1      -0.823   6.742  -3.032  0.00  0.00    +0.194 C 
ENDBRANCH  36  37
ENDBRANCH  35  36
ENDBRANCH  34  35
ENDBRANCH  32  34
ENDBRANCH   3  32
TORSDOF 8
