REMARK  Name = ZINC40116419
REMARK  4 active torsions:
REMARK  status: ('A' for Active; 'I' for Inactive)
REMARK    1  A    between atoms: C_1  and  C_2
REMARK    2  A    between atoms: N_11  and  C_15
REMARK    3  A    between atoms: C_15  and  C_16
REMARK    4  A    between atoms: N_19  and  C_21
REMARK                            x       y       z     vdW  Elec       q    Type
REMARK                         _______ _______ _______ _____ _____    ______ ____
ROOT
ATOM      1  C   UNL     1      -0.019   1.526   0.010  0.00  0.00    +0.010 C 
ATOM      2  C   UNL     1       0.002  -0.004   0.002  0.00  0.00    +0.018 C 
ATOM      3  C   UNL     1       0.718  -0.497  -1.258  0.00  0.00    +0.006 C 
ATOM      4  C   UNL     1       0.756  -2.027  -1.256  0.00  0.00    +0.000 C 
ATOM      5  C   UNL     1       1.519  -2.517  -0.023  0.00  0.00    +0.003 C 
ATOM      6  C   UNL     1       0.807  -2.032   1.242  0.00  0.00    +0.035 C 
ATOM      7  C   UNL     1       0.739  -0.509   1.238  0.00  0.00    +0.115 C 
ATOM      8  C   UNL     1       2.128   0.083   1.303  0.00  0.00    +0.247 C 
ATOM      9  O   UNL     1       3.022  -0.055   0.496  0.00  0.00    -0.273 OA
ATOM     10  N   UNL     1       2.163   0.796   2.447  0.00  0.00    -0.218 N 
ATOM     11  C   UNL     1       0.998   0.734   3.103  0.00  0.00    +0.310 C 
ATOM     12  O   UNL     1       0.786   1.296   4.159  0.00  0.00    -0.252 OA
ATOM     13  N   UNL     1       0.086  -0.021   2.460  0.00  0.00    -0.285 N 
ATOM     14  H   UNL     1      -0.822  -0.205   2.747  0.00  0.00    +0.151 HD
ENDROOT
BRANCH  10  15
ATOM     15  C   UNL     1       3.332   1.546   2.915  0.00  0.00    +0.176 C 
BRANCH  15  16
ATOM     16  C   UNL     1       3.277   2.951   2.373  0.00  0.00    +0.101 A 
ATOM     17  C   UNL     1       2.768   4.082   3.016  0.00  0.00    +0.161 A 
ATOM     18  N   UNL     1       2.928   5.077   2.173  0.00  0.00    -0.155 NA
ATOM     19  N   UNL     1       3.481   4.627   1.103  0.00  0.00    -0.150 N 
ATOM     20  N   UNL     1       3.704   3.365   1.201  0.00  0.00    -0.151 NA
BRANCH  19  21
ATOM     21  C   UNL     1       3.803   5.409  -0.016  0.00  0.00    +0.086 A 
ATOM     22  C   UNL     1       4.395   4.822  -1.127  0.00  0.00    +0.029 A 
ATOM     23  C   UNL     1       4.710   5.594  -2.228  0.00  0.00    +0.002 A 
ATOM     24  C   UNL     1       4.437   6.950  -2.225  0.00  0.00    +0.000 A 
ATOM     25  C   UNL     1       3.847   7.536  -1.120  0.00  0.00    +0.002 A 
ATOM     26  C   UNL     1       3.524   6.769  -0.018  0.00  0.00    +0.029 A 
ENDBRANCH  19  21
ENDBRANCH  15  16
ENDBRANCH  10  15
TORSDOF 3
