REMARK  Name = ZINC06321008
REMARK  6 active torsions:
REMARK  status: ('A' for Active; 'I' for Inactive)
REMARK    1  A    between atoms: C_1  and  C_2
REMARK    2  A    between atoms: C_6  and  C_15
REMARK    3  A    between atoms: C_13  and  C_14
REMARK    4  A    between atoms: C_15  and  C_17
REMARK    5  A    between atoms: C_15  and  N_64
REMARK    6  A    between atoms: N_21  and  C_22
REMARK                            x       y       z     vdW  Elec       q    Type
REMARK                         _______ _______ _______ _____ _____    ______ ____
ROOT
ATOM      1  C   UNL     1       0.005   1.186  -2.409  0.00  0.00    +0.039 C 
ENDROOT
BRANCH   1   7
ATOM      2  C   UNL     1       4.841   5.847  -5.651  0.00  0.00    +0.044 C 
ATOM      3  C   UNL     1       4.469   4.908  -4.532  0.00  0.00    -0.047 A 
ATOM      4  C   UNL     1       3.252   4.287  -4.546  0.00  0.00    +0.013 A 
ATOM      5  C   UNL     1       2.906   3.417  -3.507  0.00  0.00    -0.001 A 
ATOM      6  C   UNL     1       1.612   2.732  -3.492  0.00  0.00    +0.017 A 
ATOM      7  C   UNL     1       1.330   1.903  -2.457  0.00  0.00    +0.011 A 
ATOM      8  C   UNL     1       2.275   1.704  -1.428  0.00  0.00    +0.251 A 
ATOM      9  O   UNL     1       2.003   0.951  -0.509  0.00  0.00    -0.268 OA
ATOM     10  N   UNL     1       3.467   2.325  -1.435  0.00  0.00    -0.322 N 
ATOM     11  H   UNL     1       4.094   2.166  -0.712  0.00  0.00    +0.169 HD
ATOM     12  C   UNL     1       3.813   3.184  -2.456  0.00  0.00    +0.049 A 
ATOM     13  C   UNL     1       5.046   3.827  -2.464  0.00  0.00    +0.030 A 
ATOM     14  C   UNL     1       5.365   4.682  -3.498  0.00  0.00    -0.046 A 
ATOM     15  C   UNL     1       6.702   5.377  -3.504  0.00  0.00    +0.044 C 
ENDBRANCH   1   7
BRANCH   1  25
ATOM     16  C   UNL     1      -1.892   0.675  -0.991  0.00  0.00    -0.072 C 
ATOM     17  C   UNL     1      -2.326   0.694   0.475  0.00  0.00    +0.017 C 
ATOM     18  C   UNL     1      -2.333   2.110   0.992  0.00  0.00    -0.048 A 
ATOM     19  C   UNL     1      -3.021   2.383   2.164  0.00  0.00    +0.004 A 
ATOM     20  C   UNL     1      -3.049   3.666   2.674  0.00  0.00    +0.000 A 
ATOM     21  C   UNL     1      -2.388   4.683   2.011  0.00  0.00    +0.000 A 
ATOM     22  C   UNL     1      -1.704   4.413   0.843  0.00  0.00    +0.002 A 
ATOM     23  C   UNL     1      -1.673   3.120   0.332  0.00  0.00    -0.061 A 
ATOM     24  C   UNL     1      -0.919   2.879  -0.950  0.00  0.00    -0.041 C 
ATOM     25  N   UNL     1      -0.635   1.442  -1.099  0.00  0.00    +0.392 N 
ATOM     26  H   UNL     1       0.004   1.147  -0.351  0.00  0.00    -0.080 HD
ENDBRANCH   1  25
BRANCH   1  27
ATOM     27  C   UNL     1       0.230  -0.296  -2.565  0.00  0.00    +0.143 A 
ATOM     28  N   UNL     1       0.708  -1.115  -1.660  0.00  0.00    -0.115 NA
ATOM     29  N   UNL     1       0.746  -2.296  -2.173  0.00  0.00    -0.023 NA
ATOM     30  N   UNL     1       0.313  -2.251  -3.385  0.00  0.00    -0.044 NA
ATOM     31  N   UNL     1      -0.015  -1.035  -3.664  0.00  0.00    -0.227 N 
BRANCH  31  32
ATOM     32  C   UNL     1      -0.552  -0.549  -4.937  0.00  0.00    +0.111 C 
ATOM     33  C   UNL     1      -1.853  -1.303  -5.284  0.00  0.00    +0.027 C 
ATOM     34  C   UNL     1      -1.790  -1.479  -6.822  0.00  0.00    +0.002 C 
ATOM     35  C   UNL     1      -0.287  -1.761  -7.073  0.00  0.00    +0.002 C 
ATOM     36  C   UNL     1       0.443  -0.839  -6.074  0.00  0.00    +0.027 C 
ENDBRANCH  31  32
ENDBRANCH   1  27
TORSDOF 4
