REMARK  Name = ZINC04772841
REMARK  2 active torsions:
REMARK  status: ('A' for Active; 'I' for Inactive)
REMARK    1  A    between atoms: C_10  and  O_21
REMARK    2  A    between atoms: C_15  and  C_17
REMARK                            x       y       z     vdW  Elec       q    Type
REMARK                         _______ _______ _______ _____ _____    ______ ____
ROOT
ATOM      1  C   UNL     1      -0.019   1.533   0.011  0.00  0.00    +0.090 C 
ATOM      2  C   UNL     1       1.441   2.031  -0.001  0.00  0.00    +0.146 C 
ATOM      3  C   UNL     1       2.134   1.412   1.234  0.00  0.00    +0.172 C 
ATOM      4  C   UNL     1       1.153   1.496   2.424  0.00  0.00    +0.197 C 
ATOM      5  O   UNL     1       0.412   0.263   2.390  0.00  0.00    -0.345 OA
ATOM      6  C   UNL     1       0.849  -0.453   1.216  0.00  0.00    +0.301 C 
ATOM      7  C   UNL     1       0.002  -0.004   0.002  0.00  0.00    +0.187 C 
ATOM      8  N   UNL     1       0.595  -0.450  -1.272  0.00  0.00    -0.282 N 
ATOM      9  C   UNL     1       1.668   0.284  -1.758  0.00  0.00    +0.217 A 
ATOM     10  N   UNL     1       2.076   1.444  -1.189  0.00  0.00    -0.227 N 
ATOM     11  N   UNL     1       3.156   1.902  -1.938  0.00  0.00    -0.144 NA
ATOM     12  C   UNL     1       3.352   1.024  -2.891  0.00  0.00    +0.256 A 
ATOM     13  N   UNL     1       2.450   0.043  -2.777  0.00  0.00    -0.190 NA
ATOM     14  O   UNL     1       2.223  -0.012   0.970  0.00  0.00    -0.339 OA
ATOM     15  H   UNL     1       0.250  -1.222  -1.749  0.00  0.00    +0.152 HD
ENDROOT
BRANCH  12  16
ATOM     16  C   UNL     1       4.424   1.106  -3.946  0.00  0.00    +0.454 C 
ATOM     17  F   UNL     1       5.442   0.193  -3.649  0.00  0.00    -0.163 F 
ATOM     18  F   UNL     1       3.873   0.800  -5.195  0.00  0.00    -0.163 F 
ATOM     19  F   UNL     1       4.953   2.400  -3.974  0.00  0.00    -0.163 F 
ENDBRANCH  12  16
BRANCH   7  20
ATOM     20  O   UNL     1      -1.326  -0.513   0.144  0.00  0.00    -0.367 OA
ATOM     21  H   UNL     1      -1.379  -1.478   0.146  0.00  0.00    +0.212 HD
ENDBRANCH   7  20
TORSDOF 2
