REMARK  Name = ZINC21732783
REMARK  7 active torsions:
REMARK  status: ('A' for Active; 'I' for Inactive)
REMARK    1  A    between atoms: C_3  and  C_27
REMARK    2  A    between atoms: C_4  and  N_8
REMARK    3  A    between atoms: C_9  and  C_11
REMARK    4  A    between atoms: C_11  and  O_12
REMARK    5  A    between atoms: O_12  and  C_13
REMARK    6  A    between atoms: C_13  and  C_15
REMARK    7  A    between atoms: C_15  and  N_16
REMARK                            x       y       z     vdW  Elec       q    Type
REMARK                         _______ _______ _______ _____ _____    ______ ____
ROOT
ATOM      1  C   UNL     1       5.015  -2.637   0.445  0.00  0.00    +0.328 C 
ENDROOT
BRANCH   1   3
ATOM      2  N   UNL     1       3.624  -0.649  -0.037  0.00  0.00    -0.281 N 
ATOM      3  C   UNL     1       3.683  -1.937   0.354  0.00  0.00    +0.255 C 
ATOM      4  O   UNL     1       2.665  -2.534   0.634  0.00  0.00    -0.272 OA
ATOM      5  H   UNL     1       4.429  -0.194  -0.330  0.00  0.00    +0.155 HD
BRANCH   2   9
ATOM      6  C   UNL     1      -0.016   1.379   0.009  0.00  0.00    +0.002 A 
ATOM      7  C   UNL     1       0.852   1.495   1.079  0.00  0.00    +0.014 A 
ATOM      8  C   UNL     1       2.059   0.824   1.067  0.00  0.00    +0.077 A 
ATOM      9  C   UNL     1       2.401   0.032  -0.022  0.00  0.00    +0.064 A 
ATOM     10  C   UNL     1       1.526  -0.083  -1.095  0.00  0.00    +0.063 A 
ATOM     11  C   UNL     1       0.320   0.591  -1.076  0.00  0.00    +0.022 A 
ATOM     12 CL   UNL     1       1.948  -1.073  -2.458  0.00  0.00    -0.082 Cl
BRANCH   8  13
ATOM     13  C   UNL     1       3.006   0.952   2.233  0.00  0.00    +0.419 C 
ATOM     14  F   UNL     1       2.445   1.796   3.197  0.00  0.00    -0.166 F 
ATOM     15  F   UNL     1       3.230  -0.311   2.792  0.00  0.00    -0.166 F 
ATOM     16  F   UNL     1       4.220   1.489   1.791  0.00  0.00    -0.166 F 
ENDBRANCH   8  13
ENDBRANCH   2   9
ENDBRANCH   1   3
BRANCH   1  17
ATOM     17  O   UNL     1       4.817  -3.984   0.879  0.00  0.00    -0.454 OA
BRANCH  17  18
ATOM     18  C   UNL     1       5.912  -4.749   1.012  0.00  0.00    +0.326 C 
ATOM     19  O   UNL     1       7.003  -4.290   0.767  0.00  0.00    -0.249 OA
BRANCH  18  20
ATOM     20  C   UNL     1       5.781  -6.180   1.465  0.00  0.00    +0.238 C 
BRANCH  20  21
ATOM     21  N   UNL     1       7.109  -6.795   1.530  0.00  0.00    -0.213 N 
ATOM     22  C   UNL     1       7.699  -7.437   0.499  0.00  0.00    +0.247 C 
ATOM     23  O   UNL     1       7.251  -7.609  -0.614  0.00  0.00    -0.273 OA
ATOM     24  C   UNL     1       9.035  -7.894   1.027  0.00  0.00    +0.113 C 
ATOM     25  C   UNL     1      10.187  -7.287   0.215  0.00  0.00    +0.035 C 
ATOM     26  C   UNL     1      11.262  -8.404   0.196  0.00  0.00    +0.003 C 
ATOM     27  C   UNL     1      10.415  -9.696   0.077  0.00  0.00    +0.003 C 
ATOM     28  C   UNL     1       9.172  -9.416   0.951  0.00  0.00    +0.035 C 
ATOM     29  N   UNL     1       9.061  -7.424   2.414  0.00  0.00    -0.285 N 
ATOM     30  C   UNL     1       7.891  -6.786   2.617  0.00  0.00    +0.310 C 
ATOM     31  O   UNL     1       7.580  -6.264   3.670  0.00  0.00    -0.252 OA
ATOM     32  H   UNL     1       9.778  -7.545   3.056  0.00  0.00    +0.151 HD
ENDBRANCH  20  21
ENDBRANCH  18  20
ENDBRANCH  17  18
ENDBRANCH   1  17
TORSDOF 7
