REMARK  Name = ZINC05369841
REMARK  6 active torsions:
REMARK  status: ('A' for Active; 'I' for Inactive)
REMARK    1  A    between atoms: C_1  and  C_2
REMARK    2  A    between atoms: N_5  and  C_11
REMARK    3  A    between atoms: C_7  and  C_10
REMARK    4  A    between atoms: C_12  and  C_22
REMARK    5  A    between atoms: N_23  and  N_24
REMARK    6  A    between atoms: C_25  and  C_27
REMARK                            x       y       z     vdW  Elec       q    Type
REMARK                         _______ _______ _______ _____ _____    ______ ____
ROOT
ATOM      1  C   UNL     1      -0.022   0.038  -0.001  0.00  0.00    +0.138 A 
ATOM      2  C   UNL     1       0.008   1.447  -0.010  0.00  0.00    +0.099 A 
ATOM      3  C   UNL     1       1.262   2.092  -0.014  0.00  0.00    +0.269 A 
ATOM      4  O   UNL     1       1.332   3.310  -0.022  0.00  0.00    -0.266 OA
ATOM      5  N   UNL     1       2.384   1.341  -0.009  0.00  0.00    -0.268 N 
ATOM      6  C   UNL     1       3.600   1.956  -0.014  0.00  0.00    +0.096 A 
ATOM      7  C   UNL     1       4.742   1.232  -0.009  0.00  0.00    +0.018 A 
ATOM      8  C   UNL     1       4.686  -0.169  -0.001  0.00  0.00    +0.005 A 
ATOM      9  C   UNL     1       3.475  -0.794   0.004  0.00  0.00    +0.047 A 
ATOM     10  C   UNL     1       2.297  -0.024  -0.001  0.00  0.00    +0.142 A 
ATOM     11  N   UNL     1       1.117  -0.642   0.003  0.00  0.00    -0.214 NA
ENDROOT
BRANCH   1  15
ATOM     12  C   UNL     1      -3.981  -1.070  -2.570  0.00  0.00    +0.039 C 
ATOM     13  C   UNL     1      -3.284  -1.170  -1.212  0.00  0.00    +0.133 C 
ATOM     14  C   UNL     1      -1.927  -0.465  -1.280  0.00  0.00    +0.138 C 
ATOM     15  N   UNL     1      -1.230  -0.630   0.003  0.00  0.00    -0.310 N 
ATOM     16  C   UNL     1      -1.042  -2.055   0.314  0.00  0.00    +0.138 C 
ATOM     17  C   UNL     1      -2.408  -2.744   0.367  0.00  0.00    +0.133 C 
ATOM     18  O   UNL     1      -3.085  -2.546  -0.877  0.00  0.00    -0.371 OA
ATOM     19  C   UNL     1      -3.240  -2.143   1.502  0.00  0.00    +0.039 C 
ENDBRANCH   1  15
BRANCH   2  20
ATOM     20  C   UNL     1      -1.237   2.225  -0.021  0.00  0.00    +0.147 C 
ATOM     21  N   UNL     1      -1.194   3.522   0.066  0.00  0.00    -0.187 NA
BRANCH  21  22
ATOM     22  N   UNL     1      -2.382   4.265   0.056  0.00  0.00    -0.203 N 
ATOM     23  C   UNL     1      -2.338   5.609   0.145  0.00  0.00    +0.263 C 
ATOM     24  O   UNL     1      -1.266   6.177   0.234  0.00  0.00    -0.268 OA
ATOM     25  H   UNL     1      -3.237   3.812  -0.016  0.00  0.00    +0.178 HD
BRANCH  23  26
ATOM     26  C   UNL     1      -3.591   6.392   0.134  0.00  0.00    +0.038 A 
ATOM     27  C   UNL     1      -4.822   5.743   0.026  0.00  0.00    +0.013 A 
ATOM     28  C   UNL     1      -5.989   6.480   0.021  0.00  0.00    +0.001 A 
ATOM     29  C   UNL     1      -5.939   7.860   0.114  0.00  0.00    +0.000 A 
ATOM     30  C   UNL     1      -4.722   8.509   0.216  0.00  0.00    +0.001 A 
ATOM     31  C   UNL     1      -3.548   7.784   0.226  0.00  0.00    +0.013 A 
ENDBRANCH  23  26
ENDBRANCH  21  22
ENDBRANCH   2  20
TORSDOF 4
