REMARK  Name = ZINC04137213
REMARK  2 active torsions:
REMARK  status: ('A' for Active; 'I' for Inactive)
REMARK    1  A    between atoms: N_8  and  C_11
REMARK    2  A    between atoms: C_14  and  C_17
REMARK                            x       y       z     vdW  Elec       q    Type
REMARK                         _______ _______ _______ _____ _____    ______ ____
ROOT
ATOM      1  C   UNL     1       3.929  -3.253  -0.408  0.00  0.00    +0.035 A 
ATOM      2  C   UNL     1       3.383  -4.517  -0.600  0.00  0.00    +0.024 A 
ATOM      3  C   UNL     1       4.208  -5.602  -0.803  0.00  0.00    +0.013 A 
ATOM      4  C   UNL     1       5.593  -5.431  -0.816  0.00  0.00    +0.019 A 
ATOM      5  C   UNL     1       6.139  -4.161  -0.622  0.00  0.00    +0.013 A 
ATOM      6  C   UNL     1       5.309  -3.079  -0.425  0.00  0.00    +0.024 A 
ENDROOT
BRANCH   1  14
ATOM      7  C   UNL     1       0.453   1.745  -0.045  0.00  0.00    +0.000 A 
ATOM      8  C   UNL     1       0.091   1.183   1.166  0.00  0.00    +0.001 A 
ATOM      9  C   UNL     1       0.635  -0.020   1.566  0.00  0.00    +0.011 A 
ATOM     10  C   UNL     1       1.555  -0.673   0.744  0.00  0.00    +0.018 A 
ATOM     11  C   UNL     1       1.914  -0.100  -0.476  0.00  0.00    -0.019 A 
ATOM     12  C   UNL     1       1.365   1.102  -0.865  0.00  0.00    +0.006 A 
ATOM     13  C   UNL     1       2.909  -1.028  -1.124  0.00  0.00    +0.148 C 
ATOM     14  N   UNL     1       3.091  -2.156  -0.203  0.00  0.00    -0.282 N 
ATOM     15  C   UNL     1       2.292  -1.946   0.899  0.00  0.00    +0.104 C 
ATOM     16  N   UNL     1       2.200  -2.746   1.922  0.00  0.00    -0.386 N 
ATOM     17  H   UNL     1       1.555  -2.564   2.623  0.00  0.00    +0.157 HD
ATOM     18  H   UNL     1       2.776  -3.524   1.982  0.00  0.00    +0.157 HD
ENDBRANCH   1  14
BRANCH   4  19
ATOM     19  C   UNL     1       6.481  -6.593  -1.033  0.00  0.00    +0.164 A 
ATOM     20  N   UNL     1       6.162  -7.863  -0.892  0.00  0.00    -0.129 NA
ATOM     21  N   UNL     1       7.178  -8.601  -1.171  0.00  0.00    -0.134 NA
ATOM     22  C   UNL     1       8.193  -7.854  -1.505  0.00  0.00    +0.134 A 
ATOM     23  N   UNL     1       7.789  -6.557  -1.423  0.00  0.00    -0.311 N 
ATOM     24  C   UNL     1       8.605  -5.372  -1.685  0.00  0.00    +0.125 C 
ATOM     25  C   UNL     1       9.697  -5.723  -2.699  0.00  0.00    +0.022 C 
ATOM     26  C   UNL     1      10.938  -6.228  -1.965  0.00  0.00    +0.002 C 
ATOM     27  C   UNL     1      10.618  -7.494  -1.177  0.00  0.00    +0.008 C 
ATOM     28  C   UNL     1       9.566  -8.314  -1.921  0.00  0.00    +0.076 C 
ENDBRANCH   4  19
TORSDOF 2
