REMARK  Name = ZINC55008626
REMARK  7 active torsions:
REMARK  status: ('A' for Active; 'I' for Inactive)
REMARK    1  A    between atoms: N_9  and  C_10
REMARK    2  A    between atoms: C_10  and  C_11
REMARK    3  A    between atoms: C_11  and  N_12
REMARK    4  A    between atoms: N_18  and  C_19
REMARK    5  A    between atoms: C_19  and  C_21
REMARK    6  A    between atoms: C_25  and  C_27
REMARK    7  A    between atoms: C_27  and  N_28
REMARK                            x       y       z     vdW  Elec       q    Type
REMARK                         _______ _______ _______ _____ _____    ______ ____
ROOT
ATOM      1  C   UNL     1      -0.015   1.377   0.027  0.00  0.00    +0.002 A 
ATOM      2  C   UNL     1       1.172   2.091   0.030  0.00  0.00    +0.002 A 
ATOM      3  C   UNL     1       2.383   1.429   0.016  0.00  0.00    +0.028 A 
ATOM      4  C   UNL     1       2.412   0.042  -0.002  0.00  0.00    +0.068 A 
ATOM      5  C   UNL     1       1.216  -0.678  -0.005  0.00  0.00    +0.066 A 
ATOM      6  C   UNL     1       0.003  -0.003   0.009  0.00  0.00    +0.028 A 
ATOM      7  N   UNL     1       1.550  -2.029  -0.023  0.00  0.00    -0.326 N 
ATOM      8  C   UNL     1       2.906  -2.132  -0.031  0.00  0.00    +0.201 A 
ATOM      9  N   UNL     1       3.449  -0.885  -0.018  0.00  0.00    -0.314 N 
ATOM     10  N   UNL     1       3.591  -3.270  -0.048  0.00  0.00    -0.142 NA
ATOM     11  H   UNL     1       0.923  -2.769  -0.029  0.00  0.00    +0.169 HD
ENDROOT
BRANCH  10  12
ATOM     12  C   UNL     1       2.948  -4.439   0.053  0.00  0.00    +0.270 C 
ATOM     13  O   UNL     1       1.730  -4.465   0.064  0.00  0.00    -0.268 OA
BRANCH  12  14
ATOM     14  C   UNL     1       3.718  -5.700   0.151  0.00  0.00    +0.039 A 
ATOM     15  C   UNL     1       5.112  -5.673   0.145  0.00  0.00    +0.013 A 
ATOM     16  C   UNL     1       5.823  -6.851   0.237  0.00  0.00    +0.001 A 
ATOM     17  C   UNL     1       5.156  -8.059   0.336  0.00  0.00    +0.005 A 
ATOM     18  C   UNL     1       3.773  -8.094   0.343  0.00  0.00    -0.025 A 
ATOM     19  C   UNL     1       3.051  -6.921   0.256  0.00  0.00    +0.018 A 
BRANCH  18  20
ATOM     20  C   UNL     1       3.054  -9.413   0.450  0.00  0.00    +0.178 C 
BRANCH  20  21
ATOM     21  N   UNL     1       2.825  -9.731   1.862  0.00  0.00    -0.266 N 
ATOM     22  C   UNL     1       1.633 -10.016   2.429  0.00  0.00    +0.124 A 
ATOM     23  C   UNL     1       1.848 -10.252   3.745  0.00  0.00    +0.055 A 
ATOM     24  C   UNL     1       3.218 -10.104   3.990  0.00  0.00    +0.149 A 
ATOM     25  N   UNL     1       3.804  -9.798   2.861  0.00  0.00    -0.178 NA
ATOM     26 BR   UNL     1       0.530 -10.698   5.025  0.00  0.00    -0.047 Br
ENDBRANCH  20  21
ENDBRANCH  18  20
ENDBRANCH  12  14
ENDBRANCH  10  12
BRANCH   9  27
ATOM     27  C   UNL     1       4.880  -0.573  -0.021  0.00  0.00    +0.106 C 
BRANCH  27  28
ATOM     28  C   UNL     1       5.385  -0.482   1.421  0.00  0.00    -0.057 C 
BRANCH  28  29
ATOM     29  N   UNL     1       6.820  -0.168   1.419  0.00  0.00    +0.381 N 
ATOM     30  C   UNL     1       7.561  -1.278   0.808  0.00  0.00    -0.079 C 
ATOM     31  C   UNL     1       9.047  -0.923   0.729  0.00  0.00    -0.019 C 
ATOM     32  C   UNL     1       9.581  -0.666   2.142  0.00  0.00    -0.004 C 
ATOM     33  C   UNL     1       8.752   0.443   2.796  0.00  0.00    -0.019 C 
ATOM     34  C   UNL     1       7.277   0.037   2.798  0.00  0.00    -0.079 C 
ATOM     35  H   UNL     1       6.979   0.673   0.884  0.00  0.00    -0.082 HD
ENDBRANCH  28  29
ENDBRANCH  27  28
ENDBRANCH   9  27
TORSDOF 7
