REMARK  Name = ZINC08836933
REMARK  11 active torsions:
REMARK  status: ('A' for Active; 'I' for Inactive)
REMARK    1  A    between atoms: C_1  and  C_2
REMARK    2  A    between atoms: C_5  and  N_31
REMARK    3  A    between atoms: N_6  and  C_7
REMARK    4  A    between atoms: C_7  and  C_8
REMARK    5  A    between atoms: C_8  and  O_9
REMARK    6  A    between atoms: O_9  and  C_10
REMARK    7  A    between atoms: N_12  and  C_13
REMARK    8  A    between atoms: C_13  and  C_15
REMARK    9  A    between atoms: C_13  and  N_51
REMARK   10  A    between atoms: C_19  and  C_20
REMARK   11  A    between atoms: C_19  and  N_51
REMARK                            x       y       z     vdW  Elec       q    Type
REMARK                         _______ _______ _______ _____ _____    ______ ____
ROOT
ATOM      1  C   UNL     1      -4.206   8.114  -3.936  0.00  0.00    +0.071 C 
ENDROOT
BRANCH   1   4
ATOM      2  C   UNL     1      -3.034   6.464  -2.579  0.00  0.00    +0.399 C 
ATOM      3  O   UNL     1      -2.662   5.928  -3.604  0.00  0.00    -0.227 OA
ATOM      4  N   UNL     1      -3.810   7.564  -2.637  0.00  0.00    -0.291 N 
ATOM      5  H   UNL     1      -4.107   7.991  -1.818  0.00  0.00    +0.150 HD
BRANCH   2   6
ATOM      6  O   UNL     1      -2.670   5.958  -1.385  0.00  0.00    -0.449 OA
BRANCH   6   7
ATOM      7  C   UNL     1      -1.833   4.772  -1.399  0.00  0.00    +0.255 C 
BRANCH   7   8
ATOM      8  C   UNL     1      -1.526   4.348   0.039  0.00  0.00    +0.166 C 
BRANCH   8  14
ATOM      9  C   UNL     1       1.573   4.329   0.010  0.00  0.00    +0.086 C 
ATOM     10  C   UNL     1       0.669   3.123   0.012  0.00  0.00    +0.108 A 
ATOM     11  N   UNL     1       1.062   1.879   0.002  0.00  0.00    -0.239 NA
ATOM     12  C   UNL     1      -0.013   1.076   0.008  0.00  0.00    +0.164 A 
ATOM     13  C   UNL     1      -1.113   1.852   0.017  0.00  0.00    +0.216 A 
ATOM     14  N   UNL     1      -0.681   3.151   0.025  0.00  0.00    -0.306 N 
BRANCH  13  15
ATOM     15  N   UNL     1      -2.519   1.390   0.021  0.00  0.00    +0.075 N 
ATOM     16  O   UNL     1      -2.768   0.198   0.016  0.00  0.00    -0.125 OA
ATOM     17  O   UNL     1      -3.427   2.202   0.028  0.00  0.00    -0.125 OA
ENDBRANCH  13  15
ENDBRANCH   8  14
ENDBRANCH   7   8
ENDBRANCH   6   7
ENDBRANCH   2   6
ENDBRANCH   1   4
BRANCH   1  18
ATOM     18  C   UNL     1      -4.030   9.634  -3.921  0.00  0.00    +0.194 C 
ATOM     19 CL   UNL     1      -2.302  10.036  -3.599  0.00  0.00    -0.084 Cl
ATOM     20 CL   UNL     1      -4.517  10.311  -5.519  0.00  0.00    -0.084 Cl
ATOM     21 CL   UNL     1      -5.064  10.346  -2.627  0.00  0.00    -0.084 Cl
ENDBRANCH   1  18
BRANCH   1  22
ATOM     22  N   UNL     1      -5.622   7.791  -4.193  0.00  0.00    +0.396 N 
ATOM     23  H   UNL     1      -6.101   8.628  -4.545  0.00  0.00    -0.083 HD
ATOM     24  H   UNL     1      -6.064   7.487  -3.318  0.00  0.00    -0.083 HD
BRANCH  22  25
ATOM     25  C   UNL     1      -5.728   6.712  -5.193  0.00  0.00    -0.031 C 
BRANCH  25  26
ATOM     26  C   UNL     1      -7.205   6.400  -5.439  0.00  0.00    +0.194 C 
ATOM     27  C   UNL     1      -7.330   5.215  -6.407  0.00  0.00    +0.271 C 
ATOM     28  O   UNL     1      -8.721   4.959  -6.625  0.00  0.00    -0.485 OA
ATOM     29  C   UNL     1      -9.509   6.039  -6.883  0.00  0.00    +0.162 A 
ATOM     30  C   UNL     1     -10.761   5.848  -7.447  0.00  0.00    +0.049 A 
ATOM     31  C   UNL     1     -11.575   6.935  -7.709  0.00  0.00    +0.004 A 
ATOM     32  C   UNL     1     -11.142   8.213  -7.410  0.00  0.00    +0.004 A 
ATOM     33  C   UNL     1      -9.895   8.410  -6.849  0.00  0.00    +0.049 A 
ATOM     34  C   UNL     1      -9.073   7.324  -6.584  0.00  0.00    +0.162 A 
ATOM     35  O   UNL     1      -7.846   7.534  -6.034  0.00  0.00    -0.484 OA
ENDBRANCH  25  26
ENDBRANCH  22  25
ENDBRANCH   1  22
TORSDOF 10
