REMARK  Name = ZINC17090561
REMARK  8 active torsions:
REMARK  status: ('A' for Active; 'I' for Inactive)
REMARK    1  A    between atoms: C_1  and  C_2
REMARK    2  A    between atoms: C_2  and  N_24
REMARK    3  A    between atoms: C_4  and  C_18
REMARK    4  A    between atoms: N_6  and  C_9
REMARK    5  A    between atoms: C_12  and  N_15
REMARK    6  A    between atoms: N_24  and  C_25
REMARK    7  A    between atoms: C_25  and  C_26
REMARK    8  A    between atoms: C_26  and  C_27
REMARK                            x       y       z     vdW  Elec       q    Type
REMARK                         _______ _______ _______ _____ _____    ______ ____
ROOT
ATOM      1  C   UNL     1      -0.667   1.428   0.086  0.00  0.00    +0.061 C 
ATOM      2  C   UNL     1      -0.332  -0.041   0.041  0.00  0.00    +0.015 C 
ATOM      3  C   UNL     1      -0.031  -0.717   1.208  0.00  0.00    +0.083 C 
ATOM      4  C   UNL     1       0.143  -0.140   2.555  0.00  0.00    +0.103 C 
ATOM      5  N   UNL     1       0.419  -1.128   3.366  0.00  0.00    -0.171 NA
ATOM      6  N   UNL     1       0.444  -2.334   2.664  0.00  0.00    -0.156 N 
ATOM      7  C   UNL     1       0.171  -2.117   1.363  0.00  0.00    +0.274 C 
ATOM      8  O   UNL     1       0.111  -2.961   0.484  0.00  0.00    -0.268 OA
ENDROOT
BRANCH   6   9
ATOM      9  C   UNL     1       0.710  -3.587   3.230  0.00  0.00    +0.060 A 
ATOM     10  C   UNL     1       0.715  -4.724   2.432  0.00  0.00    +0.028 A 
ATOM     11  C   UNL     1       0.978  -5.958   2.994  0.00  0.00    +0.034 A 
ATOM     12  C   UNL     1       1.234  -6.063   4.348  0.00  0.00    +0.126 A 
ATOM     13  C   UNL     1       1.229  -4.933   5.146  0.00  0.00    +0.034 A 
ATOM     14  C   UNL     1       0.974  -3.695   4.589  0.00  0.00    +0.028 A 
BRANCH  12  15
ATOM     15  N   UNL     1       1.514  -7.387   4.947  0.00  0.00    +0.056 N 
ATOM     16  O   UNL     1       1.518  -8.376   4.251  0.00  0.00    -0.126 OA
ATOM     17  O   UNL     1       1.738  -7.480   6.131  0.00  0.00    -0.126 OA
ENDBRANCH  12  15
ENDBRANCH   6   9
BRANCH   4  18
ATOM     18  C   UNL     1       0.027   1.292   2.921  0.00  0.00    +0.003 A 
ATOM     19  C   UNL     1      -0.957   1.708   3.817  0.00  0.00    +0.010 A 
ATOM     20  C   UNL     1      -1.059   3.042   4.154  0.00  0.00    +0.001 A 
ATOM     21  C   UNL     1      -0.189   3.966   3.604  0.00  0.00    +0.000 A 
ATOM     22  C   UNL     1       0.789   3.559   2.714  0.00  0.00    +0.001 A 
ATOM     23  C   UNL     1       0.905   2.227   2.374  0.00  0.00    +0.010 A 
ENDBRANCH   4  18
BRANCH   2  24
ATOM     24  N   UNL     1      -0.327  -0.696  -1.139  0.00  0.00    -0.346 N 
ATOM     25  H   UNL     1      -0.111  -1.641  -1.168  0.00  0.00    +0.146 HD
BRANCH  24  26
ATOM     26  C   UNL     1      -0.646   0.021  -2.376  0.00  0.00    +0.107 C 
BRANCH  26  27
ATOM     27  C   UNL     1      -0.569  -0.945  -3.560  0.00  0.00    +0.073 C 
BRANCH  27  28
ATOM     28  C   UNL     1      -0.897  -0.207  -4.832  0.00  0.00    +0.035 A 
ATOM     29  C   UNL     1      -2.132   0.022  -5.318  0.00  0.00    +0.105 A 
ATOM     30  N   UNL     1      -1.976   0.721  -6.484  0.00  0.00    -0.352 N 
ATOM     31  H   UNL     1      -2.685   1.033  -7.068  0.00  0.00    +0.166 HD
ATOM     32  C   UNL     1      -0.650   0.894  -6.671  0.00  0.00    +0.171 A 
ATOM     33  N   UNL     1      -0.011   0.341  -5.677  0.00  0.00    -0.350 N 
ATOM     34  H   UNL     1       0.953   0.327  -5.567  0.00  0.00    +0.166 HD
ENDBRANCH  27  28
ENDBRANCH  26  27
ENDBRANCH  24  26
ENDBRANCH   2  24
TORSDOF 7
