REMARK  Name = ZINC06064037
REMARK  8 active torsions:
REMARK  status: ('A' for Active; 'I' for Inactive)
REMARK    1  A    between atoms: C_1  and  C_2
REMARK    2  A    between atoms: C_5  and  N_23
REMARK    3  A    between atoms: C_7  and  N_8
REMARK    4  A    between atoms: C_9  and  C_11
REMARK    5  A    between atoms: C_11  and  O_12
REMARK    6  A    between atoms: O_12  and  C_13
REMARK    7  A    between atoms: C_18  and  N_19
REMARK    8  A    between atoms: C_20  and  C_22
REMARK                            x       y       z     vdW  Elec       q    Type
REMARK                         _______ _______ _______ _____ _____    ______ ____
ROOT
ATOM      1  N   UNL     1      -2.057  -3.116  -0.216  0.00  0.00    -0.282 N 
ATOM      2  C   UNL     1      -1.030  -2.244  -0.174  0.00  0.00    +0.255 C 
ATOM      3  O   UNL     1       0.111  -2.653  -0.143  0.00  0.00    -0.272 OA
ATOM      4  H   UNL     1      -2.970  -2.793  -0.159  0.00  0.00    +0.155 HD
ENDROOT
BRANCH   1  11
ATOM      5  C   UNL     1      -4.027  -4.934   0.739  0.00  0.00    +0.045 C 
ATOM      6  C   UNL     1      -2.741  -5.409   0.111  0.00  0.00    -0.029 A 
ATOM      7  C   UNL     1      -2.491  -6.761  -0.014  0.00  0.00    +0.007 A 
ATOM      8  C   UNL     1      -1.312  -7.198  -0.590  0.00  0.00    +0.033 A 
ATOM      9  C   UNL     1      -0.380  -6.282  -1.041  0.00  0.00    +0.128 A 
ATOM     10  C   UNL     1      -0.626  -4.928  -0.923  0.00  0.00    +0.056 A 
ATOM     11  C   UNL     1      -1.807  -4.487  -0.341  0.00  0.00    +0.039 A 
BRANCH   9  12
ATOM     12  N   UNL     1       0.881  -6.753  -1.657  0.00  0.00    +0.056 N 
ATOM     13  O   UNL     1       1.097  -7.947  -1.766  0.00  0.00    -0.126 OA
ATOM     14  O   UNL     1       1.703  -5.947  -2.054  0.00  0.00    -0.126 OA
ENDBRANCH   9  12
ENDBRANCH   1  11
BRANCH   2  15
ATOM     15  C   UNL     1      -1.300  -0.762  -0.166  0.00  0.00    +0.325 C 
BRANCH  15  16
ATOM     16  O   UNL     1      -0.060  -0.052  -0.119  0.00  0.00    -0.481 OA
BRANCH  16  17
ATOM     17  C   UNL     1      -0.126   1.306  -0.106  0.00  0.00    +0.142 A 
ATOM     18  C   UNL     1      -1.357   1.942  -0.143  0.00  0.00    +0.047 A 
ATOM     19  C   UNL     1      -1.422   3.322  -0.125  0.00  0.00    +0.004 A 
ATOM     20  C   UNL     1      -0.262   4.073  -0.080  0.00  0.00    +0.002 A 
ATOM     21  C   UNL     1       0.970   3.447  -0.048  0.00  0.00    +0.027 A 
ATOM     22  C   UNL     1       1.043   2.061  -0.061  0.00  0.00    +0.076 A 
BRANCH  22  23
ATOM     23  N   UNL     1       2.291   1.424  -0.029  0.00  0.00    -0.283 N 
ATOM     24  C   UNL     1       3.305   1.963   0.676  0.00  0.00    +0.214 C 
ATOM     25  O   UNL     1       3.165   3.043   1.211  0.00  0.00    -0.276 OA
ATOM     26  C   UNL     1       4.613   1.225   0.799  0.00  0.00    +0.109 C 
ATOM     27  H   UNL     1       2.424   0.595  -0.514  0.00  0.00    +0.155 HD
ENDBRANCH  22  23
ENDBRANCH  16  17
ENDBRANCH  15  16
ENDBRANCH   2  15
TORSDOF 6
