REMARK  Name = ZINC40545188
REMARK  4 active torsions:
REMARK  status: ('A' for Active; 'I' for Inactive)
REMARK    1  A    between atoms: C_1  and  C_2
REMARK    2  A    between atoms: C_13  and  C_20
REMARK    3  A    between atoms: C_15  and  N_19
REMARK    4  A    between atoms: C_16  and  C_17
REMARK                            x       y       z     vdW  Elec       q    Type
REMARK                         _______ _______ _______ _____ _____    ______ ____
ROOT
ATOM      1  C   UNL     1      -0.018   1.503   0.010  0.00  0.00    +0.044 C 
ATOM      2  C   UNL     1       0.002  -0.004   0.002  0.00  0.00    -0.047 A 
ATOM      3  C   UNL     1       0.006  -0.688  -1.199  0.00  0.00    +0.030 A 
ATOM      4  C   UNL     1       0.025  -2.076  -1.208  0.00  0.00    +0.074 A 
ATOM      5  C   UNL     1       0.040  -2.780  -0.009  0.00  0.00    +0.159 A 
ATOM      6  C   UNL     1       0.036  -2.084   1.193  0.00  0.00    +0.062 A 
ATOM      7  C   UNL     1       0.023  -0.701   1.195  0.00  0.00    +0.022 A 
ATOM      8 BR   UNL     1       0.056  -3.029   2.831  0.00  0.00    -0.046 Br
ATOM      9  O   UNL     1       0.058  -4.119  -0.251  0.00  0.00    -0.457 OA
ATOM     10  C   UNL     1       0.059  -4.326  -1.665  0.00  0.00    +0.240 C 
ATOM     11  N   UNL     1       0.033  -2.990  -2.273  0.00  0.00    -0.296 N 
ATOM     12  C   UNL     1       1.306  -5.054  -2.082  0.00  0.00    +0.088 C 
ATOM     13  C   UNL     1       1.274  -6.319  -2.428  0.00  0.00    +0.106 C 
ATOM     14  O   UNL     1       0.131  -7.037  -2.430  0.00  0.00    -0.446 OA
ATOM     15  C   UNL     1      -1.058  -6.407  -2.435  0.00  0.00    +0.203 C 
ATOM     16  C   UNL     1      -1.162  -5.101  -2.077  0.00  0.00    +0.152 C 
ATOM     17  C   UNL     1       2.558  -6.993  -2.838  0.00  0.00    +0.086 C 
ATOM     18  H   UNL     1       0.023  -2.781  -3.220  0.00  0.00    +0.151 HD
ENDROOT
BRANCH  15  19
ATOM     19  N   UNL     1      -2.185  -7.096  -2.809  0.00  0.00    -0.328 N 
ATOM     20  H   UNL     1      -2.120  -8.028  -3.067  0.00  0.00    +0.145 HD
ATOM     21  H   UNL     1      -3.046  -6.649  -2.816  0.00  0.00    +0.145 HD
ENDBRANCH  15  19
BRANCH  16  22
ATOM     22  C   UNL     1      -2.441  -4.459  -2.091  0.00  0.00    +0.106 C 
ATOM     23  N   UNL     1      -3.457  -3.949  -2.103  0.00  0.00    -0.191 NA
ENDBRANCH  16  22
TORSDOF 2
