REMARK  Name = ZINC45665958
REMARK  7 active torsions:
REMARK  status: ('A' for Active; 'I' for Inactive)
REMARK    1  A    between atoms: C_1  and  C_2
REMARK    2  A    between atoms: C_3  and  N_21
REMARK    3  A    between atoms: C_7  and  S_8
REMARK    4  A    between atoms: S_8  and  N_11
REMARK    5  A    between atoms: C_13  and  C_20
REMARK    6  A    between atoms: C_16  and  C_18
REMARK    7  A    between atoms: C_16  and  C_19
REMARK                            x       y       z     vdW  Elec       q    Type
REMARK                         _______ _______ _______ _____ _____    ______ ____
ROOT
ATOM      1  S   UNL     1       0.025   0.171   2.724  0.00  0.00    +0.061 S 
ATOM      2  O   UNL     1      -1.015   1.136   2.643  0.00  0.00    -0.153 OA
ATOM      3  O   UNL     1       0.075  -0.810   3.751  0.00  0.00    -0.153 OA
ENDROOT
BRANCH   1   4
ATOM      4  N   UNL     1       1.448   1.014   2.805  0.00  0.00    -0.171 NA
ATOM      5  C   UNL     1       2.652   0.412   3.398  0.00  0.00    +0.140 C 
ATOM      6  C   UNL     1       3.226   1.392   4.428  0.00  0.00    +0.132 C 
ATOM      7  O   UNL     1       3.392   2.674   3.817  0.00  0.00    -0.368 OA
ATOM      8  C   UNL     1       2.172   3.271   3.370  0.00  0.00    +0.079 C 
ATOM      9  C   UNL     1       1.546   2.386   2.281  0.00  0.00    +0.144 C 
ATOM     10  C   UNL     1       2.464   4.658   2.794  0.00  0.00    +0.042 C 
ATOM     11  C   UNL     1       1.204   3.400   4.548  0.00  0.00    +0.042 C 
ATOM     12  C   UNL     1       4.581   0.880   4.921  0.00  0.00    +0.039 C 
ENDBRANCH   1   4
BRANCH   1  19
ATOM     13  C   UNL     1      -0.018   1.503   0.010  0.00  0.00    +0.047 C 
ATOM     14  C   UNL     1       0.002  -0.004   0.002  0.00  0.00    -0.004 A 
ATOM     15  C   UNL     1       0.006  -0.693  -1.204  0.00  0.00    +0.029 A 
ATOM     16  C   UNL     1       0.025  -2.082  -1.208  0.00  0.00    +0.023 A 
ATOM     17  C   UNL     1       0.041  -2.773  -0.012  0.00  0.00    +0.004 A 
ATOM     18  C   UNL     1       0.037  -2.085   1.187  0.00  0.00    +0.029 A 
ATOM     19  C   UNL     1       0.023  -0.702   1.194  0.00  0.00    +0.110 A 
BRANCH  15  20
ATOM     20  N   UNL     1      -0.010   0.010  -2.412  0.00  0.00    -0.358 N 
ATOM     21  H   UNL     1      -0.024   0.980  -2.408  0.00  0.00    +0.142 HD
ATOM     22  H   UNL     1      -0.008  -0.472  -3.253  0.00  0.00    +0.142 HD
ENDBRANCH  15  20
ENDBRANCH   1  19
TORSDOF 3
