REMARK  Name = ZINC49853180
REMARK  6 active torsions:
REMARK  status: ('A' for Active; 'I' for Inactive)
REMARK    1  A    between atoms: C_1  and  C_2
REMARK    2  A    between atoms: C_2  and  C_3
REMARK    3  A    between atoms: C_6  and  C_8
REMARK    4  A    between atoms: C_8  and  C_10
REMARK    5  A    between atoms: C_8  and  N_11
REMARK    6  A    between atoms: C_12  and  N_17
REMARK                            x       y       z     vdW  Elec       q    Type
REMARK                         _______ _______ _______ _____ _____    ______ ____
ROOT
ATOM      1  C   UNL     1       1.755  -1.809  -5.073  0.00  0.00    +0.143 C 
ATOM      2  C   UNL     1       0.928  -3.070  -5.331  0.00  0.00    +0.038 C 
ENDROOT
BRANCH   1   3
ATOM      3  N   UNL     1       1.335  -0.753  -5.997  0.00  0.00    -0.242 N 
ATOM      4  C   UNL     1       2.121  -0.135  -6.916  0.00  0.00    +0.128 A 
ATOM      5  C   UNL     1       1.349   0.780  -7.566  0.00  0.00    +0.072 A 
ATOM      6  C   UNL     1       0.061   0.714  -7.026  0.00  0.00    +0.150 A 
ATOM      7  N   UNL     1       0.050  -0.204  -6.094  0.00  0.00    -0.176 NA
ATOM      8  I   UNL     1       1.979   2.058  -9.101  0.00  0.00    -0.039 I 
BRANCH   4   9
ATOM      9  N   UNL     1       3.470  -0.390  -7.151  0.00  0.00    -0.342 N 
ATOM     10  H   UNL     1       3.933  -1.065  -6.632  0.00  0.00    +0.144 HD
ATOM     11  H   UNL     1       3.946   0.108  -7.834  0.00  0.00    +0.144 HD
ENDBRANCH   4   9
ENDBRANCH   1   3
BRANCH   1  15
ATOM     12  C   UNL     1       0.707  -0.490  -1.238  0.00  0.00    -0.010 A 
ATOM     13  C   UNL     1       2.023  -0.761  -1.421  0.00  0.00    +0.011 A 
ATOM     14  C   UNL     1       2.451  -1.202  -2.659  0.00  0.00    +0.013 A 
ATOM     15  C   UNL     1       1.542  -1.350  -3.654  0.00  0.00    +0.014 A 
ATOM     16  S   UNL     1       0.026  -0.866  -2.845  0.00  0.00    -0.096 S 
BRANCH  12  18
ATOM     17  C   UNL     1      -0.019   1.526   0.010  0.00  0.00    +0.009 C 
ATOM     18  C   UNL     1       0.002  -0.004   0.002  0.00  0.00    +0.039 C 
ENDBRANCH  12  18
ENDBRANCH   1  15
TORSDOF 4
