REMARK  Name = ZINC31649911
REMARK  7 active torsions:
REMARK  status: ('A' for Active; 'I' for Inactive)
REMARK    1  A    between atoms: C_1  and  C_2
REMARK    2  A    between atoms: C_5  and  C_8
REMARK    3  A    between atoms: N_11  and  C_13
REMARK    4  A    between atoms: C_13  and  C_15
REMARK    5  A    between atoms: C_13  and  C_16
REMARK    6  A    between atoms: N_21  and  C_22
REMARK    7  A    between atoms: C_22  and  C_23
REMARK                            x       y       z     vdW  Elec       q    Type
REMARK                         _______ _______ _______ _____ _____    ______ ____
ROOT
ATOM      1  C   UNL     1       0.002  -0.004   0.002  0.00  0.00    +0.213 C 
ATOM      2  C   UNL     1      -0.019   1.526   0.010  0.00  0.00    +0.044 C 
ENDROOT
BRANCH   1   3
ATOM      3  C   UNL     1       0.707  -0.490  -1.238  0.00  0.00    +0.247 C 
ATOM      4  O   UNL     1       1.704  -1.174  -1.140  0.00  0.00    -0.273 OA
ATOM      5  N   UNL     1       0.231  -0.164  -2.456  0.00  0.00    -0.238 N 
ATOM      6  C   UNL     1       0.862  -0.599  -3.565  0.00  0.00    +0.306 C 
ATOM      7  O   UNL     1       1.860  -1.285  -3.466  0.00  0.00    -0.252 OA
ATOM      8  N   UNL     1       0.385  -0.273  -4.782  0.00  0.00    -0.294 N 
ATOM      9  H   UNL     1      -0.673   0.457  -2.545  0.00  0.00    +0.159 HD
ATOM     10  H   UNL     1      -0.518   0.348  -4.872  0.00  0.00    +0.151 HD
BRANCH   8  11
ATOM     11  C   UNL     1       1.071  -0.745  -5.988  0.00  0.00    +0.148 C 
BRANCH  11  12
ATOM     12  C   UNL     1       0.342  -0.246  -7.209  0.00  0.00    +0.007 A 
ATOM     13  C   UNL     1       0.522   0.907  -7.898  0.00  0.00    +0.013 A 
ATOM     14  C   UNL     1      -0.269   1.157  -9.004  0.00  0.00    +0.008 A 
ATOM     15  C   UNL     1      -1.209   0.247  -9.359  0.00  0.00    +0.045 A 
ATOM     16  S   UNL     1      -0.987  -1.017  -8.118  0.00  0.00    -0.100 S 
ENDBRANCH  11  12
ENDBRANCH   8  11
ENDBRANCH   1   3
BRANCH   1  20
ATOM     17  C   UNL     1       1.140  -1.470   3.003  0.00  0.00    +0.205 A 
ATOM     18  N   UNL     1       2.235  -0.814   2.593  0.00  0.00    -0.108 NA
ATOM     19  N   UNL     1       1.938  -0.232   1.481  0.00  0.00    -0.045 NA
ATOM     20  N   UNL     1       0.711  -0.489   1.189  0.00  0.00    -0.151 N 
ATOM     21  N   UNL     1       0.205  -1.245   2.102  0.00  0.00    -0.130 NA
BRANCH  17  26
ATOM     22  C   UNL     1       0.623  -4.651   7.777  0.00  0.00    +0.044 C 
ATOM     23  C   UNL     1       0.759  -3.819   6.528  0.00  0.00    -0.050 A 
ATOM     24  C   UNL     1       1.961  -3.200   6.239  0.00  0.00    +0.004 A 
ATOM     25  C   UNL     1       2.091  -2.436   5.097  0.00  0.00    +0.012 A 
ATOM     26  C   UNL     1       1.007  -2.290   4.234  0.00  0.00    +0.023 A 
ATOM     27  C   UNL     1      -0.204  -2.911   4.532  0.00  0.00    +0.012 A 
ATOM     28  C   UNL     1      -0.321  -3.677   5.675  0.00  0.00    +0.004 A 
ENDBRANCH  17  26
ENDBRANCH   1  20
TORSDOF 5
