REMARK  Name = ZINC25854794
REMARK  5 active torsions:
REMARK  status: ('A' for Active; 'I' for Inactive)
REMARK    1  A    between atoms: C_1  and  C_2
REMARK    2  A    between atoms: C_6  and  C_7
REMARK    3  A    between atoms: C_7  and  O_9
REMARK    4  A    between atoms: O_9  and  C_10
REMARK    5  A    between atoms: C_10  and  C_11
REMARK                            x       y       z     vdW  Elec       q    Type
REMARK                         _______ _______ _______ _____ _____    ______ ____
ROOT
ATOM      1  C   UNL     1       0.010   0.005   0.169  0.00  0.00    +0.170 A 
ATOM      2  N   UNL     1       1.146  -0.670   0.149  0.00  0.00    -0.214 NA
ATOM      3  C   UNL     1       2.316  -0.075  -0.021  0.00  0.00    +0.128 A 
ATOM      4  C   UNL     1       2.356   1.337  -0.188  0.00  0.00    +0.051 A 
ATOM      5  C   UNL     1       3.525   2.200  -0.391  0.00  0.00    -0.025 A 
ATOM      6  C   UNL     1       3.287   3.521  -0.516  0.00  0.00    -0.004 A 
ATOM      7  S   UNL     1       1.526   3.693  -0.389  0.00  0.00    -0.073 S 
ATOM      8  C   UNL     1       1.107   1.986  -0.154  0.00  0.00    +0.114 A 
ATOM      9  N   UNL     1      -0.015   1.315   0.020  0.00  0.00    -0.221 NA
ATOM     10  C   UNL     1       4.287   4.619  -0.714  0.00  0.00    +0.043 C 
ATOM     11  C   UNL     1       5.243   4.235  -1.851  0.00  0.00    +0.005 C 
ATOM     12  C   UNL     1       6.421   3.474  -1.252  0.00  0.00    +0.001 C 
ATOM     13  C   UNL     1       5.957   2.659  -0.045  0.00  0.00    +0.005 C 
ATOM     14  C   UNL     1       4.932   1.615  -0.469  0.00  0.00    +0.037 C 
ATOM     15  N   UNL     1       3.483  -0.816  -0.037  0.00  0.00    -0.343 N 
ATOM     16  H   UNL     1       4.452  -0.314  -0.179  0.00  0.00    +0.144 HD
ATOM     17  H   UNL     1       3.444  -1.908   0.092  0.00  0.00    +0.144 HD
ENDROOT
BRANCH   1  18
ATOM     18  C   UNL     1      -1.285  -0.739   0.368  0.00  0.00    +0.308 C 
BRANCH  18  19
ATOM     19  O   UNL     1      -1.819  -1.135  -0.923  0.00  0.00    -0.451 OA
BRANCH  19  20
ATOM     20  C   UNL     1      -2.984  -1.815  -0.921  0.00  0.00    +0.376 C 
ATOM     21  O   UNL     1      -3.538  -2.071   0.131  0.00  0.00    -0.241 OA
BRANCH  20  27
ATOM     22  C   UNL     1      -5.656  -3.412  -1.220  0.00  0.00    +0.048 C 
ATOM     23  C   UNL     1      -4.748  -2.944  -2.328  0.00  0.00    +0.002 A 
ATOM     24  C   UNL     1      -4.938  -3.138  -3.705  0.00  0.00    +0.045 A 
ATOM     25  C   UNL     1      -3.889  -2.566  -4.336  0.00  0.00    +0.196 A 
ATOM     26  O   UNL     1      -3.074  -2.030  -3.418  0.00  0.00    -0.456 OA
ATOM     27  C   UNL     1      -3.581  -2.247  -2.187  0.00  0.00    +0.214 A 
ENDBRANCH  20  27
ENDBRANCH  19  20
ENDBRANCH  18  19
ENDBRANCH   1  18
TORSDOF 4
