REMARK  Name = ZINC57866667
REMARK  4 active torsions:
REMARK  status: ('A' for Active; 'I' for Inactive)
REMARK    1  A    between atoms: C_1  and  C_2
REMARK    2  A    between atoms: N_10  and  C_11
REMARK    3  A    between atoms: C_11  and  C_12
REMARK    4  A    between atoms: C_12  and  C_13
REMARK                            x       y       z     vdW  Elec       q    Type
REMARK                         _______ _______ _______ _____ _____    ______ ____
ROOT
ATOM      1  C   UNL     1      -0.018   1.503   0.010  0.00  0.00    +0.086 C 
ATOM      2  C   UNL     1       0.002  -0.004   0.002  0.00  0.00    +0.108 A 
ATOM      3  N   UNL     1       0.008  -0.744  -1.068  0.00  0.00    -0.232 NA
ATOM      4  C   UNL     1       0.027  -2.056  -0.717  0.00  0.00    +0.093 A 
ATOM      5  C   UNL     1       0.039  -3.247  -1.449  0.00  0.00    +0.079 A 
ATOM      6  C   UNL     1       0.058  -4.458  -0.791  0.00  0.00    +0.168 A 
ATOM      7  C   UNL     1       0.065  -4.501   0.607  0.00  0.00    +0.168 A 
ATOM      8  C   UNL     1       0.051  -3.330   1.339  0.00  0.00    +0.077 A 
ATOM      9  C   UNL     1       0.033  -2.104   0.686  0.00  0.00    +0.073 A 
ATOM     10  N   UNL     1       0.023  -0.790   1.113  0.00  0.00    -0.328 N 
ATOM     11  O   UNL     1       0.084  -5.809   1.001  0.00  0.00    -0.453 OA
ATOM     12  C   UNL     1      -0.325  -6.565  -0.154  0.00  0.00    +0.466 C 
ATOM     13  O   UNL     1       0.073  -5.740  -1.264  0.00  0.00    -0.453 OA
ENDROOT
BRANCH  10  14
ATOM     14  C   UNL     1       0.030  -0.328   2.503  0.00  0.00    +0.122 C 
BRANCH  14  15
ATOM     15  C   UNL     1      -1.410  -0.187   3.001  0.00  0.00    +0.006 C 
BRANCH  15  16
ATOM     16  C   UNL     1      -1.402   0.295   4.453  0.00  0.00    -0.070 C 
ATOM     17  C   UNL     1      -2.835   0.315   4.991  0.00  0.00    -0.016 C 
ATOM     18  C   UNL     1      -2.823   0.798   6.444  0.00  0.00    -0.003 C 
ATOM     19  C   UNL     1      -2.160   2.177   6.508  0.00  0.00    -0.019 C 
ATOM     20  C   UNL     1      -0.752   2.088   5.914  0.00  0.00    -0.082 C 
ATOM     21  N   UNL     1      -0.834   1.647   4.516  0.00  0.00    +0.381 N 
ATOM     22  H   UNL     1       0.090   1.641   4.112  0.00  0.00    -0.086 HD
ATOM     23  H   UNL     1      -1.422   2.282   3.998  0.00  0.00    -0.086 HD
ENDBRANCH  15  16
ENDBRANCH  14  15
ENDBRANCH  10  14
TORSDOF 3
