REMARK  Name = ZINC48911744
REMARK  4 active torsions:
REMARK  status: ('A' for Active; 'I' for Inactive)
REMARK    1  A    between atoms: C_1  and  C_2
REMARK    2  A    between atoms: C_8  and  C_10
REMARK    3  A    between atoms: N_18  and  C_19
REMARK    4  A    between atoms: N_18  and  C_20
REMARK                            x       y       z     vdW  Elec       q    Type
REMARK                         _______ _______ _______ _____ _____    ______ ____
ROOT
ATOM      1  C   UNL     1      -3.593  -4.315  -0.004  0.00  0.00    +0.077 A 
ATOM      2  C   UNL     1      -4.973  -4.398  -0.003  0.00  0.00    +0.038 A 
ATOM      3  C   UNL     1      -5.569  -5.639  -0.006  0.00  0.00    +0.049 A 
ATOM      4  C   UNL     1      -4.734  -6.772  -0.009  0.00  0.00    +0.118 A 
ATOM      5  S   UNL     1      -3.105  -6.030  -0.016  0.00  0.00    -0.063 S 
ATOM      6  N   UNL     1      -5.313  -7.966  -0.011  0.00  0.00    -0.218 NA
ATOM      7  C   UNL     1      -6.623  -8.111  -0.010  0.00  0.00    +0.162 A 
ATOM      8  S   UNL     1      -7.184  -6.416  -0.006  0.00  0.00    -0.052 S 
ATOM      9  N   UNL     1      -7.369  -9.272  -0.011  0.00  0.00    -0.316 N 
ATOM     10  C   UNL     1      -6.697 -10.574  -0.014  0.00  0.00    +0.131 C 
ATOM     11  C   UNL     1      -8.832  -9.203  -0.009  0.00  0.00    +0.131 C 
ENDROOT
BRANCH   1  19
ATOM     12  C   UNL     1      -0.018   1.503   0.010  0.00  0.00    +0.089 C 
ATOM     13  C   UNL     1       0.002  -0.004   0.002  0.00  0.00    +0.136 A 
ATOM     14  C   UNL     1      -1.076  -0.807   0.003  0.00  0.00    +0.091 A 
ATOM     15  C   UNL     1      -0.625  -2.147  -0.007  0.00  0.00    +0.168 A 
ATOM     16  N   UNL     1       0.683  -2.130  -0.013  0.00  0.00    -0.063 NA
ATOM     17  O   UNL     1       1.100  -0.776  -0.013  0.00  0.00    -0.358 OA
ATOM     18  N   UNL     1      -1.431  -3.284  -0.009  0.00  0.00    -0.263 N 
ATOM     19  C   UNL     1      -2.773  -3.159  -0.002  0.00  0.00    +0.256 C 
ATOM     20  O   UNL     1      -3.281  -2.052   0.007  0.00  0.00    -0.269 OA
ATOM     21  H   UNL     1      -1.026  -4.165  -0.015  0.00  0.00    +0.157 HD
ENDBRANCH   1  19
TORSDOF 1
