REMARK  Name = ZINC15108966
REMARK  11 active torsions:
REMARK  status: ('A' for Active; 'I' for Inactive)
REMARK    1  A    between atoms: C_1  and  C_2
REMARK    2  A    between atoms: C_2  and  C_4
REMARK    3  A    between atoms: C_2  and  N_50
REMARK    4  A    between atoms: N_9  and  C_10
REMARK    5  A    between atoms: C_10  and  C_11
REMARK    6  A    between atoms: C_10  and  C_12
REMARK    7  A    between atoms: C_10  and  C_13
REMARK    8  A    between atoms: C_14  and  N_50
REMARK    9  A    between atoms: C_15  and  C_16
REMARK   10  A    between atoms: C_15  and  N_50
REMARK   11  A    between atoms: N_18  and  C_19
REMARK                            x       y       z     vdW  Elec       q    Type
REMARK                         _______ _______ _______ _____ _____    ______ ____
ROOT
ATOM      1  C   UNL     1      -4.023   1.707  -0.408  0.00  0.00    -0.094 C 
ATOM      2  N   UNL     1      -2.693   1.081  -0.250  0.00  0.00    +0.391 N 
ATOM      3  H   UNL     1      -2.695   0.504   0.600  0.00  0.00    -0.080 HD
ENDROOT
BRANCH   2   5
ATOM      4  C   UNL     1      -1.392   2.791  -1.471  0.00  0.00    -0.004 C 
ATOM      5  C   UNL     1      -1.655   2.125  -0.119  0.00  0.00    +0.017 C 
BRANCH   5   6
ATOM      6  C   UNL     1      -0.386   1.486   0.382  0.00  0.00    +0.207 C 
ATOM      7  O   UNL     1      -0.316   0.280   0.490  0.00  0.00    -0.277 OA
ATOM      8  N   UNL     1       0.674   2.254   0.704  0.00  0.00    -0.242 N 
ATOM      9  C   UNL     1       1.811   1.682   1.146  0.00  0.00    +0.306 C 
ATOM     10  O   UNL     1       1.881   0.474   1.255  0.00  0.00    -0.252 OA
ATOM     11  N   UNL     1       2.871   2.450   1.468  0.00  0.00    -0.294 N 
ATOM     12  H   UNL     1       0.618   3.218   0.617  0.00  0.00    +0.159 HD
ATOM     13  H   UNL     1       2.815   3.415   1.381  0.00  0.00    +0.151 HD
BRANCH  11  14
ATOM     14  C   UNL     1       4.107   1.829   1.949  0.00  0.00    +0.028 C 
ATOM     15  C   UNL     1       4.650   0.879   0.879  0.00  0.00    +0.031 C 
ATOM     16  C   UNL     1       5.144   2.915   2.241  0.00  0.00    +0.031 C 
ATOM     17  C   UNL     1       3.818   1.042   3.229  0.00  0.00    +0.031 C 
ENDBRANCH  11  14
ENDBRANCH   5   6
ENDBRANCH   2   5
BRANCH   2  18
ATOM     18  C   UNL     1      -2.399   0.219  -1.414  0.00  0.00    +0.020 C 
BRANCH  18  19
ATOM     19  C   UNL     1      -3.337  -0.960  -1.396  0.00  0.00    +0.201 C 
ATOM     20  O   UNL     1      -4.170  -1.059  -0.520  0.00  0.00    -0.278 OA
ATOM     21  N   UNL     1      -3.252  -1.904  -2.354  0.00  0.00    -0.286 N 
ATOM     22  H   UNL     1      -2.627  -1.796  -3.088  0.00  0.00    +0.155 HD
BRANCH  21  23
ATOM     23  C   UNL     1      -4.065  -3.042  -2.291  0.00  0.00    +0.052 A 
ATOM     24  C   UNL     1      -5.301  -2.979  -1.660  0.00  0.00    +0.025 A 
ATOM     25  C   UNL     1      -6.104  -4.102  -1.603  0.00  0.00    +0.002 A 
ATOM     26  C   UNL     1      -5.674  -5.290  -2.165  0.00  0.00    +0.002 A 
ATOM     27  C   UNL     1      -4.442  -5.358  -2.789  0.00  0.00    +0.022 A 
ATOM     28  C   UNL     1      -3.636  -4.237  -2.853  0.00  0.00    +0.062 A 
ATOM     29 CL   UNL     1      -2.089  -4.323  -3.637  0.00  0.00    -0.082 Cl
ENDBRANCH  21  23
ENDBRANCH  18  19
ENDBRANCH   2  18
TORSDOF 6
