REMARK  Name = ZINC63119401
REMARK  12 active torsions:
REMARK  status: ('A' for Active; 'I' for Inactive)
REMARK    1  A    between atoms: C_1  and  C_2
REMARK    2  A    between atoms: C_4  and  C_32
REMARK    3  A    between atoms: C_5  and  C_28
REMARK    4  A    between atoms: C_6  and  N_9
REMARK    5  A    between atoms: C_10  and  C_12
REMARK    6  A    between atoms: N_14  and  C_15
REMARK    7  A    between atoms: C_15  and  C_16
REMARK    8  A    between atoms: C_16  and  C_17
REMARK    9  A    between atoms: C_20  and  O_26
REMARK   10  A    between atoms: O_26  and  C_27
REMARK   11  A    between atoms: C_28  and  O_30
REMARK   12  A    between atoms: O_30  and  C_31
REMARK                            x       y       z     vdW  Elec       q    Type
REMARK                         _______ _______ _______ _____ _____    ______ ____
ROOT
ATOM      1  C   UNL     1      -1.639   0.184   5.789  0.00  0.00    +0.299 C 
ATOM      2  O   UNL     1      -2.097   1.273   5.512  0.00  0.00    -0.265 OA
ATOM      3  N   UNL     1      -1.575  -0.213   7.075  0.00  0.00    -0.307 N 
ATOM      4  H   UNL     1      -1.208  -1.083   7.296  0.00  0.00    +0.149 HD
ENDROOT
BRANCH   1   6
ATOM      5  N   UNL     1      -1.210  -0.320   3.417  0.00  0.00    -0.292 N 
ATOM      6  C   UNL     1      -1.146  -0.717   4.703  0.00  0.00    +0.300 C 
ATOM      7  O   UNL     1      -0.688  -1.806   4.980  0.00  0.00    -0.265 OA
ATOM      8  H   UNL     1      -1.577   0.550   3.196  0.00  0.00    +0.151 HD
BRANCH   5  13
ATOM      9  C   UNL     1      -0.385   1.716   0.278  0.00  0.00    +0.024 C 
ATOM     10  C   UNL     1      -0.123   0.222   0.078  0.00  0.00    +0.072 C 
ATOM     11  C   UNL     1      -1.418  -0.570   0.110  0.00  0.00    -0.047 C 
ATOM     12  C   UNL     1      -1.706  -1.248   1.192  0.00  0.00    +0.067 C 
ATOM     13  C   UNL     1      -0.727  -1.204   2.353  0.00  0.00    +0.169 C 
ATOM     14  S   UNL     1       0.766  -0.497   1.527  0.00  0.00    -0.126 S 
ATOM     15  C   UNL     1      -2.349  -0.575  -1.075  0.00  0.00    +0.041 C 
BRANCH  12  16
ATOM     16  C   UNL     1      -2.945  -2.033   1.282  0.00  0.00    +0.338 C 
ATOM     17  O   UNL     1      -3.658  -2.157   0.306  0.00  0.00    -0.245 OA
BRANCH  16  18
ATOM     18  O   UNL     1      -3.291  -2.616   2.447  0.00  0.00    -0.465 OA
ATOM     19  C   UNL     1      -4.508  -3.364   2.463  0.00  0.00    +0.280 C 
ENDBRANCH  16  18
ENDBRANCH  12  16
ENDBRANCH   5  13
ENDBRANCH   1   6
BRANCH   3  20
ATOM     20  C   UNL     1      -2.058   0.670   8.139  0.00  0.00    +0.109 C 
BRANCH  20  21
ATOM     21  C   UNL     1      -1.872  -0.015   9.495  0.00  0.00    +0.052 C 
BRANCH  21  22
ATOM     22  C   UNL     1      -2.369   0.894  10.589  0.00  0.00    -0.040 C 
ATOM     23  C   UNL     1      -3.594   0.881  11.163  0.00  0.00    +0.002 A 
ATOM     24  C   UNL     1      -4.785   0.051  10.949  0.00  0.00    +0.055 A 
ATOM     25  C   UNL     1      -5.896   0.275  11.691  0.00  0.00    +0.121 A 
ATOM     26  C   UNL     1      -5.954   1.283  12.669  0.00  0.00    +0.047 A 
ATOM     27  C   UNL     1      -4.911   2.097  12.938  0.00  0.00    +0.029 A 
ATOM     28  C   UNL     1      -3.657   1.942  12.194  0.00  0.00    +0.043 A 
ATOM     29  N   UNL     1      -2.517   2.585  12.255  0.00  0.00    -0.380 N 
ATOM     30  C   UNL     1      -1.597   2.000  11.273  0.00  0.00    +0.144 C 
ATOM     31  H   UNL     1      -2.314   3.322  12.853  0.00  0.00    +0.160 HD
BRANCH  25  32
ATOM     32  O   UNL     1      -6.992  -0.500  11.481  0.00  0.00    -0.495 OA
ATOM     33  C   UNL     1      -8.142  -0.230  12.285  0.00  0.00    +0.277 C 
ENDBRANCH  25  32
ENDBRANCH  21  22
ENDBRANCH  20  21
ENDBRANCH   3  20
TORSDOF 8
