REMARK  Name = ZINC06195818
REMARK  12 active torsions:
REMARK  status: ('A' for Active; 'I' for Inactive)
REMARK    1  A    between atoms: C_1  and  C_2
REMARK    2  A    between atoms: C_5  and  C_38
REMARK    3  A    between atoms: C_6  and  N_8
REMARK    4  A    between atoms: C_13  and  C_15
REMARK    5  A    between atoms: C_13  and  C_29
REMARK    6  A    between atoms: C_13  and  N_72
REMARK    7  A    between atoms: C_19  and  C_28
REMARK    8  A    between atoms: C_20  and  C_27
REMARK    9  A    between atoms: N_33  and  C_34
REMARK   10  A    between atoms: C_34  and  C_35
REMARK   11  A    between atoms: C_35  and  O_36
REMARK   12  A    between atoms: O_36  and  C_37
REMARK                            x       y       z     vdW  Elec       q    Type
REMARK                         _______ _______ _______ _____ _____    ______ ____
ROOT
ATOM      1  C   UNL     1       5.213   6.997   0.031  0.00  0.00    +0.039 C 
ENDROOT
BRANCH   1   2
ATOM      2  C   UNL     1       5.453   7.588   1.397  0.00  0.00    +0.011 A 
ATOM      3  C   UNL     1       6.611   7.327   2.051  0.00  0.00    +0.017 A 
ATOM      4  C   UNL     1       6.816   7.920   3.374  0.00  0.00    -0.001 A 
ATOM      5  C   UNL     1       7.992   7.691   4.096  0.00  0.00    +0.013 A 
ATOM      6  C   UNL     1       8.150   8.256   5.330  0.00  0.00    -0.047 A 
ATOM      7  C   UNL     1       7.154   9.055   5.874  0.00  0.00    -0.046 A 
ATOM      8  C   UNL     1       5.987   9.293   5.181  0.00  0.00    +0.030 A 
ATOM      9  C   UNL     1       5.803   8.729   3.923  0.00  0.00    +0.049 A 
ATOM     10  N   UNL     1       4.646   8.951   3.208  0.00  0.00    -0.322 N 
ATOM     11  H   UNL     1       3.949   9.509   3.588  0.00  0.00    +0.169 HD
ATOM     12  C   UNL     1       4.469   8.406   1.992  0.00  0.00    +0.251 A 
ATOM     13  O   UNL     1       3.433   8.625   1.388  0.00  0.00    -0.268 OA
ATOM     14  C   UNL     1       7.351   9.667   7.237  0.00  0.00    +0.044 C 
ATOM     15  C   UNL     1       9.418   8.010   6.107  0.00  0.00    +0.044 C 
ENDBRANCH   1   2
BRANCH   1  21
ATOM     16  N   UNL     1       2.353   3.888   0.001  0.00  0.00    -0.333 N 
ATOM     17  C   UNL     1       2.506   4.671   1.235  0.00  0.00    +0.086 C 
ATOM     18  C   UNL     1       3.863   5.378   1.223  0.00  0.00    -0.058 C 
ATOM     19  C   UNL     1       3.800   5.460  -1.195  0.00  0.00    -0.058 C 
ATOM     20  C   UNL     1       2.442   4.753  -1.183  0.00  0.00    +0.086 C 
ATOM     21  N   UNL     1       3.931   6.261   0.040  0.00  0.00    +0.391 N 
ATOM     22  H   UNL     1       3.158   6.936   0.083  0.00  0.00    -0.080 HD
BRANCH  16  28
ATOM     23  C   UNL     1      -2.561   3.863   0.047  0.00  0.00    +0.044 C 
ATOM     24  C   UNL     1      -1.243   3.133   0.031  0.00  0.00    -0.049 A 
ATOM     25  C   UNL     1      -1.220   1.750   0.017  0.00  0.00    +0.004 A 
ATOM     26  C   UNL     1      -0.013   1.076   0.008  0.00  0.00    +0.005 A 
ATOM     27  C   UNL     1       1.175   1.782   0.000  0.00  0.00    -0.029 A 
ATOM     28  C   UNL     1       1.155   3.171   0.008  0.00  0.00    +0.033 A 
ATOM     29  C   UNL     1      -0.060   3.845   0.023  0.00  0.00    +0.026 A 
ATOM     30  C   UNL     1       2.490   1.046  -0.017  0.00  0.00    +0.045 C 
ENDBRANCH  16  28
ENDBRANCH   1  21
BRANCH   1  31
ATOM     31  C   UNL     1       5.130   8.105  -0.988  0.00  0.00    +0.143 A 
ATOM     32  N   UNL     1       4.125   8.926  -1.171  0.00  0.00    -0.115 NA
ATOM     33  N   UNL     1       4.435   9.726  -2.131  0.00  0.00    -0.023 NA
ATOM     34  N   UNL     1       5.612   9.437  -2.566  0.00  0.00    -0.044 NA
ATOM     35  N   UNL     1       6.075   8.446  -1.883  0.00  0.00    -0.228 N 
BRANCH  35  36
ATOM     36  C   UNL     1       7.384   7.809  -2.051  0.00  0.00    +0.175 C 
BRANCH  36  37
ATOM     37  C   UNL     1       7.269   6.668  -3.064  0.00  0.00    +0.183 C 
BRANCH  37  38
ATOM     38  O   UNL     1       8.545   6.047  -3.228  0.00  0.00    -0.381 OA
ATOM     39  C   UNL     1       8.548   4.962  -4.158  0.00  0.00    +0.194 C 
ENDBRANCH  37  38
ENDBRANCH  36  37
ENDBRANCH  35  36
ENDBRANCH   1  31
TORSDOF 7
