REMARK  Name = ZINC09575871
REMARK  6 active torsions:
REMARK  status: ('A' for Active; 'I' for Inactive)
REMARK    1  A    between atoms: C_1  and  C_2
REMARK    2  A    between atoms: C_5  and  C_33
REMARK    3  A    between atoms: C_9  and  C_10
REMARK    4  A    between atoms: C_9  and  N_58
REMARK    5  A    between atoms: C_11  and  O_32
REMARK    6  A    between atoms: C_18  and  C_19
REMARK                            x       y       z     vdW  Elec       q    Type
REMARK                         _______ _______ _______ _____ _____    ______ ____
ROOT
ATOM      1  C   UNL     1       1.710   3.036   1.002  0.00  0.00    +0.020 A 
ATOM      2  C   UNL     1       3.068   3.265   1.155  0.00  0.00    +0.122 A 
ATOM      3  C   UNL     1       3.982   2.225   1.018  0.00  0.00    +0.046 A 
ATOM      4  C   UNL     1       3.547   0.962   0.730  0.00  0.00    +0.019 A 
ATOM      5  C   UNL     1       2.183   0.716   0.573  0.00  0.00    +0.068 A 
ATOM      6  C   UNL     1       1.251   1.758   0.709  0.00  0.00    +0.144 A 
ATOM      7  O   UNL     1       0.002   1.280   0.515  0.00  0.00    -0.451 OA
ATOM      8  C   UNL     1       0.007  -0.047   0.249  0.00  0.00    +0.176 C 
ATOM      9  C   UNL     1      -1.083  -0.821   0.008  0.00  0.00    +0.061 C 
ATOM     10  C   UNL     1       1.406  -0.499   0.268  0.00  0.00    +0.231 C 
ATOM     11  O   UNL     1       1.828  -1.626   0.075  0.00  0.00    -0.283 OA
ENDROOT
BRANCH   9  12
ATOM     12  C   UNL     1      -2.429  -0.252   0.135  0.00  0.00    +0.022 A 
ATOM     13  C   UNL     1      -2.609   1.137   0.145  0.00  0.00    +0.031 A 
ATOM     14  C   UNL     1      -3.877   1.662   0.266  0.00  0.00    +0.042 A 
ATOM     15  C   UNL     1      -4.975   0.823   0.379  0.00  0.00    +0.029 A 
ATOM     16  C   UNL     1      -4.812  -0.550   0.371  0.00  0.00    +0.022 A 
ATOM     17  C   UNL     1      -3.547  -1.097   0.242  0.00  0.00    +0.136 A 
ATOM     18  O   UNL     1      -3.374  -2.444   0.218  0.00  0.00    -0.465 OA
ATOM     19  C   UNL     1      -4.463  -3.243   0.690  0.00  0.00    +0.395 C 
ATOM     20  O   UNL     1      -5.672  -2.771   0.084  0.00  0.00    -0.339 OA
ATOM     21  C   UNL     1      -6.019  -1.444   0.503  0.00  0.00    +0.202 C 
ATOM     22 CL   UNL     1      -4.101   3.384   0.277  0.00  0.00    -0.084 Cl
ENDBRANCH   9  12
BRANCH   2  23
ATOM     23  O   UNL     1       3.511   4.516   1.442  0.00  0.00    -0.506 OA
ATOM     24  H   UNL     1       3.571   4.705   2.388  0.00  0.00    +0.292 HD
ENDBRANCH   2  23
BRANCH   1  25
ATOM     25  C   UNL     1       0.732   4.172   1.153  0.00  0.00    -0.036 C 
BRANCH  25  33
ATOM     26  C   UNL     1      -1.581   1.927   4.869  0.00  0.00    +0.005 C 
ATOM     27  C   UNL     1      -0.761   3.151   4.456  0.00  0.00    -0.031 C 
ATOM     28  C   UNL     1      -1.557   4.425   4.756  0.00  0.00    +0.003 C 
ATOM     29  C   UNL     1      -0.756   5.641   4.285  0.00  0.00    -0.031 C 
ATOM     30  C   UNL     1      -0.456   5.502   2.791  0.00  0.00    -0.075 C 
ATOM     31  C   UNL     1      -0.461   3.084   2.957  0.00  0.00    -0.075 C 
ATOM     32  C   UNL     1      -1.570   6.914   4.526  0.00  0.00    +0.005 C 
ATOM     33  N   UNL     1       0.333   4.270   2.572  0.00  0.00    +0.383 N 
ATOM     34  H   UNL     1       1.178   4.308   3.155  0.00  0.00    -0.081 HD
ENDBRANCH  25  33
ENDBRANCH   1  25
TORSDOF 4
