REMARK  Name = ZINC44019488
REMARK  3 active torsions:
REMARK  status: ('A' for Active; 'I' for Inactive)
REMARK    1  A    between atoms: C_1  and  C_2
REMARK    2  A    between atoms: N_7  and  C_8
REMARK    3  A    between atoms: N_12  and  C_17
REMARK                            x       y       z     vdW  Elec       q    Type
REMARK                         _______ _______ _______ _____ _____    ______ ____
ROOT
ATOM      1  C   UNL     1      -2.787  -3.074   0.070  0.00  0.00    +0.111 A 
ATOM      2  C   UNL     1      -3.656  -4.083  -0.238  0.00  0.00    +0.112 A 
ATOM      3  C   UNL     1      -5.037  -3.838  -0.169  0.00  0.00    +0.263 A 
ATOM      4  O   UNL     1      -5.831  -4.723  -0.439  0.00  0.00    -0.267 OA
ATOM      5  N   UNL     1      -5.479  -2.619   0.197  0.00  0.00    -0.229 N 
ATOM      6  C   UNL     1      -4.609  -1.637   0.496  0.00  0.00    +0.335 A 
ATOM      7  O   UNL     1      -5.029  -0.544   0.825  0.00  0.00    -0.246 OA
ATOM      8  N   UNL     1      -3.281  -1.848   0.444  0.00  0.00    -0.295 N 
ATOM      9  H   UNL     1      -2.670  -1.129   0.667  0.00  0.00    +0.172 HD
ENDROOT
BRANCH   1  16
ATOM     10  C   UNL     1      -0.044   0.199  -3.282  0.00  0.00    +0.089 C 
ATOM     11  C   UNL     1      -0.016  -0.905  -2.257  0.00  0.00    +0.136 A 
ATOM     12  C   UNL     1      -1.089  -1.477  -1.683  0.00  0.00    +0.091 A 
ATOM     13  C   UNL     1      -0.631  -2.466  -0.783  0.00  0.00    +0.167 A 
ATOM     14  N   UNL     1       0.677  -2.474  -0.828  0.00  0.00    -0.063 NA
ATOM     15  O   UNL     1       1.086  -1.492  -1.763  0.00  0.00    -0.358 OA
ATOM     16  N   UNL     1      -1.431  -3.286   0.011  0.00  0.00    -0.283 N 
ATOM     17  H   UNL     1      -1.030  -4.006   0.522  0.00  0.00    +0.155 HD
ENDBRANCH   1  16
BRANCH   5  18
ATOM     18  C   UNL     1      -6.857  -2.372   0.266  0.00  0.00    +0.055 A 
ATOM     19  C   UNL     1      -7.566  -2.703   1.412  0.00  0.00    +0.026 A 
ATOM     20  C   UNL     1      -8.924  -2.459   1.478  0.00  0.00    +0.003 A 
ATOM     21  C   UNL     1      -9.577  -1.884   0.403  0.00  0.00    +0.015 A 
ATOM     22  C   UNL     1      -8.873  -1.553  -0.741  0.00  0.00    +0.020 A 
ATOM     23  C   UNL     1      -7.513  -1.789  -0.809  0.00  0.00    +0.041 A 
ATOM     24 BR   UNL     1      -9.771  -0.767  -2.208  0.00  0.00    -0.050 Br
ENDBRANCH   5  18
TORSDOF 2
