REMARK  Name = ZINC61862780
REMARK  4 active torsions:
REMARK  status: ('A' for Active; 'I' for Inactive)
REMARK    1  A    between atoms: C_1  and  N_2
REMARK    2  A    between atoms: N_2  and  C_3
REMARK    3  A    between atoms: C_3  and  C_5
REMARK    4  A    between atoms: C_3  and  C_12
REMARK                            x       y       z     vdW  Elec       q    Type
REMARK                         _______ _______ _______ _____ _____    ______ ____
ROOT
ATOM      1  C   UNL     1      -1.356  -2.015   0.128  0.00  0.00    -0.040 A 
ATOM      2  C   UNL     1      -0.212  -2.715  -0.200  0.00  0.00    +0.031 A 
ATOM      3  C   UNL     1      -0.194  -4.097  -0.094  0.00  0.00    +0.067 A 
ATOM      4  C   UNL     1      -1.332  -4.776   0.345  0.00  0.00    +0.068 A 
ATOM      5  C   UNL     1      -2.477  -4.066   0.672  0.00  0.00    +0.043 A 
ATOM      6  C   UNL     1      -2.484  -2.688   0.568  0.00  0.00    +0.022 A 
ATOM      7 BR   UNL     1      -4.042  -1.717   1.022  0.00  0.00    -0.050 Br
ATOM      8  N   UNL     1      -1.016  -6.133   0.348  0.00  0.00    -0.306 N 
ATOM      9  H   UNL     1      -1.611  -6.854   0.607  0.00  0.00    +0.170 HD
ATOM     10  C   UNL     1       0.257  -6.272  -0.069  0.00  0.00    +0.325 A 
ATOM     11  O   UNL     1       0.845  -7.332  -0.181  0.00  0.00    -0.247 OA
ATOM     12  N   UNL     1       0.780  -5.062  -0.343  0.00  0.00    -0.306 N 
ATOM     13  H   UNL     1       1.680  -4.892  -0.660  0.00  0.00    +0.170 HD
ENDROOT
BRANCH   1  14
ATOM     14  C   UNL     1      -1.376  -0.512   0.012  0.00  0.00    +0.010 C 
BRANCH  14  15
ATOM     15  C   UNL     1      -2.067  -0.116  -1.267  0.00  0.00    +0.032 A 
ATOM     16  C   UNL     1      -3.138   0.758  -1.222  0.00  0.00    +0.023 A 
ATOM     17  C   UNL     1      -3.767   1.116  -2.404  0.00  0.00    +0.018 A 
ATOM     18  C   UNL     1      -3.294   0.580  -3.593  0.00  0.00    +0.036 A 
ATOM     19  C   UNL     1      -2.218  -0.289  -3.559  0.00  0.00    +0.126 A 
ATOM     20  N   UNL     1      -1.641  -0.603  -2.415  0.00  0.00    -0.260 NA
ATOM     21 BR   UNL     1      -4.110   1.029  -5.238  0.00  0.00    -0.049 Br
ENDBRANCH  14  15
BRANCH  14  23
ATOM     22  C   UNL     1      -0.018   1.465   0.010  0.00  0.00    -0.099 C 
ATOM     23  N   UNL     1       0.002  -0.004   0.002  0.00  0.00    +0.385 N 
ATOM     24  H   UNL     1       0.474  -0.330  -0.828  0.00  0.00    -0.085 HD
ATOM     25  H   UNL     1       0.490  -0.338   0.820  0.00  0.00    -0.085 HD
ENDBRANCH  14  23
ENDBRANCH   1  14
TORSDOF 3
