REMARK  Name = ZINC19300592
REMARK  5 active torsions:
REMARK  status: ('A' for Active; 'I' for Inactive)
REMARK    1  A    between atoms: C_1  and  N_2
REMARK    2  A    between atoms: C_5  and  N_8
REMARK    3  A    between atoms: C_14  and  C_16
REMARK    4  A    between atoms: C_22  and  O_26
REMARK    5  A    between atoms: O_26  and  C_27
REMARK                            x       y       z     vdW  Elec       q    Type
REMARK                         _______ _______ _______ _____ _____    ______ ____
ROOT
ATOM      1  N   UNL     1       2.023   2.909  -0.001  0.00  0.00    -0.244 N 
ATOM      2  C   UNL     1       1.238   1.786  -0.000  0.00  0.00    +0.157 A 
ATOM      3  C   UNL     1       2.103   0.694  -0.014  0.00  0.00    +0.128 A 
ATOM      4  C   UNL     1       3.411   1.193  -0.024  0.00  0.00    +0.164 A 
ATOM      5  N   UNL     1       3.362   2.499  -0.016  0.00  0.00    -0.175 NA
ATOM      6  N   UNL     1       1.303  -0.437  -0.013  0.00  0.00    -0.225 NA
ATOM      7  C   UNL     1       0.002  -0.004   0.002  0.00  0.00    +0.140 A 
ATOM      8  N   UNL     1      -0.016   1.313   0.009  0.00  0.00    -0.323 N 
ATOM      9  H   UNL     1      -0.866   2.010   0.021  0.00  0.00    +0.169 HD
ENDROOT
BRANCH   7  10
ATOM     10  C   UNL     1      -1.181  -0.869   0.009  0.00  0.00    +0.033 C 
ATOM     11  C   UNL     1      -1.038  -2.215  -0.004  0.00  0.00    +0.022 C 
ATOM     12  C   UNL     1      -2.260  -3.038  -0.011  0.00  0.00    +0.021 A 
ATOM     13  C   UNL     1      -2.227  -4.394   0.311  0.00  0.00    +0.012 A 
ATOM     14  C   UNL     1      -3.394  -5.129   0.289  0.00  0.00    +0.004 A 
ATOM     15  C   UNL     1      -4.594  -4.527  -0.051  0.00  0.00    +0.049 A 
ATOM     16  C   UNL     1      -4.640  -3.179  -0.374  0.00  0.00    +0.162 A 
ATOM     17  C   UNL     1      -3.474  -2.426  -0.356  0.00  0.00    +0.169 A 
ATOM     18  O   UNL     1      -3.483  -1.105  -0.667  0.00  0.00    -0.483 OA
ATOM     19  C   UNL     1      -2.560  -0.264   0.026  0.00  0.00    +0.268 C 
BRANCH  16  20
ATOM     20  O   UNL     1      -5.823  -2.596  -0.706  0.00  0.00    -0.491 OA
ATOM     21  C   UNL     1      -6.982  -3.433  -0.703  0.00  0.00    +0.277 C 
ENDBRANCH  16  20
ENDBRANCH   7  10
BRANCH   1  26
ATOM     22  C   UNL     1       1.838   8.560   0.034  0.00  0.00    -0.096 C 
ATOM     23  N   UNL     1       2.134   7.121   0.023  0.00  0.00    +0.378 N 
ATOM     24  C   UNL     1       1.623   6.469   1.235  0.00  0.00    -0.077 C 
ATOM     25  C   UNL     1       2.075   5.007   1.259  0.00  0.00    +0.008 C 
ATOM     26  C   UNL     1       1.545   4.294   0.011  0.00  0.00    +0.106 C 
ATOM     27  C   UNL     1       2.051   5.021  -1.238  0.00  0.00    +0.008 C 
ATOM     28  C   UNL     1       1.601   6.483  -1.188  0.00  0.00    -0.077 C 
ATOM     29  H   UNL     1       3.228   6.999   0.012  0.00  0.00    -0.082 HD
ENDBRANCH   1  26
TORSDOF 3
