REMARK  Name = ZINC64084013
REMARK  9 active torsions:
REMARK  status: ('A' for Active; 'I' for Inactive)
REMARK    1  A    between atoms: C_1  and  C_2
REMARK    2  A    between atoms: C_2  and  C_3
REMARK    3  A    between atoms: C_5  and  C_19
REMARK    4  A    between atoms: C_10  and  C_18
REMARK    5  A    between atoms: N_11  and  C_12
REMARK    6  A    between atoms: C_12  and  C_13
REMARK    7  A    between atoms: N_21  and  C_22
REMARK    8  A    between atoms: C_22  and  C_23
REMARK    9  A    between atoms: C_23  and  C_24
REMARK                            x       y       z     vdW  Elec       q    Type
REMARK                         _______ _______ _______ _____ _____    ______ ____
ROOT
ATOM      1  C   UNL     1       1.667  -2.419  -2.389  0.00  0.00    +0.225 C 
ATOM      2  O   UNL     1       2.147  -1.682  -3.224  0.00  0.00    -0.275 OA
ATOM      3  N   UNL     1       1.944  -3.738  -2.414  0.00  0.00    -0.315 N 
ATOM      4  H   UNL     1       1.560  -4.327  -1.746  0.00  0.00    +0.149 HD
ENDROOT
BRANCH   1   6
ATOM      5  C   UNL     1       0.718  -0.331  -1.435  0.00  0.00    +0.093 C 
ATOM      6  C   UNL     1       0.761  -1.860  -1.322  0.00  0.00    +0.165 C 
ATOM      7  C   UNL     1      -0.634  -2.404  -1.506  0.00  0.00    +0.171 C 
ATOM      8  O   UNL     1      -0.943  -3.458  -0.985  0.00  0.00    -0.292 OA
ATOM      9  C   UNL     1      -1.575  -1.705  -2.270  0.00  0.00    +0.065 C 
ATOM     10  C   UNL     1      -1.263  -0.517  -2.843  0.00  0.00    +0.007 C 
ATOM     11  N   UNL     1      -0.019   0.018  -2.660  0.00  0.00    -0.324 N 
ATOM     12  C   UNL     1      -2.284   0.210  -3.679  0.00  0.00    +0.060 C 
BRANCH   5  14
ATOM     13  C   UNL     1       0.058   1.785  -0.281  0.00  0.00    +0.006 C 
ATOM     14  C   UNL     1       0.002   0.257  -0.217  0.00  0.00    +0.020 C 
ENDBRANCH   5  14
BRANCH  11  15
ATOM     15  C   UNL     1       0.568   0.916  -3.658  0.00  0.00    +0.147 C 
BRANCH  15  16
ATOM     16  C   UNL     1       0.298   2.346  -3.267  0.00  0.00    +0.007 A 
ATOM     17  C   UNL     1       1.096   3.212  -2.595  0.00  0.00    +0.013 A 
ATOM     18  C   UNL     1       0.636   4.492  -2.346  0.00  0.00    +0.008 A 
ATOM     19  C   UNL     1      -0.599   4.842  -2.781  0.00  0.00    +0.045 A 
ATOM     20  S   UNL     1      -1.151   3.342  -3.576  0.00  0.00    -0.100 S 
ENDBRANCH  15  16
ENDBRANCH  11  15
ENDBRANCH   1   6
BRANCH   3  21
ATOM     21  C   UNL     1       2.825  -4.281  -3.451  0.00  0.00    +0.108 C 
BRANCH  21  22
ATOM     22  C   UNL     1       2.973  -5.791  -3.254  0.00  0.00    +0.065 C 
BRANCH  22  23
ATOM     23  C   UNL     1       3.893  -6.359  -4.336  0.00  0.00    +0.175 C 
ATOM     24  N   UNL     1       3.292  -6.164  -5.662  0.00  0.00    -0.363 N 
ATOM     25  C   UNL     1       3.116  -7.342  -6.188  0.00  0.00    +0.060 A 
ATOM     26  C   UNL     1       2.564  -7.789  -7.474  0.00  0.00    +0.027 A 
ATOM     27  C   UNL     1       2.507  -9.107  -7.751  0.00  0.00    +0.002 A 
ATOM     28  C   UNL     1       2.957 -10.091  -6.852  0.00  0.00    +0.002 A 
ATOM     29  C   UNL     1       3.479  -9.790  -5.647  0.00  0.00    +0.027 A 
ATOM     30  C   UNL     1       3.593  -8.383  -5.237  0.00  0.00    +0.060 A 
ATOM     31  N   UNL     1       4.045  -7.809  -4.160  0.00  0.00    -0.363 N 
ATOM     32  H   UNL     1       3.067  -5.314  -6.070  0.00  0.00    +0.162 HD
ATOM     33  H   UNL     1       4.414  -8.257  -3.382  0.00  0.00    +0.162 HD
ENDBRANCH  22  23
ENDBRANCH  21  22
ENDBRANCH   3  21
TORSDOF 7
