REMARK  Name = ZINC02317153
REMARK  7 active torsions:
REMARK  status: ('A' for Active; 'I' for Inactive)
REMARK    1  A    between atoms: C_1  and  N_2
REMARK    2  A    between atoms: C_4  and  C_11
REMARK    3  A    between atoms: C_11  and  C_13
REMARK    4  A    between atoms: C_11  and  N_47
REMARK    5  A    between atoms: C_13  and  N_14
REMARK    6  A    between atoms: C_29  and  N_47
REMARK    7  A    between atoms: C_30  and  N_47
REMARK                            x       y       z     vdW  Elec       q    Type
REMARK                         _______ _______ _______ _____ _____    ______ ____
ROOT
ATOM      1  C   UNL     1      -1.830   3.178   0.154  0.00  0.00    +0.106 C 
ENDROOT
BRANCH   1   2
ATOM      2  N   UNL     1      -3.055   2.422   0.424  0.00  0.00    -0.235 N 
ATOM      3  C   UNL     1      -3.251   1.139   0.070  0.00  0.00    +0.255 C 
ATOM      4  O   UNL     1      -2.453   0.435  -0.516  0.00  0.00    -0.269 OA
ATOM      5  C   UNL     1      -4.597   0.728   0.516  0.00  0.00    +0.071 A 
ATOM      6  C   UNL     1      -5.160   1.862   1.139  0.00  0.00    +0.071 A 
ATOM      7  C   UNL     1      -6.441   1.796   1.665  0.00  0.00    +0.074 A 
ATOM      8  C   UNL     1      -7.162   0.611   1.575  0.00  0.00    +0.080 A 
ATOM      9  C   UNL     1      -6.611  -0.500   0.965  0.00  0.00    +0.080 A 
ATOM     10  C   UNL     1      -5.328  -0.448   0.434  0.00  0.00    +0.074 A 
ATOM     11 CL   UNL     1      -4.642  -1.848  -0.329  0.00  0.00    -0.081 Cl
ATOM     12 CL   UNL     1      -7.527  -1.971   0.863  0.00  0.00    -0.080 Cl
ATOM     13 CL   UNL     1      -8.767   0.527   2.233  0.00  0.00    -0.080 Cl
ATOM     14 CL   UNL     1      -7.141   3.187   2.433  0.00  0.00    -0.081 Cl
ATOM     15  C   UNL     1      -4.134   2.920   1.054  0.00  0.00    +0.255 C 
ATOM     16  O   UNL     1      -4.245   4.052   1.483  0.00  0.00    -0.269 OA
ENDBRANCH   1   2
BRANCH   1  17
ATOM     17  C   UNL     1      -0.861   3.016   1.326  0.00  0.00    -0.018 C 
BRANCH  17  21
ATOM     18  C   UNL     1       3.640   3.951  -0.707  0.00  0.00    +0.149 C 
ATOM     19  N   UNL     1       2.434   4.120   0.107  0.00  0.00    -0.349 N 
ATOM     20  C   UNL     1       1.388   3.238   0.154  0.00  0.00    +0.088 A 
ATOM     21  C   UNL     1       0.445   3.691   0.996  0.00  0.00    -0.034 A 
ATOM     22  C   UNL     1       0.924   4.970   1.527  0.00  0.00    +0.002 A 
ATOM     23  C   UNL     1       2.183   5.188   0.938  0.00  0.00    +0.049 A 
ATOM     24  C   UNL     1       2.894   6.340   1.259  0.00  0.00    +0.026 A 
ATOM     25  C   UNL     1       2.363   7.247   2.150  0.00  0.00    +0.002 A 
ATOM     26  C   UNL     1       1.123   7.024   2.732  0.00  0.00    +0.001 A 
ATOM     27  C   UNL     1       0.407   5.899   2.431  0.00  0.00    +0.010 A 
ENDBRANCH  17  21
BRANCH  17  30
ATOM     28  C   UNL     1       0.708   1.365   2.150  0.00  0.00    -0.096 C 
ATOM     29  C   UNL     1      -1.672   1.020   2.432  0.00  0.00    -0.096 C 
ATOM     30  N   UNL     1      -0.625   1.573   1.547  0.00  0.00    +0.382 N 
ATOM     31  H   UNL     1      -0.662   1.087   0.643  0.00  0.00    -0.082 HD
ENDBRANCH  17  30
ENDBRANCH   1  17
TORSDOF 4
