REMARK  Name = ZINC39918977
REMARK  8 active torsions:
REMARK  status: ('A' for Active; 'I' for Inactive)
REMARK    1  A    between atoms: C_1  and  C_2
REMARK    2  A    between atoms: C_2  and  N_3
REMARK    3  A    between atoms: C_4  and  C_34
REMARK    4  A    between atoms: N_17  and  C_20
REMARK    5  A    between atoms: C_20  and  C_21
REMARK    6  A    between atoms: C_25  and  C_27
REMARK    7  A    between atoms: C_28  and  C_32
REMARK    8  A    between atoms: C_29  and  N_31
REMARK                            x       y       z     vdW  Elec       q    Type
REMARK                         _______ _______ _______ _____ _____    ______ ____
ROOT
ATOM      1  N   UNL     1      -1.456  -0.326   0.040  0.00  0.00    -0.312 N 
ATOM      2  C   UNL     1      -1.955  -0.841   1.195  0.00  0.00    +0.022 A 
ATOM      3  C   UNL     1      -3.137  -1.493   1.211  0.00  0.00    +0.068 A 
ATOM      4  C   UNL     1      -3.869  -1.645   0.015  0.00  0.00    +0.142 A 
ATOM      5  C   UNL     1      -3.356  -1.120  -1.153  0.00  0.00    +0.084 A 
ATOM      6  C   UNL     1      -2.127  -0.448  -1.120  0.00  0.00    +0.260 A 
ATOM      7  O   UNL     1      -1.662   0.023  -2.146  0.00  0.00    -0.267 OA
ATOM      8  C   UNL     1      -4.107  -1.258  -2.446  0.00  0.00    +0.147 C 
ATOM      9  C   UNL     1      -4.689   0.056  -2.866  0.00  0.00    -0.001 A 
ATOM     10  C   UNL     1      -5.614   0.879  -2.261  0.00  0.00    +0.007 A 
ATOM     11  C   UNL     1      -5.944   2.054  -2.928  0.00  0.00    +0.000 A 
ATOM     12  C   UNL     1      -5.370   2.378  -4.140  0.00  0.00    +0.002 A 
ATOM     13  C   UNL     1      -4.438   1.556  -4.754  0.00  0.00    +0.024 A 
ATOM     14  C   UNL     1      -4.098   0.373  -4.095  0.00  0.00    +0.041 A 
ATOM     15  N   UNL     1      -3.211  -0.619  -4.472  0.00  0.00    -0.265 N 
ATOM     16  C   UNL     1      -3.150  -1.616  -3.565  0.00  0.00    +0.241 C 
ATOM     17  O   UNL     1      -2.460  -2.611  -3.632  0.00  0.00    -0.274 OA
ATOM     18  C   UNL     1      -5.175  -2.307  -2.330  0.00  0.00    +0.110 C 
ATOM     19  C   UNL     1      -5.581  -2.758  -1.118  0.00  0.00    +0.199 C 
ATOM     20  O   UNL     1      -5.053  -2.293   0.027  0.00  0.00    -0.441 OA
ATOM     21  C   UNL     1      -1.177  -0.681   2.476  0.00  0.00    +0.064 C 
ENDROOT
BRANCH  19  22
ATOM     22  N   UNL     1      -6.560  -3.718  -1.059  0.00  0.00    -0.328 N 
ATOM     23  H   UNL     1      -6.951  -4.064  -1.876  0.00  0.00    +0.145 HD
ATOM     24  H   UNL     1      -6.861  -4.051  -0.199  0.00  0.00    +0.145 HD
ENDBRANCH  19  22
BRANCH   1  26
ATOM     25  C   UNL     1       0.958  -0.615  -0.227  0.00  0.00    +0.027 C 
ATOM     26  C   UNL     1      -0.171   0.377   0.060  0.00  0.00    +0.122 C 
ENDBRANCH   1  26
BRANCH  18  27
ATOM     27  C   UNL     1      -5.775  -2.837  -3.517  0.00  0.00    +0.102 C 
ATOM     28  N   UNL     1      -6.250  -3.259  -4.459  0.00  0.00    -0.191 NA
ENDBRANCH  18  27
BRANCH  15  29
ATOM     29  C   UNL     1      -2.429  -0.591  -5.711  0.00  0.00    +0.148 C 
BRANCH  29  30
ATOM     30  C   UNL     1      -1.113   0.099  -5.458  0.00  0.00    -0.029 A 
ATOM     31  C   UNL     1      -1.006   1.467  -5.626  0.00  0.00    +0.005 A 
ATOM     32  C   UNL     1       0.201   2.099  -5.394  0.00  0.00    +0.001 A 
ATOM     33  C   UNL     1       1.302   1.364  -4.994  0.00  0.00    +0.003 A 
ATOM     34  C   UNL     1       1.194  -0.004  -4.826  0.00  0.00    -0.050 A 
ATOM     35  C   UNL     1      -0.014  -0.636  -5.054  0.00  0.00    +0.008 A 
ATOM     36  C   UNL     1       2.394  -0.806  -4.391  0.00  0.00    +0.044 C 
ENDBRANCH  29  30
ENDBRANCH  15  29
TORSDOF 5
