REMARK  Name = ZINC64181720
REMARK  11 active torsions:
REMARK  status: ('A' for Active; 'I' for Inactive)
REMARK    1  A    between atoms: C_1  and  C_2
REMARK    2  A    between atoms: C_2  and  C_3
REMARK    3  A    between atoms: C_3  and  C_4
REMARK    4  A    between atoms: C_8  and  S_10
REMARK    5  A    between atoms: S_10  and  C_11
REMARK    6  A    between atoms: C_11  and  C_12
REMARK    7  A    between atoms: C_17  and  C_34
REMARK    8  A    between atoms: C_18  and  C_23
REMARK    9  A    between atoms: N_25  and  C_26
REMARK   10  A    between atoms: C_29  and  C_33
REMARK   11  A    between atoms: C_31  and  C_32
REMARK                            x       y       z     vdW  Elec       q    Type
REMARK                         _______ _______ _______ _____ _____    ______ ____
ROOT
ATOM      1  C   UNL     1      -1.364  -5.812   4.505  0.00  0.00    +0.134 C 
ATOM      2  N   UNL     1      -1.334  -7.055   4.088  0.00  0.00    -0.160 NA
ATOM      3  C   UNL     1      -1.309  -8.098   4.924  0.00  0.00    +0.271 C 
ATOM      4  O   UNL     1      -1.281  -9.242   4.502  0.00  0.00    -0.268 OA
ATOM      5  C   UNL     1      -1.316  -7.817   6.395  0.00  0.00    +0.071 C 
ATOM      6  C   UNL     1      -1.294  -8.695   7.409  0.00  0.00    -0.036 C 
ATOM      7  C   UNL     1      -1.307  -8.143   8.817  0.00  0.00    +0.165 C 
ATOM      8  S   UNL     1      -1.351  -6.331   8.507  0.00  0.00    -0.088 S 
ATOM      9  C   UNL     1      -1.351  -6.378   6.733  0.00  0.00    +0.112 C 
ATOM     10  N   UNL     1      -1.367  -5.471   5.785  0.00  0.00    -0.227 NA
ATOM     11  C   UNL     1      -1.259 -10.180   7.155  0.00  0.00    +0.041 C 
ENDROOT
BRANCH   7  12
ATOM     12  C   UNL     1      -2.537  -8.594   9.562  0.00  0.00    +0.235 C 
ATOM     13  O   UNL     1      -3.567  -8.810   8.959  0.00  0.00    -0.274 OA
ATOM     14  N   UNL     1      -2.493  -8.757  10.899  0.00  0.00    -0.284 N 
ATOM     15  H   UNL     1      -1.651  -8.662  11.372  0.00  0.00    +0.155 HD
BRANCH  14  16
ATOM     16  C   UNL     1      -3.661  -9.063  11.606  0.00  0.00    +0.036 A 
ATOM     17  C   UNL     1      -4.900  -8.707  11.089  0.00  0.00    +0.024 A 
ATOM     18  C   UNL     1      -6.051  -9.011  11.788  0.00  0.00    +0.005 A 
ATOM     19  C   UNL     1      -5.972  -9.667  13.003  0.00  0.00    -0.050 A 
ATOM     20  C   UNL     1      -4.740 -10.021  13.521  0.00  0.00    +0.008 A 
ATOM     21  C   UNL     1      -3.585  -9.727  12.823  0.00  0.00    -0.029 A 
ATOM     22  C   UNL     1      -2.243 -10.120  13.384  0.00  0.00    +0.045 C 
ATOM     23  C   UNL     1      -7.230  -9.996  13.764  0.00  0.00    +0.044 C 
ENDBRANCH  14  16
ENDBRANCH   7  12
BRANCH   1  24
ATOM     24  C   UNL     1      -1.390  -4.713   3.474  0.00  0.00    +0.151 C 
BRANCH  24  25
ATOM     25  S   UNL     1      -1.380  -5.443   1.813  0.00  0.00    -0.079 S 
BRANCH  25  30
ATOM     26  C   UNL     1      -1.459  -2.004   0.023  0.00  0.00    +0.152 A 
ATOM     27  N   UNL     1      -1.447  -2.752  -1.047  0.00  0.00    -0.157 NA
ATOM     28  H   UNL     1      -1.402  -4.880  -1.174  0.00  0.00    +0.191 HD
ATOM     29  N   UNL     1      -1.417  -4.088  -0.615  0.00  0.00    -0.254 N 
ATOM     30  C   UNL     1      -1.413  -4.049   0.736  0.00  0.00    +0.185 A 
ATOM     31  N   UNL     1      -1.433  -2.785   1.103  0.00  0.00    -0.206 NA
BRANCH  26  32
ATOM     32  C   UNL     1      -1.491  -0.497   0.035  0.00  0.00    +0.078 C 
BRANCH  32  34
ATOM     33  C   UNL     1      -0.092   1.573   0.039  0.00  0.00    +0.004 C 
ATOM     34  C   UNL     1      -0.059   0.043   0.026  0.00  0.00    +0.004 C 
ENDBRANCH  32  34
ENDBRANCH  26  32
ENDBRANCH  25  30
ENDBRANCH  24  25
ENDBRANCH   1  24
TORSDOF 7
