REMARK  Name = ZINC08754912
REMARK  13 active torsions:
REMARK  status: ('A' for Active; 'I' for Inactive)
REMARK    1  A    between atoms: C_1  and  C_2
REMARK    2  A    between atoms: C_2  and  N_3
REMARK    3  A    between atoms: C_6  and  C_19
REMARK    4  A    between atoms: C_7  and  N_18
REMARK    5  A    between atoms: N_8  and  C_11
REMARK    6  A    between atoms: C_11  and  C_12
REMARK    7  A    between atoms: C_19  and  C_21
REMARK    8  A    between atoms: C_21  and  N_68
REMARK    9  A    between atoms: C_25  and  C_27
REMARK   10  A    between atoms: C_29  and  O_35
REMARK   11  A    between atoms: C_32  and  O_33
REMARK   12  A    between atoms: O_33  and  C_34
REMARK   13  A    between atoms: O_35  and  C_36
REMARK                            x       y       z     vdW  Elec       q    Type
REMARK                         _______ _______ _______ _____ _____    ______ ____
ROOT
ATOM      1  N   UNL     1      -1.301  -1.747   8.314  0.00  0.00    -0.260 N 
ATOM      2  C   UNL     1      -2.083  -0.863   7.661  0.00  0.00    +0.269 A 
ATOM      3  O   UNL     1      -3.131  -1.216   7.153  0.00  0.00    -0.267 OA
ATOM      4  C   UNL     1      -1.640   0.535   7.570  0.00  0.00    +0.118 A 
ATOM      5  C   UNL     1      -0.422   0.879   8.182  0.00  0.00    +0.116 A 
ATOM      6  N   UNL     1       0.292  -0.092   8.825  0.00  0.00    -0.277 N 
ATOM      7  C   UNL     1      -0.146  -1.359   8.880  0.00  0.00    +0.334 A 
ATOM      8  O   UNL     1       0.526  -2.186   9.463  0.00  0.00    -0.246 OA
ENDROOT
BRANCH   5   9
ATOM      9  N   UNL     1       0.037   2.159   8.136  0.00  0.00    -0.344 N 
ATOM     10  H   UNL     1      -0.586   2.895   8.032  0.00  0.00    +0.144 HD
ATOM     11  H   UNL     1       0.988   2.336   8.207  0.00  0.00    +0.144 HD
ENDBRANCH   5   9
BRANCH   1  13
ATOM     12  C   UNL     1      -2.566  -3.338   9.674  0.00  0.00    +0.027 C 
ATOM     13  C   UNL     1      -1.720  -3.147   8.413  0.00  0.00    +0.126 C 
ENDBRANCH   1  13
BRANCH   4  14
ATOM     14  C   UNL     1      -2.414   1.502   6.894  0.00  0.00    +0.155 C 
ATOM     15  O   UNL     1      -1.983   2.627   6.741  0.00  0.00    -0.294 OA
BRANCH  14  16
ATOM     16  C   UNL     1      -3.777   1.139   6.362  0.00  0.00    +0.003 C 
BRANCH  16  21
ATOM     17  C   UNL     1      -4.843   3.303   6.707  0.00  0.00    -0.077 C 
ATOM     18  C   UNL     1      -5.886   4.156   5.953  0.00  0.00    -0.020 C 
ATOM     19  C   UNL     1      -6.387   3.255   4.806  0.00  0.00    -0.012 C 
ATOM     20  C   UNL     1      -5.605   1.933   4.964  0.00  0.00    -0.033 C 
ATOM     21  N   UNL     1      -4.405   2.331   5.708  0.00  0.00    +0.389 N 
ATOM     22  H   UNL     1      -3.724   2.764   5.072  0.00  0.00    -0.080 HD
BRANCH  20  23
ATOM     23  C   UNL     1      -5.251   1.367   3.612  0.00  0.00    -0.016 A 
ATOM     24  C   UNL     1      -4.002   1.602   3.071  0.00  0.00    +0.051 A 
ATOM     25  C   UNL     1      -3.677   1.082   1.827  0.00  0.00    +0.121 A 
ATOM     26  C   UNL     1      -4.607   0.331   1.124  0.00  0.00    +0.049 A 
ATOM     27  C   UNL     1      -5.854   0.091   1.668  0.00  0.00    +0.049 A 
ATOM     28  C   UNL     1      -6.180   0.612   2.912  0.00  0.00    +0.122 A 
BRANCH  28  29
ATOM     29  O   UNL     1      -7.409   0.381   3.445  0.00  0.00    -0.495 OA
ATOM     30  C   UNL     1      -8.316  -0.405   2.669  0.00  0.00    +0.277 C 
ENDBRANCH  28  29
BRANCH  25  31
ATOM     31  O   UNL     1      -2.447   1.313   1.294  0.00  0.00    -0.495 OA
ATOM     32  C   UNL     1      -2.180   0.747   0.009  0.00  0.00    +0.277 C 
ENDBRANCH  25  31
ENDBRANCH  20  23
ENDBRANCH  16  21
ENDBRANCH  14  16
ENDBRANCH   4  14
BRANCH   6  33
ATOM     33  C   UNL     1       1.562   0.257   9.466  0.00  0.00    +0.163 C 
BRANCH  33  34
ATOM     34  C   UNL     1       1.308   0.668  10.893  0.00  0.00    -0.028 A 
ATOM     35  C   UNL     1       1.062   1.994  11.197  0.00  0.00    +0.005 A 
ATOM     36  C   UNL     1       0.825   2.371  12.506  0.00  0.00    +0.000 A 
ATOM     37  C   UNL     1       0.842   1.423  13.512  0.00  0.00    +0.000 A 
ATOM     38  C   UNL     1       1.093   0.098  13.208  0.00  0.00    +0.000 A 
ATOM     39  C   UNL     1       1.326  -0.280  11.899  0.00  0.00    +0.005 A 
ENDBRANCH  33  34
ENDBRANCH   6  33
TORSDOF 10
