REMARK  Name = ZINC40262818
REMARK  3 active torsions:
REMARK  status: ('A' for Active; 'I' for Inactive)
REMARK    1  A    between atoms: C_2  and  C_9
REMARK    2  A    between atoms: C_9  and  C_11
REMARK    3  A    between atoms: C_9  and  O_22
REMARK                            x       y       z     vdW  Elec       q    Type
REMARK                         _______ _______ _______ _____ _____    ______ ____
ROOT
ATOM      1  C   UNL     1       1.403   4.093   1.409  0.00  0.00    +0.004 A 
ATOM      2  C   UNL     1       2.684   4.444   1.800  0.00  0.00    +0.014 A 
ATOM      3  C   UNL     1       2.911   4.899   3.079  0.00  0.00    -0.017 A 
ATOM      4  C   UNL     1       1.868   5.012   3.990  0.00  0.00    +0.038 A 
ATOM      5  C   UNL     1       0.581   4.657   3.591  0.00  0.00    +0.044 A 
ATOM      6  C   UNL     1       0.355   4.207   2.305  0.00  0.00    +0.049 A 
ATOM      7 CL   UNL     1      -1.253   3.774   1.813  0.00  0.00    -0.083 Cl
ATOM      8  N   UNL     1       2.344   5.492   5.211  0.00  0.00    -0.285 N 
ATOM      9  C   UNL     1       3.668   5.717   5.188  0.00  0.00    +0.222 C 
ATOM     10  O   UNL     1       4.345   6.133   6.105  0.00  0.00    -0.275 OA
ATOM     11  C   UNL     1       4.158   5.352   3.803  0.00  0.00    +0.133 C 
ATOM     12  H   UNL     1       1.783   5.647   5.987  0.00  0.00    +0.155 HD
ENDROOT
BRANCH   1  13
ATOM     13  C   UNL     1       1.150   3.594   0.010  0.00  0.00    +0.176 C 
BRANCH  13  15
ATOM     14  C   UNL     1      -0.017   1.380   0.010  0.00  0.00    +0.045 A 
ATOM     15  C   UNL     1       1.171   2.087   0.002  0.00  0.00    -0.011 A 
ATOM     16  C   UNL     1       2.377   1.413  -0.013  0.00  0.00    +0.022 A 
ATOM     17  C   UNL     1       2.398   0.030  -0.021  0.00  0.00    +0.021 A 
ATOM     18  C   UNL     1       1.211  -0.679  -0.014  0.00  0.00    +0.053 A 
ATOM     19  C   UNL     1       0.002  -0.004   0.002  0.00  0.00    +0.125 A 
ATOM     20  F   UNL     1      -1.158  -0.696   0.009  0.00  0.00    -0.205 F 
ATOM     21 BR   UNL     1       4.049  -0.891  -0.043  0.00  0.00    -0.050 Br
ENDBRANCH  13  15
BRANCH  13  22
ATOM     22  O   UNL     1       2.167   4.089  -0.863  0.00  0.00    -0.382 OA
ATOM     23  H   UNL     1       3.062   3.815  -0.620  0.00  0.00    +0.211 HD
ENDBRANCH  13  22
ENDBRANCH   1  13
TORSDOF 3
