REMARK  Name = ZINC65190104
REMARK  9 active torsions:
REMARK  status: ('A' for Active; 'I' for Inactive)
REMARK    1  A    between atoms: C_1  and  C_2
REMARK    2  A    between atoms: C_2  and  N_3
REMARK    3  A    between atoms: N_6  and  N_7
REMARK    4  A    between atoms: C_8  and  C_10
REMARK    5  A    between atoms: C_10  and  C_25
REMARK    6  A    between atoms: C_11  and  C_12
REMARK    7  A    between atoms: C_14  and  C_24
REMARK    8  A    between atoms: N_15  and  C_18
REMARK    9  A    between atoms: C_16  and  C_17
REMARK                            x       y       z     vdW  Elec       q    Type
REMARK                         _______ _______ _______ _____ _____    ______ ____
ROOT
ATOM      1  C   UNL     1       2.836  -0.612  -6.229  0.00  0.00    +0.115 C 
ATOM      2  C   UNL     1       4.048  -1.264  -6.349  0.00  0.00    +0.033 C 
ENDROOT
BRANCH   2   3
ATOM      3  C   UNL     1       4.082  -2.635  -6.708  0.00  0.00    -0.003 A 
ATOM      4  C   UNL     1       3.218  -3.708  -6.194  0.00  0.00    +0.030 A 
ATOM      5  C   UNL     1       3.607  -4.836  -6.811  0.00  0.00    +0.017 A 
ATOM      6  N   UNL     1       4.636  -4.551  -7.662  0.00  0.00    -0.345 N 
ATOM      7  C   UNL     1       4.932  -3.239  -7.620  0.00  0.00    +0.023 A 
ATOM      8  C   UNL     1       6.004  -2.547  -8.422  0.00  0.00    +0.064 C 
ATOM      9  C   UNL     1       3.003  -6.200  -6.598  0.00  0.00    +0.063 C 
BRANCH   6  10
ATOM     10  C   UNL     1       5.319  -5.535  -8.507  0.00  0.00    +0.087 C 
ATOM     11  C   UNL     1       4.285  -6.301  -9.334  0.00  0.00    +0.025 C 
ATOM     12  C   UNL     1       4.997  -7.328 -10.216  0.00  0.00    +0.002 C 
ATOM     13  C   UNL     1       5.773  -8.308  -9.333  0.00  0.00    +0.000 C 
ATOM     14  C   UNL     1       6.807  -7.542  -8.506  0.00  0.00    +0.002 C 
ATOM     15  C   UNL     1       6.094  -6.514  -7.624  0.00  0.00    +0.025 C 
ENDBRANCH   6  10
ENDBRANCH   2   3
BRANCH   1  17
ATOM     16  N   UNL     1       0.405  -0.696  -6.425  0.00  0.00    -0.229 N 
ATOM     17  C   UNL     1       1.599  -1.272  -6.667  0.00  0.00    +0.270 C 
ATOM     18  O   UNL     1       1.653  -2.340  -7.249  0.00  0.00    -0.268 OA
ATOM     19  H   UNL     1       0.362   0.154  -5.962  0.00  0.00    +0.173 HD
BRANCH  16  23
ATOM     20  N   UNL     1      -2.028   0.432  -5.957  0.00  0.00    -0.298 N 
ATOM     21  C   UNL     1      -1.968  -0.750  -6.601  0.00  0.00    +0.316 C 
ATOM     22  O   UNL     1      -2.992  -1.297  -6.964  0.00  0.00    -0.251 OA
ATOM     23  N   UNL     1      -0.774  -1.327  -6.843  0.00  0.00    -0.218 N 
ATOM     24  H   UNL     1      -1.211   0.868  -5.668  0.00  0.00    +0.150 HD
ATOM     25  H   UNL     1      -0.731  -2.177  -7.307  0.00  0.00    +0.174 HD
BRANCH  20  27
ATOM     26  C   UNL     1      -3.114   2.381  -4.956  0.00  0.00    +0.024 C 
ATOM     27  C   UNL     1      -3.326   1.058  -5.694  0.00  0.00    +0.102 C 
ENDBRANCH  20  27
ENDBRANCH  16  23
ENDBRANCH   1  17
BRANCH   1  28
ATOM     28  C   UNL     1       2.786   0.709  -5.677  0.00  0.00    +0.104 C 
ATOM     29  N   UNL     1       2.745   1.756  -5.239  0.00  0.00    -0.191 NA
ENDBRANCH   1  28
TORSDOF 6
