REMARK  Name = ZINC40840495
REMARK  9 active torsions:
REMARK  status: ('A' for Active; 'I' for Inactive)
REMARK    1  A    between atoms: C_1  and  O_2
REMARK    2  A    between atoms: O_2  and  C_3
REMARK    3  A    between atoms: C_5  and  C_11
REMARK    4  A    between atoms: C_8  and  O_9
REMARK    5  A    between atoms: N_12  and  N_13
REMARK    6  A    between atoms: C_14  and  C_16
REMARK    7  A    between atoms: C_16  and  O_17
REMARK    8  A    between atoms: O_17  and  C_18
REMARK    9  A    between atoms: C_21  and  N_24
REMARK                            x       y       z     vdW  Elec       q    Type
REMARK                         _______ _______ _______ _____ _____    ______ ____
ROOT
ATOM      1  N   UNL     1       3.543   0.540  -6.244  0.00  0.00    -0.204 N 
ATOM      2  C   UNL     1       4.141  -0.062  -7.291  0.00  0.00    +0.270 C 
ATOM      3  O   UNL     1       4.182  -1.273  -7.351  0.00  0.00    -0.270 OA
ATOM      4  H   UNL     1       3.510   1.509  -6.196  0.00  0.00    +0.177 HD
ENDROOT
BRANCH   1   6
ATOM      5  C   UNL     1       2.394   0.348  -4.217  0.00  0.00    +0.138 C 
ATOM      6  N   UNL     1       2.970  -0.232  -5.225  0.00  0.00    -0.188 NA
BRANCH   5   9
ATOM      7  C   UNL     1       0.606  -0.608  -1.056  0.00  0.00    +0.163 A 
ATOM      8  C   UNL     1       1.171   0.159  -2.059  0.00  0.00    +0.059 A 
ATOM      9  C   UNL     1       1.791  -0.464  -3.145  0.00  0.00    -0.001 A 
ATOM     10  C   UNL     1       1.837  -1.859  -3.213  0.00  0.00    +0.028 A 
ATOM     11  C   UNL     1       1.272  -2.617  -2.209  0.00  0.00    +0.063 A 
ATOM     12  C   UNL     1       0.661  -1.998  -1.127  0.00  0.00    +0.173 A 
ATOM     13 BR   UNL     1       1.335  -4.505  -2.303  0.00  0.00    -0.046 Br
BRANCH   7  15
ATOM     14  C   UNL     1      -0.017   1.425   0.010  0.00  0.00    +0.277 C 
ATOM     15  O   UNL     1       0.002  -0.004   0.002  0.00  0.00    -0.491 OA
ENDBRANCH   7  15
BRANCH  12  16
ATOM     16  O   UNL     1       0.110  -2.749  -0.138  0.00  0.00    -0.503 OA
ATOM     17  H   UNL     1      -0.819  -2.975  -0.286  0.00  0.00    +0.292 HD
ENDBRANCH  12  16
ENDBRANCH   5   9
ENDBRANCH   1   6
BRANCH   2  18
ATOM     18  C   UNL     1       4.758   0.768  -8.387  0.00  0.00    +0.326 C 
BRANCH  18  19
ATOM     19  O   UNL     1       5.324  -0.093  -9.376  0.00  0.00    -0.483 OA
BRANCH  19  20
ATOM     20  C   UNL     1       5.925   0.501 -10.441  0.00  0.00    +0.121 A 
ATOM     21  C   UNL     1       5.973   1.885 -10.529  0.00  0.00    +0.048 A 
ATOM     22  C   UNL     1       6.584   2.486 -11.612  0.00  0.00    +0.036 A 
ATOM     23  C   UNL     1       7.148   1.710 -12.608  0.00  0.00    +0.126 A 
ATOM     24  C   UNL     1       7.101   0.331 -12.523  0.00  0.00    +0.036 A 
ATOM     25  C   UNL     1       6.495  -0.276 -11.439  0.00  0.00    +0.048 A 
BRANCH  23  26
ATOM     26  N   UNL     1       7.802   2.357 -13.767  0.00  0.00    +0.056 N 
ATOM     27  O   UNL     1       7.844   3.563 -13.842  0.00  0.00    -0.126 OA
ATOM     28  O   UNL     1       8.296   1.679 -14.638  0.00  0.00    -0.126 OA
ENDBRANCH  23  26
ENDBRANCH  19  20
ENDBRANCH  18  19
ENDBRANCH   2  18
TORSDOF 8
