REMARK  Name = ZINC64978982
REMARK  10 active torsions:
REMARK  status: ('A' for Active; 'I' for Inactive)
REMARK    1  A    between atoms: C_1  and  C_2
REMARK    2  A    between atoms: C_2  and  C_3
REMARK    3  A    between atoms: C_3  and  N_4
REMARK    4  A    between atoms: C_5  and  C_10
REMARK    5  A    between atoms: C_7  and  C_9
REMARK    6  A    between atoms: C_10  and  N_11
REMARK    7  A    between atoms: N_11  and  C_12
REMARK    8  A    between atoms: C_14  and  C_29
REMARK    9  A    between atoms: C_16  and  N_19
REMARK   10  A    between atoms: C_20  and  C_22
REMARK                            x       y       z     vdW  Elec       q    Type
REMARK                         _______ _______ _______ _____ _____    ______ ____
ROOT
ATOM      1  N   UNL     1       3.962  -1.887  -1.293  0.00  0.00    -0.312 N 
ATOM      2  C   UNL     1       4.057  -0.471  -1.659  0.00  0.00    +0.131 C 
ATOM      3  C   UNL     1       4.761  -2.820  -1.928  0.00  0.00    +0.136 A 
ATOM      4  C   UNL     1       5.989  -3.195  -1.353  0.00  0.00    +0.105 A 
ATOM      5  C   UNL     1       6.783  -4.143  -2.012  0.00  0.00    +0.043 A 
ATOM      6  C   UNL     1       6.319  -4.671  -3.209  0.00  0.00    +0.053 A 
ATOM      7  C   UNL     1       5.093  -4.249  -3.712  0.00  0.00    +0.136 A 
ATOM      8  N   UNL     1       4.363  -3.359  -3.069  0.00  0.00    -0.238 NA
ENDROOT
BRANCH   6   9
ATOM      9  N   UNL     1       7.078  -5.622  -3.905  0.00  0.00    -0.280 N 
ATOM     10  C   UNL     1       7.827  -6.513  -3.226  0.00  0.00    +0.248 C 
ATOM     11  O   UNL     1       7.776  -6.551  -2.012  0.00  0.00    -0.270 OA
ATOM     12  H   UNL     1       7.065  -5.638  -4.874  0.00  0.00    +0.155 HD
BRANCH  10  13
ATOM     13  C   UNL     1       8.711  -7.444  -3.957  0.00  0.00    +0.037 A 
ATOM     14  C   UNL     1       8.777  -7.399  -5.351  0.00  0.00    +0.014 A 
ATOM     15  C   UNL     1       9.604  -8.271  -6.028  0.00  0.00    +0.016 A 
ATOM     16  C   UNL     1      10.368  -9.190  -5.329  0.00  0.00    +0.018 A 
ATOM     17  C   UNL     1      10.307  -9.239  -3.946  0.00  0.00    +0.016 A 
ATOM     18  C   UNL     1       9.488  -8.369  -3.257  0.00  0.00    +0.014 A 
ATOM     19 BR   UNL     1      11.499 -10.382  -6.265  0.00  0.00    -0.050 Br
ENDBRANCH  10  13
ENDBRANCH   6   9
BRANCH   4  20
ATOM     20  C   UNL     1       6.433  -2.602  -0.082  0.00  0.00    +0.390 C 
ATOM     21  O   UNL     1       7.542  -2.865   0.362  0.00  0.00    -0.240 OA
ATOM     22  O   UNL     1       5.692  -1.844   0.531  0.00  0.00    -0.240 OA
ENDBRANCH   4  20
BRANCH   1  23
ATOM     23  C   UNL     1       3.021  -2.313  -0.254  0.00  0.00    +0.161 C 
BRANCH  23  25
ATOM     24  N   UNL     1       0.700  -1.984  -1.252  0.00  0.00    -0.267 N 
ATOM     25  C   UNL     1       1.737  -2.771  -0.897  0.00  0.00    +0.057 A 
ATOM     26  C   UNL     1       1.418  -4.045  -1.222  0.00  0.00    +0.049 A 
ATOM     27  C   UNL     1       0.142  -4.036  -1.796  0.00  0.00    +0.060 A 
ATOM     28  N   UNL     1      -0.292  -2.801  -1.808  0.00  0.00    -0.176 NA
ATOM     29  C   UNL     1      -0.607  -5.240  -2.304  0.00  0.00    +0.067 C 
BRANCH  24  30
ATOM     30  C   UNL     1       0.623  -0.531  -1.080  0.00  0.00    +0.143 C 
BRANCH  30  32
ATOM     31  C   UNL     1      -0.180   1.307   0.410  0.00  0.00    +0.005 C 
ATOM     32  C   UNL     1      -0.100  -0.210   0.230  0.00  0.00    +0.020 C 
ENDBRANCH  30  32
ENDBRANCH  24  30
ENDBRANCH  23  25
ENDBRANCH   1  23
TORSDOF 7
