REMARK  Name = ZINC07573962
REMARK  7 active torsions:
REMARK  status: ('A' for Active; 'I' for Inactive)
REMARK    1  A    between atoms: C_1  and  C_2
REMARK    2  A    between atoms: C_7  and  C_8
REMARK    3  A    between atoms: C_8  and  N_9
REMARK    4  A    between atoms: C_11  and  C_16
REMARK    5  A    between atoms: N_18  and  C_19
REMARK    6  A    between atoms: C_22  and  N_27
REMARK    7  A    between atoms: C_24  and  C_25
REMARK                            x       y       z     vdW  Elec       q    Type
REMARK                         _______ _______ _______ _____ _____    ______ ____
ROOT
ATOM      1  N   UNL     1       4.919  -2.973   0.357  0.00  0.00    -0.310 N 
ATOM      2  C   UNL     1       3.745  -2.321   0.274  0.00  0.00    +0.102 A 
ATOM      3  C   UNL     1       3.714  -0.945   0.172  0.00  0.00    +0.053 A 
ATOM      4  C   UNL     1       4.930  -0.219   0.166  0.00  0.00    +0.020 A 
ATOM      5  C   UNL     1       6.104  -0.899   0.256  0.00  0.00    +0.071 A 
ATOM      6  C   UNL     1       6.086  -2.304   0.353  0.00  0.00    +0.252 A 
ATOM      7  O   UNL     1       7.137  -2.918   0.434  0.00  0.00    -0.268 OA
ENDROOT
BRANCH   3   8
ATOM      8  C   UNL     1       2.426  -0.235   0.076  0.00  0.00    +0.250 C 
ATOM      9  O   UNL     1       1.384  -0.863   0.082  0.00  0.00    -0.270 OA
ATOM     10  N   UNL     1       2.402   1.109  -0.018  0.00  0.00    -0.280 N 
ATOM     11  H   UNL     1       3.232   1.604  -0.103  0.00  0.00    +0.155 HD
BRANCH  10  12
ATOM     12  C   UNL     1       1.185   1.787   0.008  0.00  0.00    +0.051 A 
ATOM     13  C   UNL     1       0.080   1.215   0.623  0.00  0.00    +0.027 A 
ATOM     14  C   UNL     1      -1.126   1.886   0.642  0.00  0.00    +0.034 A 
ATOM     15  C   UNL     1      -1.241   3.138   0.060  0.00  0.00    +0.128 A 
ATOM     16  C   UNL     1      -0.155   3.723  -0.555  0.00  0.00    +0.053 A 
ATOM     17  C   UNL     1       1.071   3.053  -0.587  0.00  0.00    +0.075 A 
BRANCH  15  18
ATOM     18  N   UNL     1      -2.539   3.849   0.093  0.00  0.00    +0.056 N 
ATOM     19  O   UNL     1      -2.645   4.948  -0.423  0.00  0.00    -0.126 OA
ATOM     20  O   UNL     1      -3.501   3.336   0.635  0.00  0.00    -0.126 OA
ENDBRANCH  15  18
BRANCH  17  21
ATOM     21  C   UNL     1       2.204   3.654  -1.224  0.00  0.00    +0.101 C 
ATOM     22  N   UNL     1       3.103   4.131  -1.729  0.00  0.00    -0.191 NA
ENDBRANCH  17  21
ENDBRANCH  10  12
ENDBRANCH   3   8
BRANCH   1  23
ATOM     23  C   UNL     1       4.927  -4.434   0.459  0.00  0.00    +0.160 C 
BRANCH  23  30
ATOM     24  C   UNL     1       4.648  -7.225   1.154  0.00  0.00    +0.044 C 
ATOM     25  C   UNL     1       4.622  -6.173   2.233  0.00  0.00    -0.046 A 
ATOM     26  C   UNL     1       4.469  -6.544   3.556  0.00  0.00    +0.004 A 
ATOM     27  C   UNL     1       4.441  -5.580   4.546  0.00  0.00    +0.000 A 
ATOM     28  C   UNL     1       4.569  -4.244   4.213  0.00  0.00    +0.000 A 
ATOM     29  C   UNL     1       4.726  -3.873   2.890  0.00  0.00    +0.005 A 
ATOM     30  C   UNL     1       4.756  -4.838   1.901  0.00  0.00    -0.025 A 
ENDBRANCH  23  30
ENDBRANCH   1  23
TORSDOF 6
