REMARK  Name = ZINC04040792
REMARK  4 active torsions:
REMARK  status: ('A' for Active; 'I' for Inactive)
REMARK    1  A    between atoms: C_5  and  C_7
REMARK    2  A    between atoms: C_8  and  C_9
REMARK    3  A    between atoms: N_11  and  C_12
REMARK    4  A    between atoms: C_15  and  N_19
REMARK                            x       y       z     vdW  Elec       q    Type
REMARK                         _______ _______ _______ _____ _____    ______ ____
ROOT
ATOM      1  C   UNL     1       2.467  -4.268  -0.049  0.00  0.00    +0.241 C 
ATOM      2  O   UNL     1       1.426  -4.898  -0.038  0.00  0.00    -0.270 OA
ATOM      3  N   UNL     1       3.648  -4.917  -0.058  0.00  0.00    -0.281 N 
ATOM      4  H   UNL     1       4.476  -4.417  -0.133  0.00  0.00    +0.155 HD
ENDROOT
BRANCH   3   5
ATOM      5  C   UNL     1       3.680  -6.312   0.040  0.00  0.00    +0.048 A 
ATOM      6  C   UNL     1       2.677  -7.074  -0.545  0.00  0.00    +0.026 A 
ATOM      7  C   UNL     1       2.711  -8.451  -0.447  0.00  0.00    +0.034 A 
ATOM      8  C   UNL     1       3.743  -9.072   0.233  0.00  0.00    +0.127 A 
ATOM      9  C   UNL     1       4.743  -8.317   0.817  0.00  0.00    +0.049 A 
ATOM     10  C   UNL     1       4.718  -6.939   0.719  0.00  0.00    +0.041 A 
ATOM     11 BR   UNL     1       6.090  -5.907   1.511  0.00  0.00    -0.048 Br
BRANCH   8  12
ATOM     12  N   UNL     1       3.777 -10.548   0.335  0.00  0.00    +0.056 N 
ATOM     13  O   UNL     1       2.897 -11.215  -0.179  0.00  0.00    -0.126 OA
ATOM     14  O   UNL     1       4.685 -11.097   0.934  0.00  0.00    -0.126 OA
ENDBRANCH   8  12
ENDBRANCH   3   5
BRANCH   1  16
ATOM     15  C   UNL     1       1.255  -2.155  -0.043  0.00  0.00    +0.014 C 
ATOM     16  C   UNL     1       2.437  -2.805  -0.052  0.00  0.00    +0.068 C 
BRANCH  15  21
ATOM     17  C   UNL     1       2.382   1.423  -0.061  0.00  0.00    +0.001 A 
ATOM     18  C   UNL     1       1.167   2.087  -0.052  0.00  0.00    +0.001 A 
ATOM     19  C   UNL     1      -0.019   1.375  -0.040  0.00  0.00    +0.020 A 
ATOM     20  C   UNL     1       0.000  -0.005  -0.037  0.00  0.00    +0.048 A 
ATOM     21  C   UNL     1       1.224  -0.684  -0.046  0.00  0.00    -0.007 A 
ATOM     22  C   UNL     1       2.418   0.045  -0.059  0.00  0.00    +0.009 A 
ATOM     23 CL   UNL     1      -1.489  -0.897  -0.022  0.00  0.00    -0.083 Cl
ENDBRANCH  15  21
ENDBRANCH   1  16
TORSDOF 4
