REMARK  Name = ZINC67229428
REMARK  8 active torsions:
REMARK  status: ('A' for Active; 'I' for Inactive)
REMARK    1  A    between atoms: C_1  and  C_2
REMARK    2  A    between atoms: C_2  and  C_3
REMARK    3  A    between atoms: C_2  and  C_4
REMARK    4  A    between atoms: C_2  and  C_5
REMARK    5  A    between atoms: N_11  and  C_14
REMARK    6  A    between atoms: C_14  and  C_15
REMARK    7  A    between atoms: N_17  and  C_18
REMARK    8  A    between atoms: C_18  and  C_23
REMARK                            x       y       z     vdW  Elec       q    Type
REMARK                         _______ _______ _______ _____ _____    ______ ____
ROOT
ATOM      1  C   UNL     1       0.071  -0.622  -1.264  0.00  0.00    +0.221 C 
ATOM      2  O   UNL     1       0.750  -0.111  -2.129  0.00  0.00    -0.275 OA
ATOM      3  N   UNL     1       0.171  -1.944  -1.021  0.00  0.00    -0.303 N 
ATOM      4  C   UNL     1      -0.744  -2.559  -0.038  0.00  0.00    +0.106 C 
ATOM      5  C   UNL     1      -1.255  -3.923  -0.535  0.00  0.00    +0.000 C 
ATOM      6  C   UNL     1      -1.545  -3.842  -2.018  0.00  0.00    -0.077 C 
ATOM      7  N   UNL     1      -0.368  -4.281  -2.764  0.00  0.00    +0.386 N 
ATOM      8  C   UNL     1       0.572  -3.265  -3.047  0.00  0.00    -0.059 C 
ATOM      9  C   UNL     1       1.169  -2.712  -1.738  0.00  0.00    +0.089 C 
ATOM     10  H   UNL     1       0.095  -5.003  -2.232  0.00  0.00    -0.081 HD
ENDROOT
BRANCH   1  12
ATOM     11  C   UNL     1      -0.654   1.699  -0.780  0.00  0.00    +0.020 C 
ATOM     12  C   UNL     1      -0.886   0.221  -0.462  0.00  0.00    +0.039 C 
ATOM     13  C   UNL     1      -0.653  -0.023   1.031  0.00  0.00    +0.020 C 
ATOM     14  C   UNL     1      -2.325  -0.158  -0.821  0.00  0.00    +0.020 C 
ENDBRANCH   1  12
BRANCH   7  15
ATOM     15  C   UNL     1      -0.816  -4.865  -4.035  0.00  0.00    +0.019 C 
BRANCH  15  16
ATOM     16  C   UNL     1      -1.578  -6.136  -3.763  0.00  0.00    +0.198 C 
ATOM     17  O   UNL     1      -1.641  -6.576  -2.635  0.00  0.00    -0.278 OA
ATOM     18  N   UNL     1      -2.190  -6.785  -4.774  0.00  0.00    -0.299 N 
ATOM     19  H   UNL     1      -2.139  -6.433  -5.677  0.00  0.00    +0.150 HD
BRANCH  18  20
ATOM     20  C   UNL     1      -2.931  -8.021  -4.510  0.00  0.00    +0.121 C 
ATOM     21  C   UNL     1      -1.973  -9.108  -3.980  0.00  0.00    +0.041 C 
ATOM     22  C   UNL     1      -2.497 -10.418  -4.618  0.00  0.00    +0.003 C 
ATOM     23  C   UNL     1      -2.920  -9.963  -6.036  0.00  0.00    +0.003 C 
ATOM     24  C   UNL     1      -3.533  -8.564  -5.817  0.00  0.00    +0.041 C 
BRANCH  20  25
ATOM     25  C   UNL     1      -3.999  -7.767  -3.530  0.00  0.00    +0.088 C 
ATOM     26  N   UNL     1      -4.824  -7.572  -2.773  0.00  0.00    -0.194 NA
ENDBRANCH  20  25
ENDBRANCH  18  20
ENDBRANCH  15  16
ENDBRANCH   7  15
TORSDOF 5
