REMARK  Name = ZINC39490834
REMARK  8 active torsions:
REMARK  status: ('A' for Active; 'I' for Inactive)
REMARK    1  A    between atoms: C_1  and  C_2
REMARK    2  A    between atoms: C_2  and  S_23
REMARK    3  A    between atoms: N_4  and  O_22
REMARK    4  A    between atoms: N_7  and  C_8
REMARK    5  A    between atoms: C_8  and  C_9
REMARK    6  A    between atoms: C_9  and  C_16
REMARK    7  A    between atoms: S_23  and  O_26
REMARK    8  A    between atoms: O_26  and  C_27
REMARK                            x       y       z     vdW  Elec       q    Type
REMARK                         _______ _______ _______ _____ _____    ______ ____
ROOT
ATOM      1  C   UNL     1       4.405  -0.324   1.954  0.00  0.00    +0.063 C 
ATOM      2  C   UNL     1       3.646  -0.618   0.659  0.00  0.00    +0.209 C 
ATOM      3  C   UNL     1       3.555   0.649  -0.214  0.00  0.00    +0.194 C 
ATOM      4  N   UNL     1       2.110   0.897  -0.325  0.00  0.00    -0.164 N 
ATOM      5  C   UNL     1       1.447  -0.046   0.357  0.00  0.00    +0.329 C 
ATOM      6  O   UNL     1       0.234  -0.081   0.433  0.00  0.00    -0.250 OA
ATOM      7  N   UNL     1       2.242  -0.948   0.947  0.00  0.00    -0.255 N 
ENDROOT
BRANCH   2   8
ATOM      8  S   UNL     1       4.443  -1.968  -0.253  0.00  0.00    +0.145 S 
ATOM      9  O   UNL     1       4.772  -3.030   0.633  0.00  0.00    -0.135 OA
ATOM     10  O   UNL     1       3.742  -2.224  -1.462  0.00  0.00    -0.135 OA
BRANCH   8  11
ATOM     11  O   UNL     1       5.785  -1.402  -0.695  0.00  0.00    -0.345 OA
BRANCH  11  12
ATOM     12  C   UNL     1       6.729  -1.388   0.283  0.00  0.00    +0.156 A 
ATOM     13  C   UNL     1       7.131  -0.184   0.844  0.00  0.00    +0.048 A 
ATOM     14  C   UNL     1       8.089  -0.173   1.838  0.00  0.00    +0.004 A 
ATOM     15  C   UNL     1       8.648  -1.360   2.275  0.00  0.00    +0.000 A 
ATOM     16  C   UNL     1       8.250  -2.561   1.718  0.00  0.00    +0.004 A 
ATOM     17  C   UNL     1       7.287  -2.578   0.727  0.00  0.00    +0.048 A 
ENDBRANCH  11  12
ENDBRANCH   8  11
ENDBRANCH   2   8
BRANCH   4  18
ATOM     18  O   UNL     1       1.513   1.965  -1.039  0.00  0.00    -0.291 OA
ATOM     19  H   UNL     1       0.547   1.971  -1.002  0.00  0.00    +0.242 HD
ENDBRANCH   4  18
BRANCH   7  20
ATOM     20  C   UNL     1       1.786  -2.084   1.753  0.00  0.00    +0.119 C 
BRANCH  20  21
ATOM     21  C   UNL     1       1.294  -1.581   3.111  0.00  0.00    -0.008 C 
ATOM     22  C   UNL     1       0.748  -2.757   3.926  0.00  0.00    +0.025 C 
ATOM     23  C   UNL     1      -0.450  -3.365   3.194  0.00  0.00    +0.098 C 
ATOM     24  N   UNL     1      -1.490  -2.342   3.020  0.00  0.00    -0.242 NA
ATOM     25  C   UNL     1      -1.003  -1.225   2.201  0.00  0.00    +0.098 C 
ATOM     26  C   UNL     1       0.179  -0.553   2.903  0.00  0.00    +0.025 C 
ATOM     27 BR   UNL     1      -3.026  -3.076   2.296  0.00  0.00    +0.013 Br
BRANCH  21  28
ATOM     28  C   UNL     1       2.455  -0.929   3.866  0.00  0.00    -0.003 C 
ATOM     29  C   UNL     1       3.479  -2.000   4.248  0.00  0.00    +0.004 C 
ATOM     30  C   UNL     1       4.640  -1.349   5.003  0.00  0.00    +0.000 C 
ATOM     31  C   UNL     1       4.111  -0.674   6.270  0.00  0.00    +0.000 C 
ATOM     32  C   UNL     1       3.086   0.396   5.888  0.00  0.00    +0.000 C 
ATOM     33  C   UNL     1       1.925  -0.255   5.133  0.00  0.00    +0.004 C 
ENDBRANCH  21  28
ENDBRANCH  20  21
ENDBRANCH   7  20
TORSDOF 7
