REMARK  Name = ZINC04291167
REMARK  7 active torsions:
REMARK  status: ('A' for Active; 'I' for Inactive)
REMARK    1  A    between atoms: C_1  and  C_2
REMARK    2  A    between atoms: C_5  and  C_8
REMARK    3  A    between atoms: C_8  and  N_9
REMARK    4  A    between atoms: N_22  and  C_26
REMARK    5  A    between atoms: C_26  and  C_27
REMARK    6  A    between atoms: C_27  and  O_29
REMARK    7  A    between atoms: O_29  and  C_30
REMARK                            x       y       z     vdW  Elec       q    Type
REMARK                         _______ _______ _______ _____ _____    ______ ____
ROOT
ATOM      1  N   UNL     1      -2.154  -2.916  -0.047  0.00  0.00    -0.290 N 
ATOM      2  C   UNL     1      -3.182  -1.889  -0.160  0.00  0.00    +0.084 C 
ATOM      3  C   UNL     1      -4.443  -2.190   0.585  0.00  0.00    +0.023 C 
ATOM      4  C   UNL     1      -4.488  -1.548   1.968  0.00  0.00    +0.002 C 
ATOM      5  C   UNL     1      -4.255  -0.042   1.793  0.00  0.00    +0.001 C 
ATOM      6  C   UNL     1      -2.820   0.167   1.328  0.00  0.00    +0.010 C 
ATOM      7  C   UNL     1      -2.518  -0.546   0.024  0.00  0.00    +0.046 C 
ATOM      8  C   UNL     1      -1.031  -0.883   0.007  0.00  0.00    +0.038 C 
ATOM      9  C   UNL     1       0.002  -0.004   0.002  0.00  0.00    +0.085 C 
ATOM     10  C   UNL     1      -0.018   1.488   0.010  0.00  0.00    +0.259 C 
ATOM     11  O   UNL     1      -1.058   2.115   0.019  0.00  0.00    -0.269 OA
ATOM     12  N   UNL     1       1.161   2.088   0.002  0.00  0.00    -0.244 N 
ATOM     13  C   UNL     1       2.311   1.386  -0.013  0.00  0.00    +0.121 C 
ATOM     14  S   UNL     1       3.916   1.982  -0.025  0.00  0.00    -0.027 S 
ATOM     15  S   UNL     1       1.763  -0.313  -0.017  0.00  0.00    -0.061 S 
ATOM     16  C   UNL     1      -0.939  -2.346  -0.008  0.00  0.00    +0.245 C 
ATOM     17  O   UNL     1       0.108  -2.966   0.015  0.00  0.00    -0.270 OA
ENDROOT
BRANCH   1  18
ATOM     18  C   UNL     1      -2.409  -4.357   0.009  0.00  0.00    +0.143 C 
BRANCH  18  23
ATOM     19  C   UNL     1      -2.414  -6.524  -5.348  0.00  0.00    +0.044 C 
ATOM     20  C   UNL     1      -2.413  -5.958  -3.951  0.00  0.00    -0.050 A 
ATOM     21  C   UNL     1      -1.236  -5.904  -3.229  0.00  0.00    +0.003 A 
ATOM     22  C   UNL     1      -1.234  -5.386  -1.947  0.00  0.00    +0.005 A 
ATOM     23  C   UNL     1      -2.410  -4.922  -1.388  0.00  0.00    -0.030 A 
ATOM     24  C   UNL     1      -3.589  -4.981  -2.109  0.00  0.00    +0.005 A 
ATOM     25  C   UNL     1      -3.589  -5.494  -3.392  0.00  0.00    +0.003 A 
ENDBRANCH  18  23
ENDBRANCH   1  18
BRANCH  12  26
ATOM     26  C   UNL     1       1.217   3.551   0.009  0.00  0.00    +0.235 C 
BRANCH  26  27
ATOM     27  C   UNL     1       1.249   4.046   1.432  0.00  0.00    +0.325 C 
ATOM     28  O   UNL     1       1.228   3.257   2.347  0.00  0.00    -0.249 OA
BRANCH  27  29
ATOM     29  O   UNL     1       1.302   5.364   1.683  0.00  0.00    -0.460 OA
BRANCH  29  30
ATOM     30  C   UNL     1       1.331   5.768   3.078  0.00  0.00    +0.176 C 
ATOM     31  C   UNL     1      -0.100   5.965   3.581  0.00  0.00    +0.044 C 
ATOM     32  C   UNL     1      -0.070   6.392   5.050  0.00  0.00    +0.004 C 
ATOM     33  C   UNL     1       0.703   7.705   5.185  0.00  0.00    +0.000 C 
ATOM     34  C   UNL     1       2.135   7.508   4.681  0.00  0.00    +0.004 C 
ATOM     35  C   UNL     1       2.104   7.082   3.212  0.00  0.00    +0.044 C 
ENDBRANCH  29  30
ENDBRANCH  27  29
ENDBRANCH  26  27
ENDBRANCH  12  26
TORSDOF 6
