REMARK  Name = ZINC52618372
REMARK  8 active torsions:
REMARK  status: ('A' for Active; 'I' for Inactive)
REMARK    1  A    between atoms: C_1  and  C_2
REMARK    2  A    between atoms: N_9  and  C_10
REMARK    3  A    between atoms: C_10  and  C_11
REMARK    4  A    between atoms: N_13  and  C_14
REMARK    5  A    between atoms: C_14  and  C_15
REMARK    6  A    between atoms: N_25  and  C_26
REMARK    7  A    between atoms: C_26  and  C_27
REMARK    8  A    between atoms: C_27  and  C_28
REMARK                            x       y       z     vdW  Elec       q    Type
REMARK                         _______ _______ _______ _____ _____    ______ ____
ROOT
ATOM      1  C   UNL     1      -0.019   1.526   0.010  0.00  0.00    +0.030 C 
ATOM      2  C   UNL     1       0.002  -0.004   0.002  0.00  0.00    +0.093 C 
ATOM      3  C   UNL     1      -1.431  -0.530   0.007  0.00  0.00    +0.136 C 
ATOM      4  N   UNL     1      -2.074  -0.266   1.293  0.00  0.00    -0.367 N 
ATOM      5  C   UNL     1      -1.398  -0.300   2.397  0.00  0.00    +0.156 C 
ATOM      6  C   UNL     1       0.064  -0.579   2.362  0.00  0.00    +0.278 C 
ATOM      7  O   UNL     1       0.658  -0.885   3.376  0.00  0.00    -0.267 OA
ATOM      8  N   UNL     1       0.716  -0.487   1.187  0.00  0.00    -0.282 N 
ATOM      9  N   UNL     1      -2.031  -0.078   3.602  0.00  0.00    -0.326 N 
ATOM     10  H   UNL     1      -1.524  -0.104   4.428  0.00  0.00    +0.148 HD
ATOM     11  H   UNL     1      -3.022  -0.062   1.320  0.00  0.00    +0.161 HD
ENDROOT
BRANCH   8  12
ATOM     12  C   UNL     1       2.128  -0.866   1.097  0.00  0.00    +0.204 C 
BRANCH  12  13
ATOM     13  C   UNL     1       2.990   0.336   1.381  0.00  0.00    +0.231 C 
ATOM     14  O   UNL     1       2.476   1.405   1.634  0.00  0.00    -0.274 OA
ATOM     15  N   UNL     1       4.333   0.225   1.354  0.00  0.00    -0.308 N 
ATOM     16  H   UNL     1       4.745  -0.630   1.151  0.00  0.00    +0.149 HD
BRANCH  15  17
ATOM     17  C   UNL     1       5.172   1.394   1.630  0.00  0.00    +0.157 C 
BRANCH  17  18
ATOM     18  C   UNL     1       6.624   1.004   1.537  0.00  0.00    +0.034 A 
ATOM     19  C   UNL     1       7.307   0.643   2.689  0.00  0.00    +0.025 A 
ATOM     20  C   UNL     1       8.640   0.284   2.611  0.00  0.00    +0.029 A 
ATOM     21  C   UNL     1       9.255   0.297   1.363  0.00  0.00    +0.063 A 
ATOM     22  C   UNL     1       8.500   0.674   0.236  0.00  0.00    +0.064 A 
ATOM     23  N   UNL     1       7.219   1.006   0.364  0.00  0.00    -0.356 N 
ATOM     24  C   UNL     1       9.415   0.588  -0.905  0.00  0.00    +0.045 A 
ATOM     25  C   UNL     1      10.604   0.186  -0.427  0.00  0.00    +0.085 A 
ATOM     26  N   UNL     1      10.527   0.008   0.926  0.00  0.00    -0.359 N 
ATOM     27  H   UNL     1      11.260  -0.280   1.493  0.00  0.00    +0.165 HD
ATOM     28  H   UNL     1       6.713   1.260  -0.424  0.00  0.00    +0.166 HD
ENDBRANCH  17  18
ENDBRANCH  15  17
ENDBRANCH  12  13
ENDBRANCH   8  12
BRANCH   9  29
ATOM     29  C   UNL     1      -3.470   0.197   3.634  0.00  0.00    +0.107 C 
BRANCH  29  30
ATOM     30  C   UNL     1      -3.917   0.404   5.082  0.00  0.00    +0.054 C 
BRANCH  30  31
ATOM     31  C   UNL     1      -5.397   0.687   5.115  0.00  0.00    -0.046 A 
ATOM     32  C   UNL     1      -5.854   1.988   5.025  0.00  0.00    +0.004 A 
ATOM     33  C   UNL     1      -7.212   2.248   5.055  0.00  0.00    +0.000 A 
ATOM     34  C   UNL     1      -8.112   1.206   5.175  0.00  0.00    +0.000 A 
ATOM     35  C   UNL     1      -7.655  -0.096   5.264  0.00  0.00    +0.000 A 
ATOM     36  C   UNL     1      -6.297  -0.356   5.229  0.00  0.00    +0.004 A 
ENDBRANCH  30  31
ENDBRANCH  29  30
ENDBRANCH   9  29
TORSDOF 7
