REMARK  Name = ZINC59483750
REMARK  10 active torsions:
REMARK  status: ('A' for Active; 'I' for Inactive)
REMARK    1  A    between atoms: C_1  and  O_2
REMARK    2  A    between atoms: O_2  and  C_3
REMARK    3  A    between atoms: C_8  and  N_9
REMARK    4  A    between atoms: C_10  and  C_12
REMARK    5  A    between atoms: N_14  and  N_15
REMARK    6  A    between atoms: C_16  and  C_17
REMARK    7  A    between atoms: C_20  and  O_25
REMARK    8  A    between atoms: C_22  and  O_23
REMARK    9  A    between atoms: O_23  and  C_24
REMARK   10  A    between atoms: O_25  and  C_26
REMARK                            x       y       z     vdW  Elec       q    Type
REMARK                         _______ _______ _______ _____ _____    ______ ____
ROOT
ATOM      1  C   UNL     1       1.131  -4.914   0.178  0.00  0.00    +0.318 C 
ATOM      2  O   UNL     1       2.205  -4.348   0.170  0.00  0.00    -0.263 OA
ATOM      3  N   UNL     1       1.077  -6.257   0.273  0.00  0.00    -0.199 N 
ATOM      4  H   UNL     1       0.219  -6.710   0.279  0.00  0.00    +0.178 HD
ENDROOT
BRANCH   1   6
ATOM      5  N   UNL     1      -0.076  -2.780  -0.013  0.00  0.00    -0.275 N 
ATOM      6  C   UNL     1      -0.129  -4.123   0.082  0.00  0.00    +0.305 C 
ATOM      7  O   UNL     1      -1.203  -4.689   0.090  0.00  0.00    -0.265 OA
ATOM      8  H   UNL     1       0.782  -2.332  -0.084  0.00  0.00    +0.155 HD
BRANCH   5  14
ATOM      9  C   UNL     1      -1.288  -0.777   0.600  0.00  0.00    +0.141 A 
ATOM     10  C   UNL     1      -2.459  -0.038   0.596  0.00  0.00    +0.047 A 
ATOM     11  C   UNL     1      -3.596  -0.546  -0.005  0.00  0.00    +0.004 A 
ATOM     12  C   UNL     1      -3.569  -1.793  -0.603  0.00  0.00    +0.002 A 
ATOM     13  C   UNL     1      -2.404  -2.537  -0.604  0.00  0.00    +0.027 A 
ATOM     14  C   UNL     1      -1.258  -2.031  -0.008  0.00  0.00    +0.076 A 
BRANCH   9  16
ATOM     15  C   UNL     1      -0.275   1.013   1.793  0.00  0.00    +0.277 C 
ATOM     16  O   UNL     1      -0.169  -0.279   1.190  0.00  0.00    -0.493 OA
ENDBRANCH   9  16
ENDBRANCH   5  14
ENDBRANCH   1   6
BRANCH   3  17
ATOM     17  N   UNL     1       2.262  -7.001   0.363  0.00  0.00    -0.187 NA
ATOM     18  C   UNL     1       2.210  -8.296   0.454  0.00  0.00    +0.142 C 
BRANCH  18  19
ATOM     19  C   UNL     1       3.454  -9.077   0.548  0.00  0.00    +0.037 A 
ATOM     20  C   UNL     1       3.403 -10.471   0.641  0.00  0.00    +0.032 A 
ATOM     21  C   UNL     1       4.570 -11.198   0.729  0.00  0.00    +0.060 A 
ATOM     22  C   UNL     1       5.801 -10.550   0.726  0.00  0.00    +0.137 A 
ATOM     23  C   UNL     1       5.862  -9.167   0.634  0.00  0.00    +0.093 A 
ATOM     24  C   UNL     1       4.697  -8.426   0.540  0.00  0.00    +0.132 A 
ATOM     25 BR   UNL     1       4.498 -13.084   0.855  0.00  0.00    -0.046 Br
BRANCH  24  26
ATOM     26  O   UNL     1       4.756  -7.073   0.444  0.00  0.00    -0.494 OA
ATOM     27  C   UNL     1       6.056  -6.479   0.441  0.00  0.00    +0.277 C 
ENDBRANCH  24  26
BRANCH  22  28
ATOM     28  O   UNL     1       6.947 -11.274   0.813  0.00  0.00    -0.494 OA
ATOM     29  C   UNL     1       8.176 -10.545   0.805  0.00  0.00    +0.277 C 
ENDBRANCH  22  28
ENDBRANCH  18  19
ENDBRANCH   3  17
TORSDOF 7
