REMARK  Name = ZINC31685509
REMARK  7 active torsions:
REMARK  status: ('A' for Active; 'I' for Inactive)
REMARK    1  A    between atoms: C_1  and  C_2
REMARK    2  A    between atoms: C_2  and  C_4
REMARK    3  A    between atoms: C_2  and  S_18
REMARK    4  A    between atoms: C_4  and  C_6
REMARK    5  A    between atoms: C_15  and  C_17
REMARK    6  A    between atoms: S_18  and  C_19
REMARK    7  A    between atoms: C_22  and  C_24
REMARK                            x       y       z     vdW  Elec       q    Type
REMARK                         _______ _______ _______ _____ _____    ______ ____
ROOT
ATOM      1  C   UNL     1      -0.642   3.895   1.343  0.00  0.00    +0.028 C 
ATOM      2  C   UNL     1       0.071   4.224   0.030  0.00  0.00    +0.124 C 
ENDROOT
BRANCH   2   3
ATOM      3  C   UNL     1       0.240   5.717  -0.089  0.00  0.00    +0.176 C 
ATOM      4  O   UNL     1       1.274   6.241   0.268  0.00  0.00    -0.291 OA
BRANCH   3   5
ATOM      5  C   UNL     1      -0.848   6.537  -0.638  0.00  0.00    +0.019 A 
ATOM      6  C   UNL     1      -2.044   5.938  -1.052  0.00  0.00    +0.013 A 
ATOM      7  C   UNL     1      -3.052   6.701  -1.560  0.00  0.00    +0.024 A 
ATOM      8  C   UNL     1      -2.908   8.089  -1.676  0.00  0.00    +0.040 A 
ATOM      9  C   UNL     1      -1.722   8.686  -1.266  0.00  0.00    -0.024 A 
ATOM     10  C   UNL     1      -0.699   7.926  -0.746  0.00  0.00    +0.017 A 
ATOM     11  C   UNL     1      -1.830  10.177  -1.496  0.00  0.00    +0.056 C 
ATOM     12  C   UNL     1      -3.233  10.373  -2.095  0.00  0.00    +0.118 C 
ATOM     13  N   UNL     1      -3.813   9.029  -2.164  0.00  0.00    -0.271 N 
ATOM     14  C   UNL     1      -5.045   8.744  -2.631  0.00  0.00    +0.217 C 
ATOM     15  O   UNL     1      -5.402   7.590  -2.733  0.00  0.00    -0.276 OA
ATOM     16  C   UNL     1      -5.977   9.859  -3.027  0.00  0.00    +0.109 C 
ENDBRANCH   3   5
ENDBRANCH   2   3
BRANCH   2  17
ATOM     17  S   UNL     1       1.698   3.430   0.011  0.00  0.00    -0.055 S 
BRANCH  17  18
ATOM     18  C   UNL     1       1.211   1.737   0.009  0.00  0.00    +0.278 A 
ATOM     19  N   UNL     1      -0.019   1.283   0.018  0.00  0.00    -0.101 NA
ATOM     20  N   UNL     1      -0.002  -0.003   0.012  0.00  0.00    -0.106 NA
ATOM     21  C   UNL     1       1.241  -0.423  -0.001  0.00  0.00    +0.251 A 
ATOM     22  O   UNL     1       2.035   0.670  -0.004  0.00  0.00    -0.411 OA
BRANCH  21  23
ATOM     23  C   UNL     1       1.688  -1.829  -0.011  0.00  0.00    +0.063 A 
ATOM     24  C   UNL     1       2.973  -2.272  -0.030  0.00  0.00    +0.097 A 
ATOM     25  N   UNL     1       2.989  -3.636  -0.031  0.00  0.00    -0.360 N 
ATOM     26  H   UNL     1       3.948  -4.174  -0.040  0.00  0.00    +0.165 HD
ATOM     27  C   UNL     1       1.702  -4.128  -0.021  0.00  0.00    +0.047 A 
ATOM     28  C   UNL     1       0.830  -3.026  -0.008  0.00  0.00    +0.012 A 
ATOM     29  C   UNL     1      -0.549  -3.227   0.004  0.00  0.00    +0.011 A 
ATOM     30  C   UNL     1      -1.051  -4.509   0.003  0.00  0.00    +0.001 A 
ATOM     31  C   UNL     1      -0.191  -5.598  -0.010  0.00  0.00    +0.002 A 
ATOM     32  C   UNL     1       1.174  -5.415  -0.022  0.00  0.00    +0.026 A 
ENDBRANCH  21  23
ENDBRANCH  17  18
ENDBRANCH   2  17
TORSDOF 5
