REMARK  Name = ZINC12833456
REMARK  12 active torsions:
REMARK  status: ('A' for Active; 'I' for Inactive)
REMARK    1  A    between atoms: C_1  and  O_2
REMARK    2  A    between atoms: O_2  and  C_3
REMARK    3  A    between atoms: C_6  and  C_9
REMARK    4  A    between atoms: C_9  and  N_10
REMARK    5  A    between atoms: C_11  and  C_15
REMARK    6  A    between atoms: C_15  and  N_62
REMARK    7  A    between atoms: C_16  and  C_17
REMARK    8  A    between atoms: C_16  and  N_62
REMARK    9  A    between atoms: C_22  and  C_23
REMARK   10  A    between atoms: C_22  and  N_62
REMARK   11  A    between atoms: C_27  and  O_35
REMARK   12  A    between atoms: O_35  and  C_36
REMARK                            x       y       z     vdW  Elec       q    Type
REMARK                         _______ _______ _______ _____ _____    ______ ____
ROOT
ATOM      1  N   UNL     1       1.778  -2.725  -1.522  0.00  0.00    +0.392 N 
ATOM      2  H   UNL     1       0.978  -2.597  -2.152  0.00  0.00    -0.080 HD
ENDROOT
BRANCH   1   3
ATOM      3  C   UNL     1       1.528  -1.979  -0.270  0.00  0.00    +0.001 C 
BRANCH   3   5
ATOM      4  N   UNL     1       0.009   0.003  -0.789  0.00  0.00    -0.227 N 
ATOM      5  C   UNL     1       1.227  -0.542  -0.612  0.00  0.00    +0.135 A 
ATOM      6  N   UNL     1       2.100   0.418  -0.795  0.00  0.00    -0.115 NA
ATOM      7  N   UNL     1       1.452   1.497  -1.070  0.00  0.00    -0.023 NA
ATOM      8  N   UNL     1       0.188   1.250  -1.067  0.00  0.00    -0.044 NA
BRANCH   4   9
ATOM      9  C   UNL     1      -1.278  -0.689  -0.685  0.00  0.00    +0.182 C 
BRANCH   9  13
ATOM     10  C   UNL     1      -2.607  -1.819  -4.586  0.00  0.00    +0.120 A 
ATOM     11  C   UNL     1      -1.909  -2.725  -3.800  0.00  0.00    +0.046 A 
ATOM     12  C   UNL     1      -1.481  -2.357  -2.539  0.00  0.00    +0.009 A 
ATOM     13  C   UNL     1      -1.746  -1.088  -2.060  0.00  0.00    -0.026 A 
ATOM     14  C   UNL     1      -2.447  -0.185  -2.839  0.00  0.00    +0.009 A 
ATOM     15  C   UNL     1      -2.873  -0.546  -4.103  0.00  0.00    +0.046 A 
BRANCH  10  17
ATOM     16  C   UNL     1      -3.742  -1.195  -6.579  0.00  0.00    +0.277 C 
ATOM     17  O   UNL     1      -3.030  -2.179  -5.826  0.00  0.00    -0.495 OA
ENDBRANCH  10  17
ENDBRANCH   9  13
ENDBRANCH   4   9
ENDBRANCH   3   5
ENDBRANCH   1   3
BRANCH   1  18
ATOM     18  C   UNL     1       2.996  -2.211  -2.182  0.00  0.00    -0.002 C 
BRANCH  18  19
ATOM     19  C   UNL     1       3.031  -2.723  -3.599  0.00  0.00    +0.089 A 
ATOM     20  C   UNL     1       2.562  -2.076  -4.681  0.00  0.00    +0.042 A 
ATOM     21  C   UNL     1       2.798  -2.915  -5.794  0.00  0.00    +0.041 A 
ATOM     22  C   UNL     1       3.398  -4.024  -5.326  0.00  0.00    +0.195 A 
ATOM     23  O   UNL     1       3.542  -3.900  -3.997  0.00  0.00    -0.470 OA
ENDBRANCH  18  19
ENDBRANCH   1  18
BRANCH   1  24
ATOM     24  C   UNL     1       1.932  -4.166  -1.228  0.00  0.00    -0.036 C 
BRANCH  24  25
ATOM     25  C   UNL     1       0.567  -4.760  -0.996  0.00  0.00    +0.001 A 
ATOM     26  C   UNL     1      -0.107  -5.327  -2.026  0.00  0.00    +0.017 A 
ATOM     27  C   UNL     1      -1.431  -5.896  -1.768  0.00  0.00    +0.002 A 
ATOM     28  C   UNL     1      -2.172  -6.494  -2.792  0.00  0.00    +0.055 A 
ATOM     29  C   UNL     1      -3.418  -7.021  -2.514  0.00  0.00    +0.121 A 
ATOM     30  C   UNL     1      -3.935  -6.958  -1.222  0.00  0.00    +0.047 A 
ATOM     31  C   UNL     1      -3.214  -6.372  -0.205  0.00  0.00    +0.030 A 
ATOM     32  C   UNL     1      -1.958  -5.835  -0.464  0.00  0.00    +0.049 A 
ATOM     33  N   UNL     1      -1.220  -5.244   0.541  0.00  0.00    -0.322 N 
ATOM     34  H   UNL     1      -1.584  -5.202   1.440  0.00  0.00    +0.169 HD
ATOM     35  C   UNL     1      -0.002  -4.730   0.295  0.00  0.00    +0.251 A 
ATOM     36  O   UNL     1       0.623  -4.220   1.209  0.00  0.00    -0.268 OA
BRANCH  29  37
ATOM     37  O   UNL     1      -4.143  -7.603  -3.506  0.00  0.00    -0.495 OA
ATOM     38  C   UNL     1      -5.423  -8.128  -3.150  0.00  0.00    +0.277 C 
ENDBRANCH  29  37
ENDBRANCH  24  25
ENDBRANCH   1  24
TORSDOF 10
