REMARK  Name = ZINC38729118
REMARK  6 active torsions:
REMARK  status: ('A' for Active; 'I' for Inactive)
REMARK    1  A    between atoms: C_11  and  C_13
REMARK    2  A    between atoms: C_19  and  C_21
REMARK    3  A    between atoms: N_23  and  C_24
REMARK    4  A    between atoms: C_24  and  C_25
REMARK    5  A    between atoms: C_25  and  N_26
REMARK    6  A    between atoms: C_30  and  N_33
REMARK                            x       y       z     vdW  Elec       q    Type
REMARK                         _______ _______ _______ _____ _____    ______ ____
ROOT
ATOM      1  C   UNL     1       5.516  -1.958   1.641  0.00  0.00    +0.091 C 
ATOM      2  C   UNL     1       6.361  -1.348   0.521  0.00  0.00    +0.040 C 
ATOM      3  C   UNL     1       7.137  -2.421  -0.185  0.00  0.00    -0.030 C 
ATOM      4  C   UNL     1       7.343  -3.604   0.298  0.00  0.00    -0.030 C 
ATOM      5  C   UNL     1       6.826  -4.071   1.627  0.00  0.00    +0.040 C 
ATOM      6  C   UNL     1       6.411  -2.871   2.488  0.00  0.00    +0.091 C 
ENDROOT
BRANCH   1  17
ATOM      7  C   UNL     1      -0.499  -2.332   4.723  0.00  0.00    +0.000 A 
ATOM      8  C   UNL     1       0.263  -1.206   4.972  0.00  0.00    +0.000 A 
ATOM      9  C   UNL     1       1.317  -0.895   4.138  0.00  0.00    +0.005 A 
ATOM     10  C   UNL     1       1.620  -1.706   3.053  0.00  0.00    -0.027 A 
ATOM     11  C   UNL     1       0.868  -2.833   2.809  0.00  0.00    -0.041 A 
ATOM     12  C   UNL     1      -0.198  -3.140   3.646  0.00  0.00    +0.004 A 
ATOM     13  C   UNL     1       1.155  -3.776   1.671  0.00  0.00    +0.054 C 
ATOM     14  C   UNL     1       1.995  -3.091   0.594  0.00  0.00    +0.113 C 
ATOM     15  N   UNL     1       3.111  -2.401   1.262  0.00  0.00    -0.297 N 
ATOM     16  C   UNL     1       2.776  -1.301   2.173  0.00  0.00    +0.143 C 
ATOM     17  C   UNL     1       4.391  -2.765   1.044  0.00  0.00    +0.220 C 
ATOM     18  O   UNL     1       4.637  -3.741   0.368  0.00  0.00    -0.275 OA
ENDBRANCH   1  17
BRANCH   6  19
ATOM     19  C   UNL     1       5.650  -3.345   3.699  0.00  0.00    +0.217 C 
ATOM     20  O   UNL     1       4.503  -2.991   3.872  0.00  0.00    -0.275 OA
ATOM     21  N   UNL     1       6.243  -4.163   4.590  0.00  0.00    -0.314 N 
ATOM     22  H   UNL     1       7.161  -4.447   4.453  0.00  0.00    +0.149 HD
BRANCH  21  23
ATOM     23  C   UNL     1       5.503  -4.625   5.768  0.00  0.00    +0.123 C 
BRANCH  23  24
ATOM     24  C   UNL     1       6.400  -5.534   6.610  0.00  0.00    +0.121 C 
BRANCH  24  25
ATOM     25  N   UNL     1       5.660  -5.995   7.787  0.00  0.00    -0.328 N 
ATOM     26  C   UNL     1       6.272  -6.839   8.707  0.00  0.00    +0.119 A 
ATOM     27  C   UNL     1       7.590  -7.238   8.506  0.00  0.00    +0.046 A 
ATOM     28  C   UNL     1       8.187  -8.077   9.428  0.00  0.00    +0.037 A 
ATOM     29  C   UNL     1       7.443  -8.492  10.526  0.00  0.00    +0.144 A 
ATOM     30  C   UNL     1       6.140  -8.057  10.662  0.00  0.00    +0.145 A 
ATOM     31  N   UNL     1       5.598  -7.252   9.768  0.00  0.00    -0.238 NA
ATOM     32  H   UNL     1       4.742  -5.712   7.925  0.00  0.00    +0.148 HD
BRANCH  29  33
ATOM     33  N   UNL     1       8.041  -9.390  11.538  0.00  0.00    +0.058 N 
ATOM     34  O   UNL     1       9.183  -9.768  11.412  0.00  0.00    -0.126 OA
ATOM     35  O   UNL     1       7.388  -9.748  12.491  0.00  0.00    -0.126 OA
ENDBRANCH  29  33
ENDBRANCH  24  25
ENDBRANCH  23  24
ENDBRANCH  21  23
ENDBRANCH   6  19
TORSDOF 6
