REMARK  Name = ZINC35345016
REMARK  3 active torsions:
REMARK  status: ('A' for Active; 'I' for Inactive)
REMARK    1  A    between atoms: C_9  and  S_11
REMARK    2  A    between atoms: S_11  and  C_12
REMARK    3  A    between atoms: C_17  and  N_18
REMARK                            x       y       z     vdW  Elec       q    Type
REMARK                         _______ _______ _______ _____ _____    ______ ____
ROOT
ATOM      1  C   UNL     1       5.593  -3.133  -0.030  0.00  0.00    +0.038 A 
ATOM      2  C   UNL     1       5.963  -1.795   0.075  0.00  0.00    +0.018 A 
ATOM      3  C   UNL     1       7.304  -1.458   0.095  0.00  0.00    +0.018 A 
ATOM      4  C   UNL     1       8.255  -2.447   0.011  0.00  0.00    +0.041 A 
ATOM      5  C   UNL     1       7.922  -3.815  -0.096  0.00  0.00    +0.100 A 
ATOM      6  C   UNL     1       6.544  -4.135  -0.109  0.00  0.00    +0.065 A 
ATOM      7  N   UNL     1       8.998  -4.625  -0.167  0.00  0.00    -0.246 NA
ATOM      8  C   UNL     1      10.215  -4.166  -0.137  0.00  0.00    +0.157 A 
ATOM      9  S   UNL     1      10.029  -2.499  -0.003  0.00  0.00    -0.075 S 
ENDROOT
BRANCH   6  10
ATOM     10  N   UNL     1       6.140  -5.472  -0.208  0.00  0.00    -0.355 N 
ATOM     11  H   UNL     1       5.196  -5.694  -0.221  0.00  0.00    +0.142 HD
ATOM     12  H   UNL     1       6.805  -6.176  -0.264  0.00  0.00    +0.142 HD
ENDBRANCH   6  10
BRANCH   1  13
ATOM     13  S   UNL     1       3.884  -3.558  -0.054  0.00  0.00    -0.050 S 
BRANCH  13  22
ATOM     14  C   UNL     1       2.161  -5.061  -5.914  0.00  0.00    +0.002 A 
ATOM     15  C   UNL     1       3.456  -4.664  -6.212  0.00  0.00    +0.002 A 
ATOM     16  C   UNL     1       4.298  -4.221  -5.216  0.00  0.00    +0.030 A 
ATOM     17  C   UNL     1       3.845  -4.170  -3.896  0.00  0.00    +0.090 A 
ATOM     18  C   UNL     1       2.532  -4.574  -3.599  0.00  0.00    +0.067 A 
ATOM     19  C   UNL     1       1.698  -5.018  -4.614  0.00  0.00    +0.028 A 
ATOM     20  N   UNL     1       2.379  -4.414  -2.232  0.00  0.00    -0.333 N 
ATOM     21  H   UNL     1       1.580  -4.608  -1.716  0.00  0.00    +0.168 HD
ATOM     22  C   UNL     1       3.562  -3.933  -1.745  0.00  0.00    +0.172 A 
ATOM     23  N   UNL     1       4.421  -3.791  -2.725  0.00  0.00    -0.222 NA
ENDBRANCH  13  22
ENDBRANCH   1  13
TORSDOF 3
