REMARK  Name = ZINC52860491
REMARK  3 active torsions:
REMARK  status: ('A' for Active; 'I' for Inactive)
REMARK    1  A    between atoms: N_9  and  C_11
REMARK    2  A    between atoms: C_16  and  C_17
REMARK    3  A    between atoms: N_18  and  O_19
REMARK                            x       y       z     vdW  Elec       q    Type
REMARK                         _______ _______ _______ _____ _____    ______ ____
ROOT
ATOM      1  C   UNL     1       4.543  -2.946   1.242  0.00  0.00    +0.041 A 
ATOM      2  C   UNL     1       5.738  -3.556   0.885  0.00  0.00    +0.025 A 
ATOM      3  C   UNL     1       6.639  -3.936   1.861  0.00  0.00    +0.022 A 
ATOM      4  C   UNL     1       6.358  -3.711   3.199  0.00  0.00    +0.042 A 
ATOM      5  C   UNL     1       5.175  -3.106   3.570  0.00  0.00    +0.033 A 
ATOM      6  C   UNL     1       4.258  -2.712   2.594  0.00  0.00    +0.040 A 
ATOM      7 CL   UNL     1       7.499  -4.195   4.415  0.00  0.00    -0.084 Cl
ENDROOT
BRANCH   1  16
ATOM      8  C   UNL     1      -0.021   0.698  -0.761  0.00  0.00    +0.000 A 
ATOM      9  C   UNL     1       1.153   1.368  -1.049  0.00  0.00    +0.000 A 
ATOM     10  C   UNL     1       2.361   0.712  -0.934  0.00  0.00    +0.005 A 
ATOM     11  C   UNL     1       2.407  -0.614  -0.527  0.00  0.00    -0.027 A 
ATOM     12  C   UNL     1       1.239  -1.281  -0.231  0.00  0.00    -0.041 A 
ATOM     13  C   UNL     1       0.023  -0.620  -0.356  0.00  0.00    +0.004 A 
ATOM     14  C   UNL     1       1.212  -2.709   0.244  0.00  0.00    +0.054 C 
ATOM     15  C   UNL     1       2.508  -3.430  -0.123  0.00  0.00    +0.110 C 
ATOM     16  N   UNL     1       3.634  -2.562   0.259  0.00  0.00    -0.325 N 
ATOM     17  C   UNL     1       3.759  -1.276  -0.436  0.00  0.00    +0.140 C 
ENDBRANCH   1  16
BRANCH   6  18
ATOM     18  C   UNL     1       2.992  -2.058   2.985  0.00  0.00    +0.164 C 
ATOM     19  N   UNL     1       2.178  -2.654   3.807  0.00  0.00    -0.071 NA
ATOM     20  N   UNL     1       2.671  -0.811   2.475  0.00  0.00    -0.340 N 
ATOM     21  H   UNL     1       3.278  -0.366   1.863  0.00  0.00    +0.144 HD
ATOM     22  H   UNL     1       1.840  -0.381   2.732  0.00  0.00    +0.144 HD
BRANCH  19  23
ATOM     23  O   UNL     1       2.467  -3.962   4.266  0.00  0.00    -0.408 OA
ATOM     24  H   UNL     1       1.845  -4.293   4.928  0.00  0.00    +0.328 HD
ENDBRANCH  19  23
ENDBRANCH   6  18
TORSDOF 3
