REMARK  Name = ZINC57000997
REMARK  7 active torsions:
REMARK  status: ('A' for Active; 'I' for Inactive)
REMARK    1  A    between atoms: C_1  and  C_2
REMARK    2  A    between atoms: C_2  and  N_3
REMARK    3  A    between atoms: C_6  and  C_9
REMARK    4  A    between atoms: C_9  and  N_10
REMARK    5  A    between atoms: C_11  and  C_13
REMARK    6  A    between atoms: C_13  and  N_14
REMARK    7  A    between atoms: N_23  and  C_26
REMARK                            x       y       z     vdW  Elec       q    Type
REMARK                         _______ _______ _______ _____ _____    ______ ____
ROOT
ATOM      1  N   UNL     1       3.346  -3.673  -4.220  0.00  0.00    -0.314 N 
ATOM      2  C   UNL     1       3.861  -4.343  -5.270  0.00  0.00    +0.231 C 
ATOM      3  O   UNL     1       4.261  -3.735  -6.241  0.00  0.00    -0.274 OA
ATOM      4  H   UNL     1       3.027  -4.159  -3.444  0.00  0.00    +0.149 HD
ENDROOT
BRANCH   1   5
ATOM      5  C   UNL     1       3.268  -2.210  -4.252  0.00  0.00    +0.107 C 
BRANCH   5   9
ATOM      6  N   UNL     1       0.595  -0.135  -1.639  0.00  0.00    +0.380 N 
ATOM      7  C   UNL     1       1.988   0.327  -1.656  0.00  0.00    -0.079 C 
ATOM      8  C   UNL     1       2.680  -0.173  -2.925  0.00  0.00    -0.014 C 
ATOM      9  C   UNL     1       2.649  -1.704  -2.947  0.00  0.00    +0.003 C 
ATOM     10  C   UNL     1       1.195  -2.176  -2.854  0.00  0.00    -0.014 C 
ATOM     11  C   UNL     1       0.558  -1.601  -1.587  0.00  0.00    -0.079 C 
ATOM     12  H   UNL     1       0.127   0.183  -2.474  0.00  0.00    -0.082 HD
BRANCH   6  14
ATOM     13  C   UNL     1      -0.158   1.937  -0.572  0.00  0.00    -0.017 C 
ATOM     14  C   UNL     1      -0.086   0.413  -0.458  0.00  0.00    -0.082 C 
ENDBRANCH   6  14
ENDBRANCH   5   9
ENDBRANCH   1   5
BRANCH   2  15
ATOM     15  C   UNL     1       3.942  -5.848  -5.238  0.00  0.00    +0.213 C 
BRANCH  15  16
ATOM     16  N   UNL     1       4.535  -6.332  -6.487  0.00  0.00    -0.215 N 
ATOM     17  C   UNL     1       3.827  -6.641  -7.592  0.00  0.00    +0.247 C 
ATOM     18  O   UNL     1       2.625  -6.575  -7.737  0.00  0.00    -0.273 OA
ATOM     19  C   UNL     1       4.847  -7.089  -8.613  0.00  0.00    +0.115 C 
ATOM     20  C   UNL     1       4.592  -8.535  -9.023  0.00  0.00    +0.035 C 
ATOM     21  C   UNL     1       5.654  -8.977 -10.033  0.00  0.00    +0.003 C 
ATOM     22  C   UNL     1       5.599  -8.065 -11.260  0.00  0.00    +0.000 C 
ATOM     23  C   UNL     1       5.880  -6.622 -10.837  0.00  0.00    +0.003 C 
ATOM     24  C   UNL     1       4.820  -6.170  -9.830  0.00  0.00    +0.035 C 
ATOM     25  N   UNL     1       6.131  -6.972  -7.910  0.00  0.00    -0.274 N 
ATOM     26  C   UNL     1       5.847  -6.517  -6.674  0.00  0.00    +0.312 C 
ATOM     27  O   UNL     1       6.689  -6.301  -5.824  0.00  0.00    -0.252 OA
ATOM     28  C   UNL     1       7.458  -7.284  -8.447  0.00  0.00    +0.134 C 
ENDBRANCH  15  16
ENDBRANCH   2  15
TORSDOF 5
