REMARK  Name = ZINC21523644
REMARK  9 active torsions:
REMARK  status: ('A' for Active; 'I' for Inactive)
REMARK    1  A    between atoms: C_1  and  C_2
REMARK    2  A    between atoms: C_2  and  N_3
REMARK    3  A    between atoms: N_3  and  C_4
REMARK    4  A    between atoms: N_3  and  C_6
REMARK    5  A    between atoms: C_4  and  C_5
REMARK    6  A    between atoms: C_9  and  C_12
REMARK    7  A    between atoms: C_15  and  C_32
REMARK    8  A    between atoms: C_26  and  C_31
REMARK    9  A    between atoms: C_28  and  C_30
REMARK                            x       y       z     vdW  Elec       q    Type
REMARK                         _______ _______ _______ _____ _____    ______ ____
ROOT
ATOM      1  C   UNL     1       2.494   1.931  -0.272  0.00  0.00    +0.112 C 
ATOM      2  C   UNL     1       3.377   2.329   0.870  0.00  0.00    +0.038 A 
ATOM      3  C   UNL     1       2.847   2.787   2.107  0.00  0.00    +0.100 A 
ATOM      4  N   UNL     1       3.843   3.065   2.910  0.00  0.00    -0.162 NA
ATOM      5  N   UNL     1       5.032   2.800   2.233  0.00  0.00    -0.183 N 
ATOM      6  C   UNL     1       4.721   2.340   0.969  0.00  0.00    +0.137 A 
ATOM      7  N   UNL     1       5.708   1.991   0.080  0.00  0.00    -0.269 N 
ATOM      8  C   UNL     1       5.732   1.588  -1.155  0.00  0.00    +0.228 C 
ATOM      9  O   UNL     1       6.841   1.480  -1.635  0.00  0.00    -0.275 OA
ATOM     10  C   UNL     1       4.623   1.240  -2.068  0.00  0.00    +0.166 C 
ATOM     11  S   UNL     1       3.195   2.316  -1.879  0.00  0.00    -0.138 S 
ATOM     12  C   UNL     1       6.317   2.970   2.745  0.00  0.00    +0.253 A 
ATOM     13  N   UNL     1       6.466   3.303   4.017  0.00  0.00    -0.216 NA
ATOM     14  C   UNL     1       7.672   3.468   4.536  0.00  0.00    +0.044 A 
ATOM     15  C   UNL     1       8.785   3.298   3.728  0.00  0.00    +0.046 A 
ATOM     16  C   UNL     1       8.591   2.955   2.398  0.00  0.00    +0.044 A 
ATOM     17  N   UNL     1       7.358   2.801   1.945  0.00  0.00    -0.216 NA
ATOM     18  C   UNL     1       9.771   2.760   1.481  0.00  0.00    +0.066 C 
ATOM     19  C   UNL     1       7.833   3.841   5.987  0.00  0.00    +0.066 C 
ATOM     20  H   UNL     1       6.764   2.027   0.387  0.00  0.00    +0.156 HD
ENDROOT
BRANCH   1  24
ATOM     21  C   UNL     1      -1.247   3.962   0.114  0.00  0.00    +0.030 A 
ATOM     22  C   UNL     1      -1.219   2.600  -0.159  0.00  0.00    +0.023 A 
ATOM     23  C   UNL     1      -0.008   1.946  -0.277  0.00  0.00    +0.007 A 
ATOM     24  C   UNL     1       1.175   2.647  -0.136  0.00  0.00    -0.030 A 
ATOM     25  C   UNL     1       1.151   4.004   0.131  0.00  0.00    +0.007 A 
ATOM     26  C   UNL     1      -0.056   4.663   0.256  0.00  0.00    +0.023 A 
BRANCH  21  27
ATOM     27  N   UNL     1      -2.469   4.625   0.241  0.00  0.00    -0.330 N 
BRANCH  27  29
ATOM     28  C   UNL     1      -4.289   3.353   1.266  0.00  0.00    +0.024 C 
ATOM     29  C   UNL     1      -3.720   3.915  -0.038  0.00  0.00    +0.102 C 
ENDBRANCH  27  29
BRANCH  27  30
ATOM     30  C   UNL     1      -2.501   6.031   0.652  0.00  0.00    +0.102 C 
ATOM     31  C   UNL     1      -2.434   6.926  -0.587  0.00  0.00    +0.024 C 
ENDBRANCH  27  30
ENDBRANCH  21  27
ENDBRANCH   1  24
BRANCH   3  32
ATOM     32  C   UNL     1       1.406   2.928   2.433  0.00  0.00    +0.002 A 
ATOM     33  C   UNL     1       0.913   4.138   2.916  0.00  0.00    +0.010 A 
ATOM     34  C   UNL     1      -0.429   4.264   3.212  0.00  0.00    +0.001 A 
ATOM     35  C   UNL     1      -1.282   3.189   3.042  0.00  0.00    +0.000 A 
ATOM     36  C   UNL     1      -0.797   1.984   2.567  0.00  0.00    +0.001 A 
ATOM     37  C   UNL     1       0.542   1.848   2.262  0.00  0.00    +0.010 A 
ENDBRANCH   3  32
TORSDOF 5
