REMARK  Name = ZINC08682351
REMARK  9 active torsions:
REMARK  status: ('A' for Active; 'I' for Inactive)
REMARK    1  A    between atoms: C_1  and  C_2
REMARK    2  A    between atoms: C_2  and  C_3
REMARK    3  A    between atoms: C_2  and  C_4
REMARK    4  A    between atoms: C_9  and  N_10
REMARK    5  A    between atoms: C_11  and  C_13
REMARK    6  A    between atoms: N_16  and  S_29
REMARK    7  A    between atoms: N_19  and  S_20
REMARK    8  A    between atoms: S_20  and  C_23
REMARK    9  A    between atoms: S_29  and  C_32
REMARK                            x       y       z     vdW  Elec       q    Type
REMARK                         _______ _______ _______ _____ _____    ______ ____
ROOT
ATOM      1  C   UNL     1      -0.823  -2.884  -4.436  0.00  0.00    +0.181 C 
ATOM      2  C   UNL     1       0.293  -3.581  -3.648  0.00  0.00    +0.139 C 
ATOM      3  N   UNL     1       1.093  -4.388  -4.581  0.00  0.00    -0.173 NA
ATOM      4  C   UNL     1       0.412  -5.387  -5.416  0.00  0.00    +0.126 C 
ATOM      5  C   UNL     1      -0.704  -4.690  -6.204  0.00  0.00    +0.127 C 
ATOM      6  N   UNL     1      -1.505  -3.881  -5.274  0.00  0.00    -0.162 NA
ENDROOT
BRANCH   1   8
ATOM      7  N   UNL     1      -2.329  -1.051  -3.733  0.00  0.00    -0.284 N 
ATOM      8  C   UNL     1      -1.810  -2.269  -3.478  0.00  0.00    +0.237 C 
ATOM      9  O   UNL     1      -2.139  -2.870  -2.476  0.00  0.00    -0.274 OA
ATOM     10  H   UNL     1      -2.116  -0.598  -4.564  0.00  0.00    +0.155 HD
BRANCH   7  16
ATOM     11  C   UNL     1      -4.030   0.577  -3.198  0.00  0.00    -0.024 A 
ATOM     12  C   UNL     1      -4.867   1.174  -2.275  0.00  0.00    +0.006 A 
ATOM     13  C   UNL     1      -4.847   0.764  -0.955  0.00  0.00    +0.000 A 
ATOM     14  C   UNL     1      -3.991  -0.245  -0.554  0.00  0.00    +0.002 A 
ATOM     15  C   UNL     1      -3.152  -0.847  -1.471  0.00  0.00    +0.023 A 
ATOM     16  C   UNL     1      -3.173  -0.440  -2.799  0.00  0.00    +0.037 A 
BRANCH  11  18
ATOM     17  C   UNL     1      -5.441   0.772  -5.228  0.00  0.00    +0.012 C 
ATOM     18  C   UNL     1      -4.053   1.024  -4.636  0.00  0.00    +0.015 C 
ATOM     19  C   UNL     1      -3.730   2.518  -4.711  0.00  0.00    +0.012 C 
ENDBRANCH  11  18
ENDBRANCH   7  16
ENDBRANCH   1   8
BRANCH   6  20
ATOM     20  S   UNL     1      -3.144  -4.092  -5.168  0.00  0.00    +0.062 S 
ATOM     21  O   UNL     1      -3.657  -2.953  -4.490  0.00  0.00    -0.153 OA
ATOM     22  O   UNL     1      -3.588  -4.473  -6.462  0.00  0.00    -0.153 OA
BRANCH  20  23
ATOM     23  C   UNL     1      -3.423  -5.474  -4.112  0.00  0.00    +0.106 A 
ATOM     24  C   UNL     1      -3.494  -6.748  -4.645  0.00  0.00    +0.028 A 
ATOM     25  C   UNL     1      -3.714  -7.833  -3.816  0.00  0.00    +0.002 A 
ATOM     26  C   UNL     1      -3.862  -7.644  -2.455  0.00  0.00    +0.000 A 
ATOM     27  C   UNL     1      -3.790  -6.370  -1.922  0.00  0.00    +0.002 A 
ATOM     28  C   UNL     1      -3.566  -5.286  -2.750  0.00  0.00    +0.028 A 
ENDBRANCH  20  23
ENDBRANCH   6  20
BRANCH   3  29
ATOM     29  S   UNL     1       2.731  -4.173  -4.689  0.00  0.00    +0.061 S 
ATOM     30  O   UNL     1       3.116  -4.631  -5.978  0.00  0.00    -0.153 OA
ATOM     31  O   UNL     1       2.999  -2.852  -4.238  0.00  0.00    -0.153 OA
BRANCH  29  32
ATOM     32  C   UNL     1       3.478  -5.264  -3.524  0.00  0.00    +0.105 A 
ATOM     33  C   UNL     1       3.709  -4.839  -2.229  0.00  0.00    +0.028 A 
ATOM     34  C   UNL     1       4.294  -5.694  -1.315  0.00  0.00    +0.002 A 
ATOM     35  C   UNL     1       4.648  -6.975  -1.695  0.00  0.00    +0.000 A 
ATOM     36  C   UNL     1       4.416  -7.401  -2.990  0.00  0.00    +0.002 A 
ATOM     37  C   UNL     1       3.827  -6.546  -3.903  0.00  0.00    +0.028 A 
ENDBRANCH  29  32
ENDBRANCH   3  29
TORSDOF 7
