REMARK  Name = ZINC67022193
REMARK  2 active torsions:
REMARK  status: ('A' for Active; 'I' for Inactive)
REMARK    1  A    between atoms: C_3  and  C_12
REMARK    2  A    between atoms: N_14  and  C_15
REMARK                            x       y       z     vdW  Elec       q    Type
REMARK                         _______ _______ _______ _____ _____    ______ ____
ROOT
ATOM      1  C   UNL     1       3.659   2.193  -0.166  0.00  0.00    +0.253 C 
ATOM      2  O   UNL     1       4.723   1.622  -0.310  0.00  0.00    -0.270 OA
ATOM      3  N   UNL     1       3.627   3.531  -0.014  0.00  0.00    -0.266 N 
ATOM      4  H   UNL     1       2.776   3.995   0.028  0.00  0.00    +0.157 HD
ENDROOT
BRANCH   1   7
ATOM      5  C   UNL     1       0.004   1.346   0.016  0.00  0.00    +0.003 A 
ATOM      6  C   UNL     1       1.176   2.071   0.008  0.00  0.00    +0.017 A 
ATOM      7  C   UNL     1       2.403   1.420  -0.157  0.00  0.00    +0.080 A 
ATOM      8  C   UNL     1       2.429   0.030  -0.315  0.00  0.00    +0.154 A 
ATOM      9  C   UNL     1       1.236  -0.689  -0.306  0.00  0.00    +0.076 A 
ATOM     10  C   UNL     1       0.030  -0.030  -0.141  0.00  0.00    +0.027 A 
ATOM     11  N   UNL     1       1.275  -2.082  -0.468  0.00  0.00    -0.280 N 
ATOM     12  C   UNL     1       2.452  -2.726  -0.313  0.00  0.00    +0.255 C 
ATOM     13  O   UNL     1       2.516  -3.926  -0.478  0.00  0.00    -0.272 OA
ATOM     14  C   UNL     1       3.686  -1.946   0.067  0.00  0.00    +0.325 C 
ATOM     15  O   UNL     1       3.606  -0.626  -0.477  0.00  0.00    -0.480 OA
ATOM     16  H   UNL     1       0.469  -2.575  -0.688  0.00  0.00    +0.155 HD
ENDBRANCH   1   7
BRANCH   3  17
ATOM     17  C   UNL     1       4.809   4.244   0.083  0.00  0.00    +0.130 A 
ATOM     18  C   UNL     1       5.082   5.256  -0.794  0.00  0.00    +0.063 A 
ATOM     19  C   UNL     1       6.282   5.961  -0.674  0.00  0.00    +0.116 A 
ATOM     20  N   UNL     1       7.141   5.654   0.272  0.00  0.00    -0.236 NA
ATOM     21  C   UNL     1       6.888   4.664   1.140  0.00  0.00    +0.157 A 
ATOM     22  N   UNL     1       5.720   3.951   1.062  0.00  0.00    -0.200 N 
ATOM     23  N   UNL     1       5.733   3.001   2.090  0.00  0.00    -0.172 NA
ATOM     24  C   UNL     1       6.849   3.127   2.769  0.00  0.00    +0.137 A 
ATOM     25  C   UNL     1       7.606   4.146   2.209  0.00  0.00    +0.069 A 
ENDBRANCH   3  17
TORSDOF 2
