REMARK  Name = ZINC54390312
REMARK  4 active torsions:
REMARK  status: ('A' for Active; 'I' for Inactive)
REMARK    1  A    between atoms: C_1  and  C_2
REMARK    2  A    between atoms: N_4  and  C_5
REMARK    3  A    between atoms: N_13  and  C_15
REMARK    4  A    between atoms: C_15  and  C_16
REMARK                            x       y       z     vdW  Elec       q    Type
REMARK                         _______ _______ _______ _____ _____    ______ ____
ROOT
ATOM      1  C   UNL     1       0.109  -2.065  -1.232  0.00  0.00    +0.037 A 
ATOM      2  C   UNL     1       0.118  -2.812  -0.062  0.00  0.00    +0.023 A 
ATOM      3  C   UNL     1       0.227  -4.187  -0.128  0.00  0.00    +0.002 A 
ATOM      4  C   UNL     1       0.328  -4.812  -1.355  0.00  0.00    +0.005 A 
ATOM      5  C   UNL     1       0.319  -4.070  -2.527  0.00  0.00    -0.028 A 
ATOM      6  C   UNL     1       0.202  -2.699  -2.468  0.00  0.00    -0.021 A 
ATOM      7  C   UNL     1       0.171  -1.853  -3.715  0.00  0.00    +0.052 C 
ATOM      8  C   UNL     1       0.691  -2.658  -4.906  0.00  0.00    +0.090 C 
ATOM      9  N   UNL     1      -0.018  -3.946  -4.944  0.00  0.00    -0.289 NA
ATOM     10  C   UNL     1       0.437  -4.802  -3.839  0.00  0.00    +0.120 C 
ENDROOT
BRANCH   1  14
ATOM     11  C   UNL     1       0.546   1.511  -0.140  0.00  0.00    +0.109 C 
ATOM     12  C   UNL     1       0.575   0.004  -0.154  0.00  0.00    +0.214 C 
ATOM     13  O   UNL     1       1.117  -0.600   0.747  0.00  0.00    -0.276 OA
ATOM     14  N   UNL     1       0.000  -0.672  -1.169  0.00  0.00    -0.285 N 
ATOM     15  H   UNL     1      -0.489  -0.192  -1.855  0.00  0.00    +0.155 HD
ENDBRANCH   1  14
BRANCH   9  16
ATOM     16  C   UNL     1       0.175  -4.615  -6.238  0.00  0.00    +0.181 C 
BRANCH  16  17
ATOM     17  C   UNL     1      -0.752  -5.799  -6.335  0.00  0.00    +0.237 C 
ATOM     18  O   UNL     1      -1.500  -6.060  -5.417  0.00  0.00    -0.274 OA
ATOM     19  N   UNL     1      -0.751  -6.567  -7.443  0.00  0.00    -0.223 N 
ATOM     20  C   UNL     1      -1.606  -7.742  -7.666  0.00  0.00    +0.136 C 
ATOM     21  C   UNL     1      -1.200  -8.234  -9.068  0.00  0.00    +0.125 C 
ATOM     22  N   UNL     1      -0.158  -7.284  -9.487  0.00  0.00    -0.297 N 
ATOM     23  C   UNL     1       0.027  -6.378  -8.517  0.00  0.00    +0.309 C 
ATOM     24  O   UNL     1       0.830  -5.470  -8.603  0.00  0.00    -0.252 OA
ATOM     25  H   UNL     1       0.316  -7.306 -10.332  0.00  0.00    +0.150 HD
ENDBRANCH  16  17
ENDBRANCH   9  16
TORSDOF 3
