REMARK  Name = ZINC31737524
REMARK  5 active torsions:
REMARK  status: ('A' for Active; 'I' for Inactive)
REMARK    1  A    between atoms: C_1  and  C_2
REMARK    2  A    between atoms: C_6  and  C_8
REMARK    3  A    between atoms: N_10  and  C_11
REMARK    4  A    between atoms: C_11  and  C_13
REMARK    5  A    between atoms: C_11  and  C_14
REMARK                            x       y       z     vdW  Elec       q    Type
REMARK                         _______ _______ _______ _____ _____    ______ ____
ROOT
ATOM      1  C   UNL     1       1.068   7.478   0.029  0.00  0.00    +0.100 C 
ATOM      2  C   UNL     1       0.949   7.979   1.469  0.00  0.00    +0.033 C 
ENDROOT
BRANCH   1   3
ATOM      3  C   UNL     1       2.343   8.000  -0.582  0.00  0.00    -0.025 A 
ATOM      4  C   UNL     1       3.546   7.379  -0.302  0.00  0.00    +0.009 A 
ATOM      5  C   UNL     1       4.721   7.852  -0.858  0.00  0.00    +0.048 A 
ATOM      6  C   UNL     1       4.692   8.952  -1.698  0.00  0.00    +0.142 A 
ATOM      7  C   UNL     1       3.479   9.578  -1.980  0.00  0.00    +0.076 A 
ATOM      8  C   UNL     1       2.305   9.096  -1.424  0.00  0.00    +0.032 A 
ATOM      9  N   UNL     1       3.464  10.692  -2.832  0.00  0.00    -0.280 N 
ATOM     10  C   UNL     1       4.545  10.941  -3.602  0.00  0.00    +0.255 C 
ATOM     11  O   UNL     1       4.566  11.915  -4.324  0.00  0.00    -0.272 OA
ATOM     12  C   UNL     1       5.724  10.003  -3.561  0.00  0.00    +0.325 C 
ATOM     13  O   UNL     1       5.836   9.429  -2.256  0.00  0.00    -0.481 OA
ATOM     14  H   UNL     1       2.580  11.347  -2.865  0.00  0.00    +0.155 HD
ENDBRANCH   1   3
BRANCH   1  17
ATOM     15  C   UNL     1      -0.070   5.323   0.029  0.00  0.00    +0.245 C 
ATOM     16  O   UNL     1      -1.131   5.916   0.042  0.00  0.00    -0.270 OA
ATOM     17  N   UNL     1       1.088   6.013   0.022  0.00  0.00    -0.305 N 
ATOM     18  H   UNL     1       2.048   5.476   0.010  0.00  0.00    +0.150 HD
BRANCH  15  24
ATOM     19  C   UNL     1      -2.514   0.972   0.019  0.00  0.00    +0.044 C 
ATOM     20  C   UNL     1      -1.222   1.748   0.017  0.00  0.00    -0.050 A 
ATOM     21  C   UNL     1      -0.013   1.076   0.008  0.00  0.00    +0.003 A 
ATOM     22  C   UNL     1       1.178   1.781   0.000  0.00  0.00    +0.001 A 
ATOM     23  C   UNL     1       1.166   3.160   0.007  0.00  0.00    +0.013 A 
ATOM     24  C   UNL     1      -0.050   3.845   0.022  0.00  0.00    +0.037 A 
ATOM     25  C   UNL     1      -1.248   3.127   0.030  0.00  0.00    +0.016 A 
ENDBRANCH  15  24
ENDBRANCH   1  17
TORSDOF 3
