REMARK  Name = ZINC46056191
REMARK  11 active torsions:
REMARK  status: ('A' for Active; 'I' for Inactive)
REMARK    1  A    between atoms: C_1  and  C_2
REMARK    2  A    between atoms: C_2  and  C_3
REMARK    3  A    between atoms: C_10  and  C_33
REMARK    4  A    between atoms: C_11  and  S_15
REMARK    5  A    between atoms: S_15  and  N_18
REMARK    6  A    between atoms: N_18  and  C_19
REMARK    7  A    between atoms: N_18  and  C_20
REMARK    8  A    between atoms: C_20  and  C_21
REMARK    9  A    between atoms: N_23  and  C_24
REMARK   10  A    between atoms: C_28  and  C_30
REMARK   11  A    between atoms: C_30  and  C_32
REMARK                            x       y       z     vdW  Elec       q    Type
REMARK                         _______ _______ _______ _____ _____    ______ ____
ROOT
ATOM      1  S   UNL     1      -1.358  -0.005  -6.614  0.00  0.00    +0.061 S 
ATOM      2  O   UNL     1      -2.140  -0.697  -7.579  0.00  0.00    -0.153 OA
ATOM      3  O   UNL     1      -1.580   1.361  -6.292  0.00  0.00    -0.153 OA
ENDROOT
BRANCH   1  11
ATOM      4  C   UNL     1       0.005  -4.468  -2.382  0.00  0.00    +0.259 C 
ATOM      5  C   UNL     1      -0.986  -4.068  -1.319  0.00  0.00    +0.258 C 
ATOM      6  O   UNL     1      -1.000  -4.645  -0.251  0.00  0.00    -0.271 OA
ATOM      7  N   UNL     1      -1.857  -3.066  -1.559  0.00  0.00    -0.280 N 
ATOM      8  C   UNL     1      -1.742  -2.330  -2.746  0.00  0.00    +0.076 A 
ATOM      9  C   UNL     1      -2.744  -1.454  -3.131  0.00  0.00    +0.032 A 
ATOM     10  C   UNL     1      -2.622  -0.744  -4.312  0.00  0.00    -0.022 A 
ATOM     11  C   UNL     1      -1.503  -0.907  -5.108  0.00  0.00    +0.112 A 
ATOM     12  C   UNL     1      -0.497  -1.776  -4.726  0.00  0.00    +0.076 A 
ATOM     13  C   UNL     1      -0.610  -2.485  -3.542  0.00  0.00    +0.145 A 
ATOM     14  O   UNL     1       0.386  -3.319  -3.141  0.00  0.00    -0.478 OA
ATOM     15  C   UNL     1      -3.710   0.209  -4.732  0.00  0.00    +0.046 C 
ATOM     16  H   UNL     1      -2.555  -2.858  -0.918  0.00  0.00    +0.155 HD
BRANCH   4  18
ATOM     17  C   UNL     1       0.408  -6.003  -4.312  0.00  0.00    +0.008 C 
ATOM     18  C   UNL     1      -0.635  -5.502  -3.311  0.00  0.00    +0.051 C 
ENDBRANCH   4  18
ENDBRANCH   1  11
BRANCH   1  19
ATOM     19  N   UNL     1       0.218  -0.125  -7.108  0.00  0.00    -0.171 NA
ATOM     20  C   UNL     1       0.651  -1.278  -7.902  0.00  0.00    +0.132 C 
BRANCH  19  21
ATOM     21  C   UNL     1       1.179   0.921  -6.750  0.00  0.00    +0.205 C 
BRANCH  21  22
ATOM     22  C   UNL     1       2.089   0.415  -5.661  0.00  0.00    +0.233 C 
ATOM     23  O   UNL     1       2.016  -0.739  -5.297  0.00  0.00    -0.274 OA
ATOM     24  N   UNL     1       2.985   1.246  -5.091  0.00  0.00    -0.284 N 
ATOM     25  H   UNL     1       2.993   2.187  -5.329  0.00  0.00    +0.155 HD
BRANCH  24  26
ATOM     26  C   UNL     1       3.903   0.752  -4.157  0.00  0.00    +0.034 A 
ATOM     27  C   UNL     1       4.414  -0.533  -4.299  0.00  0.00    +0.023 A 
ATOM     28  C   UNL     1       5.321  -1.027  -3.380  0.00  0.00    +0.002 A 
ATOM     29  C   UNL     1       5.726  -0.249  -2.315  0.00  0.00    +0.011 A 
ATOM     30  C   UNL     1       5.218   1.045  -2.163  0.00  0.00    +0.019 A 
ATOM     31  C   UNL     1       4.306   1.546  -3.096  0.00  0.00    +0.034 A 
BRANCH  30  32
ATOM     32  C   UNL     1       5.647   1.878  -1.028  0.00  0.00    +0.160 C 
ATOM     33  O   UNL     1       5.205   3.000  -0.899  0.00  0.00    -0.292 OA
ATOM     34  C   UNL     1       6.636   1.338  -0.027  0.00  0.00    +0.091 C 
ENDBRANCH  30  32
ENDBRANCH  24  26
ENDBRANCH  21  22
ENDBRANCH  19  21
ENDBRANCH   1  19
TORSDOF 7
