REMARK  Name = ZINC09857130
REMARK  8 active torsions:
REMARK  status: ('A' for Active; 'I' for Inactive)
REMARK    1  A    between atoms: C_1  and  C_2
REMARK    2  A    between atoms: C_2  and  N_3
REMARK    3  A    between atoms: N_14  and  N_15
REMARK    4  A    between atoms: C_16  and  C_18
REMARK    5  A    between atoms: C_21  and  C_24
REMARK    6  A    between atoms: C_24  and  C_25
REMARK    7  A    between atoms: C_24  and  C_26
REMARK    8  A    between atoms: C_24  and  C_27
REMARK                            x       y       z     vdW  Elec       q    Type
REMARK                         _______ _______ _______ _____ _____    ______ ____
ROOT
ATOM      1  N   UNL     1       0.688  -0.476  -1.203  0.00  0.00    -0.280 N 
ATOM      2  C   UNL     1      -0.021  -0.698  -2.335  0.00  0.00    +0.263 A 
ATOM      3  O   UNL     1      -1.223  -0.512  -2.373  0.00  0.00    -0.267 OA
ATOM      4  C   UNL     1       0.715  -1.171  -3.515  0.00  0.00    +0.065 A 
ATOM      5  C   UNL     1       0.077  -1.429  -4.728  0.00  0.00    +0.015 A 
ATOM      6  C   UNL     1       0.810  -1.867  -5.795  0.00  0.00    +0.001 A 
ATOM      7  C   UNL     1       2.182  -2.059  -5.684  0.00  0.00    +0.002 A 
ATOM      8  C   UNL     1       2.832  -1.815  -4.507  0.00  0.00    +0.028 A 
ATOM      9  C   UNL     1       2.111  -1.365  -3.398  0.00  0.00    +0.080 A 
ATOM     10  N   UNL     1       2.714  -1.111  -2.213  0.00  0.00    -0.214 NA
ATOM     11  C   UNL     1       2.036  -0.684  -1.177  0.00  0.00    +0.216 A 
ATOM     12  N   UNL     1       2.713  -0.440  -0.009  0.00  0.00    -0.234 N 
ATOM     13  H   UNL     1       2.232  -0.127   0.774  0.00  0.00    +0.173 HD
ENDROOT
BRANCH  12  14
ATOM     14  N   UNL     1       4.098  -0.642   0.054  0.00  0.00    -0.230 N 
ATOM     15  C   UNL     1       4.762  -0.402   1.202  0.00  0.00    +0.260 C 
ATOM     16  O   UNL     1       4.160  -0.010   2.182  0.00  0.00    -0.269 OA
ATOM     17  H   UNL     1       4.578  -0.954  -0.728  0.00  0.00    +0.173 HD
BRANCH  15  18
ATOM     18  C   UNL     1       6.224  -0.615   1.268  0.00  0.00    +0.038 A 
ATOM     19  C   UNL     1       6.919  -1.059   0.143  0.00  0.00    +0.013 A 
ATOM     20  C   UNL     1       8.283  -1.256   0.211  0.00  0.00    +0.005 A 
ATOM     21  C   UNL     1       8.961  -1.014   1.393  0.00  0.00    -0.042 A 
ATOM     22  C   UNL     1       8.278  -0.574   2.512  0.00  0.00    +0.005 A 
ATOM     23  C   UNL     1       6.915  -0.367   2.455  0.00  0.00    +0.013 A 
BRANCH  21  24
ATOM     24  C   UNL     1      10.451  -1.231   1.461  0.00  0.00    -0.013 C 
ATOM     25  C   UNL     1      11.145  -0.326   0.441  0.00  0.00    +0.015 C 
ATOM     26  C   UNL     1      10.952  -0.894   2.866  0.00  0.00    +0.015 C 
ATOM     27  C   UNL     1      10.768  -2.694   1.143  0.00  0.00    +0.015 C 
ENDBRANCH  21  24
ENDBRANCH  15  18
ENDBRANCH  12  14
BRANCH   1  29
ATOM     28  C   UNL     1      -0.019   1.526   0.010  0.00  0.00    +0.027 C 
ATOM     29  C   UNL     1       0.002  -0.004   0.002  0.00  0.00    +0.125 C 
ENDBRANCH   1  29
TORSDOF 4
