REMARK  Name = ZINC62725573
REMARK  5 active torsions:
REMARK  status: ('A' for Active; 'I' for Inactive)
REMARK    1  A    between atoms: C_1  and  C_2
REMARK    2  A    between atoms: C_3  and  N_20
REMARK    3  A    between atoms: C_7  and  S_8
REMARK    4  A    between atoms: S_8  and  C_9
REMARK    5  A    between atoms: N_13  and  C_14
REMARK                            x       y       z     vdW  Elec       q    Type
REMARK                         _______ _______ _______ _____ _____    ______ ____
ROOT
ATOM      1  S   UNL     1       0.025   0.164   2.732  0.00  0.00    -0.048 S 
ENDROOT
BRANCH   1   8
ATOM      2  C   UNL     1       2.697  -1.050   1.964  0.00  0.00    +0.047 C 
ATOM      3  C   UNL     1       1.582  -1.227   0.965  0.00  0.00    -0.016 A 
ATOM      4  C   UNL     1       1.811  -1.916  -0.218  0.00  0.00    +0.029 A 
ATOM      5  C   UNL     1       0.781  -2.078  -1.136  0.00  0.00    +0.023 A 
ATOM      6  C   UNL     1      -0.470  -1.554  -0.873  0.00  0.00    +0.003 A 
ATOM      7  C   UNL     1      -0.702  -0.867   0.303  0.00  0.00    +0.015 A 
ATOM      8  C   UNL     1       0.323  -0.706   1.229  0.00  0.00    +0.020 A 
BRANCH   4   9
ATOM      9  N   UNL     1       3.075  -2.446  -0.484  0.00  0.00    -0.358 N 
ATOM     10  H   UNL     1       3.794  -2.333   0.157  0.00  0.00    +0.142 HD
ATOM     11  H   UNL     1       3.235  -2.928  -1.311  0.00  0.00    +0.142 HD
ENDBRANCH   4   9
ENDBRANCH   1   8
BRANCH   1  12
ATOM     12  C   UNL     1      -0.095  -1.109   3.944  0.00  0.00    +0.219 A 
ATOM     13  N   UNL     1      -0.070  -2.406   3.724  0.00  0.00    -0.101 NA
ATOM     14  N   UNL     1      -0.180  -3.053   4.827  0.00  0.00    -0.022 NA
ATOM     15  N   UNL     1      -0.282  -2.239   5.821  0.00  0.00    -0.038 NA
ATOM     16  N   UNL     1      -0.226  -0.938   5.289  0.00  0.00    -0.187 N 
BRANCH  16  17
ATOM     17  C   UNL     1      -0.292   0.274   5.992  0.00  0.00    +0.070 A 
ATOM     18  C   UNL     1       0.440   1.371   5.558  0.00  0.00    +0.028 A 
ATOM     19  C   UNL     1       0.372   2.563   6.252  0.00  0.00    +0.002 A 
ATOM     20  C   UNL     1      -0.423   2.664   7.379  0.00  0.00    +0.000 A 
ATOM     21  C   UNL     1      -1.153   1.573   7.814  0.00  0.00    +0.002 A 
ATOM     22  C   UNL     1      -1.094   0.380   7.120  0.00  0.00    +0.028 A 
ENDBRANCH  16  17
ENDBRANCH   1  12
TORSDOF 4
