REMARK  Name = ZINC09402803
REMARK  8 active torsions:
REMARK  status: ('A' for Active; 'I' for Inactive)
REMARK    1  A    between atoms: C_1  and  C_2
REMARK    2  A    between atoms: C_2  and  C_33
REMARK    3  A    between atoms: C_4  and  N_9
REMARK    4  A    between atoms: C_6  and  C_7
REMARK    5  A    between atoms: C_6  and  C_8
REMARK    6  A    between atoms: C_10  and  C_11
REMARK    7  A    between atoms: N_20  and  C_23
REMARK    8  A    between atoms: C_23  and  C_24
REMARK                            x       y       z     vdW  Elec       q    Type
REMARK                         _______ _______ _______ _____ _____    ______ ____
ROOT
ATOM      1  C   UNL     1       6.155   4.485  -3.394  0.00  0.00    +0.147 C 
ATOM      2  C   UNL     1       6.383   3.609  -4.562  0.00  0.00    -0.018 A 
ATOM      3  C   UNL     1       6.852   4.108  -5.771  0.00  0.00    +0.005 A 
ATOM      4  C   UNL     1       7.048   3.248  -6.832  0.00  0.00    +0.000 A 
ATOM      5  C   UNL     1       6.782   1.893  -6.700  0.00  0.00    +0.001 A 
ATOM      6  C   UNL     1       6.316   1.379  -5.509  0.00  0.00    +0.013 A 
ATOM      7  C   UNL     1       6.111   2.232  -4.423  0.00  0.00    +0.042 A 
ATOM      8  C   UNL     1       5.622   1.725  -3.135  0.00  0.00    +0.253 C 
ATOM      9  O   UNL     1       5.390   0.537  -3.008  0.00  0.00    -0.270 OA
ATOM     10  N   UNL     1       5.421   2.551  -2.095  0.00  0.00    -0.233 N 
ATOM     11  C   UNL     1       5.659   3.871  -2.157  0.00  0.00    +0.235 C 
ATOM     12  O   UNL     1       5.461   4.566  -1.177  0.00  0.00    -0.274 OA
ENDROOT
BRANCH   1  14
ATOM     13  N   UNL     1       7.330   6.316  -4.333  0.00  0.00    -0.292 NA
ATOM     14  C   UNL     1       6.401   5.839  -3.465  0.00  0.00    +0.095 C 
BRANCH  13  18
ATOM     15  C   UNL     1       9.190  10.252  -3.862  0.00  0.00    -0.010 C 
ATOM     16  C   UNL     1       9.079   9.562  -5.224  0.00  0.00    -0.071 C 
ATOM     17  C   UNL     1       8.899   8.057  -5.027  0.00  0.00    +0.014 C 
ATOM     18  C   UNL     1       7.484   7.764  -4.521  0.00  0.00    +0.102 C 
ATOM     19  C   UNL     1       6.488   8.244  -5.577  0.00  0.00    +0.014 C 
ATOM     20  C   UNL     1       6.646   9.742  -5.819  0.00  0.00    -0.071 C 
ATOM     21  C   UNL     1       6.013  10.519  -4.659  0.00  0.00    -0.010 C 
ATOM     22  C   UNL     1       5.845  10.093  -7.093  0.00  0.00    -0.010 C 
ATOM     23  C   UNL     1      10.419   9.777  -5.960  0.00  0.00    -0.010 C 
ATOM     24  N   UNL     1       8.039  10.194  -6.081  0.00  0.00    +0.386 N 
ATOM     25  H   UNL     1       8.263   9.984  -7.061  0.00  0.00    -0.084 HD
ATOM     26  H   UNL     1       8.078  11.209  -5.932  0.00  0.00    -0.084 HD
ENDBRANCH  13  18
ENDBRANCH   1  14
BRANCH  10  27
ATOM     27  C   UNL     1       4.926   1.987  -0.837  0.00  0.00    +0.152 C 
BRANCH  27  28
ATOM     28  C   UNL     1       3.419   2.014  -0.833  0.00  0.00    -0.026 A 
ATOM     29  C   UNL     1       2.751   3.117  -0.334  0.00  0.00    +0.009 A 
ATOM     30  C   UNL     1       1.369   3.147  -0.327  0.00  0.00    +0.050 A 
ATOM     31  C   UNL     1       0.650   2.071  -0.822  0.00  0.00    +0.166 A 
ATOM     32  C   UNL     1       1.323   0.960  -1.325  0.00  0.00    +0.167 A 
ATOM     33  C   UNL     1       2.708   0.937  -1.328  0.00  0.00    +0.054 A 
ATOM     34  O   UNL     1       0.402   0.045  -1.746  0.00  0.00    -0.453 OA
ATOM     35  C   UNL     1      -0.838   0.433  -1.123  0.00  0.00    +0.466 C 
ATOM     36  O   UNL     1      -0.693   1.852  -0.928  0.00  0.00    -0.453 OA
ENDBRANCH  27  28
ENDBRANCH  10  27
TORSDOF 4
