REMARK  Name = ZINC20405777
REMARK  10 active torsions:
REMARK  status: ('A' for Active; 'I' for Inactive)
REMARK    1  A    between atoms: C_1  and  C_2
REMARK    2  A    between atoms: C_2  and  C_29
REMARK    3  A    between atoms: C_6  and  C_10
REMARK    4  A    between atoms: C_10  and  C_12
REMARK    5  A    between atoms: C_10  and  C_18
REMARK    6  A    between atoms: C_18  and  C_20
REMARK    7  A    between atoms: C_18  and  C_22
REMARK    8  A    between atoms: C_22  and  N_28
REMARK    9  A    between atoms: C_23  and  C_24
REMARK   10  A    between atoms: C_23  and  C_26
REMARK                            x       y       z     vdW  Elec       q    Type
REMARK                         _______ _______ _______ _____ _____    ______ ____
ROOT
ATOM      1  C   UNL     1      -0.073   1.781  -0.117  0.00  0.00    +0.066 C 
ENDROOT
BRANCH   1   7
ATOM      2  C   UNL     1      -3.089   3.504   4.377  0.00  0.00    +0.104 C 
ATOM      3  C   UNL     1      -2.224   2.747   3.366  0.00  0.00    +0.254 C 
ATOM      4  O   UNL     1      -2.963   2.548   2.155  0.00  0.00    -0.422 OA
ATOM      5  C   UNL     1      -2.259   2.056   1.105  0.00  0.00    +0.325 C 
ATOM      6  O   UNL     1      -2.815   1.404   0.237  0.00  0.00    -0.250 OA
ATOM      7  C   UNL     1      -0.889   2.308   1.034  0.00  0.00    +0.215 C 
ATOM      8  C   UNL     1      -0.285   3.050   2.049  0.00  0.00    +0.325 C 
ATOM      9  O   UNL     1       0.912   3.280   2.020  0.00  0.00    -0.250 OA
ATOM     10  O   UNL     1      -1.052   3.515   3.066  0.00  0.00    -0.422 OA
ATOM     11  C   UNL     1      -1.819   1.392   3.950  0.00  0.00    +0.104 C 
ENDBRANCH   1   7
BRANCH   1  12
ATOM     12  C   UNL     1      -0.276   0.292  -0.237  0.00  0.00    -0.041 A 
ATOM     13  C   UNL     1       0.064  -0.538   0.815  0.00  0.00    +0.004 A 
ATOM     14  C   UNL     1      -0.126  -1.903   0.706  0.00  0.00    +0.000 A 
ATOM     15  C   UNL     1      -0.647  -2.439  -0.457  0.00  0.00    +0.000 A 
ATOM     16  C   UNL     1      -0.982  -1.609  -1.510  0.00  0.00    +0.000 A 
ATOM     17  C   UNL     1      -0.796  -0.243  -1.401  0.00  0.00    +0.004 A 
ENDBRANCH   1  12
BRANCH   1  18
ATOM     18  C   UNL     1       1.408   2.076   0.130  0.00  0.00    +0.146 C 
BRANCH  18  19
ATOM     19  C   UNL     1       1.868   1.324   1.309  0.00  0.00    +0.073 C 
ATOM     20  N   UNL     1       2.222   0.745   2.219  0.00  0.00    -0.196 NA
ENDBRANCH  18  19
BRANCH  18  21
ATOM     21  C   UNL     1       2.211   1.659  -1.075  0.00  0.00    +0.047 C 
ATOM     22  C   UNL     1       2.841   2.611  -1.846  0.00  0.00    +0.146 C 
BRANCH  21  23
ATOM     23  N   UNL     1       2.314   0.344  -1.402  0.00  0.00    -0.359 N 
ATOM     24  H   UNL     1       2.900   0.040  -2.282  0.00  0.00    +0.142 HD
ATOM     25  H   UNL     1       1.811  -0.417  -0.787  0.00  0.00    +0.142 HD
ENDBRANCH  21  23
BRANCH  22  26
ATOM     26  C   UNL     1       2.643   4.002  -1.568  0.00  0.00    +0.112 C 
ATOM     27  N   UNL     1       2.486   5.106  -1.348  0.00  0.00    -0.190 NA
ENDBRANCH  22  26
BRANCH  22  28
ATOM     28  C   UNL     1       3.694   2.211  -2.924  0.00  0.00    +0.112 C 
ATOM     29  N   UNL     1       4.370   1.893  -3.779  0.00  0.00    -0.190 NA
ENDBRANCH  22  28
ENDBRANCH  18  21
ENDBRANCH   1  18
TORSDOF 8
