REMARK  Name = ZINC64900905
REMARK  6 active torsions:
REMARK  status: ('A' for Active; 'I' for Inactive)
REMARK    1  A    between atoms: C_1  and  C_2
REMARK    2  A    between atoms: C_4  and  C_23
REMARK    3  A    between atoms: N_5  and  C_7
REMARK    4  A    between atoms: C_10  and  C_13
REMARK    5  A    between atoms: N_15  and  N_16
REMARK    6  A    between atoms: N_19  and  C_20
REMARK                            x       y       z     vdW  Elec       q    Type
REMARK                         _______ _______ _______ _____ _____    ______ ____
ROOT
ATOM      1  C   UNL     1       0.158  -3.450   1.099  0.00  0.00    +0.066 A 
ATOM      2  C   UNL     1      -0.457  -4.557   0.523  0.00  0.00    +0.028 A 
ATOM      3  C   UNL     1      -0.383  -5.786   1.140  0.00  0.00    +0.015 A 
ATOM      4  C   UNL     1       0.310  -5.921   2.346  0.00  0.00    +0.038 A 
ATOM      5  C   UNL     1       0.926  -4.807   2.921  0.00  0.00    +0.015 A 
ATOM      6  C   UNL     1       0.854  -3.582   2.296  0.00  0.00    +0.028 A 
ENDROOT
BRANCH   1  11
ATOM      7  C   UNL     1       1.469   0.989  -0.674  0.00  0.00    +0.069 C 
ATOM      8  C   UNL     1       0.673  -0.239  -0.311  0.00  0.00    +0.079 A 
ATOM      9  C   UNL     1      -0.679  -0.455  -0.604  0.00  0.00    +0.085 A 
ATOM     10  C   UNL     1      -1.023  -1.669  -0.115  0.00  0.00    +0.060 A 
ATOM     11  N   UNL     1       0.082  -2.204   0.470  0.00  0.00    -0.235 N 
ATOM     12  N   UNL     1       1.130  -1.286   0.326  0.00  0.00    -0.170 NA
ATOM     13  C   UNL     1      -2.383  -2.311  -0.202  0.00  0.00    +0.067 C 
ATOM     14 CL   UNL     1      -1.729   0.642  -1.446  0.00  0.00    -0.080 Cl
ENDBRANCH   1  11
BRANCH   4  15
ATOM     15  C   UNL     1       0.391  -7.237   3.010  0.00  0.00    +0.260 C 
ATOM     16  O   UNL     1      -0.147  -8.205   2.508  0.00  0.00    -0.269 OA
ATOM     17  N   UNL     1       1.060  -7.365   4.173  0.00  0.00    -0.229 N 
ATOM     18  H   UNL     1       1.488  -6.592   4.574  0.00  0.00    +0.173 HD
BRANCH  17  19
ATOM     19  N   UNL     1       1.136  -8.613   4.804  0.00  0.00    -0.218 N 
ATOM     20  C   UNL     1       1.805  -8.741   5.967  0.00  0.00    +0.316 C 
ATOM     21  O   UNL     1       1.872  -9.825   6.514  0.00  0.00    -0.251 OA
ATOM     22  N   UNL     1       2.401  -7.668   6.523  0.00  0.00    -0.295 N 
ATOM     23  H   UNL     1       0.708  -9.386   4.403  0.00  0.00    +0.174 HD
ATOM     24  H   UNL     1       2.348  -6.803   6.086  0.00  0.00    +0.151 HD
BRANCH  22  25
ATOM     25  C   UNL     1       3.128  -7.807   7.787  0.00  0.00    +0.075 C 
ATOM     26  C   UNL     1       2.913  -6.726   8.848  0.00  0.00    +0.024 C 
ATOM     27  C   UNL     1       4.235  -6.792   8.081  0.00  0.00    +0.024 C 
ENDBRANCH  22  25
ENDBRANCH  17  19
ENDBRANCH   4  15
TORSDOF 4
