REMARK  Name = ZINC63526731
REMARK  8 active torsions:
REMARK  status: ('A' for Active; 'I' for Inactive)
REMARK    1  A    between atoms: C_1  and  C_2
REMARK    2  A    between atoms: C_2  and  C_23
REMARK    3  A    between atoms: C_4  and  N_11
REMARK    4  A    between atoms: C_6  and  C_9
REMARK    5  A    between atoms: C_6  and  C_10
REMARK    6  A    between atoms: N_7  and  C_8
REMARK    7  A    between atoms: C_12  and  C_14
REMARK    8  A    between atoms: CA_16  and  C_20
REMARK                            x       y       z     vdW  Elec       q    Type
REMARK                         _______ _______ _______ _____ _____    ______ ____
ROOT
ATOM      1  C   UNL     1      -0.019   1.528   0.010  0.00  0.00    -0.010 C 
ATOM      2  C   UNL     1       0.002  -0.004   0.002  0.00  0.00    -0.069 C 
ATOM      3  C   UNL     1       0.571  -0.507  -1.320  0.00  0.00    +0.010 C 
ATOM      4  C   UNL     1       2.085  -0.300  -1.362  0.00  0.00    +0.070 C 
ATOM      5  C   UNL     1       2.704  -1.079  -0.201  0.00  0.00    +0.010 C 
ATOM      6  C   UNL     1       2.150  -0.581   1.129  0.00  0.00    -0.069 C 
ATOM      7  N   UNL     1       0.697  -0.531   1.165  0.00  0.00    +0.385 N 
ATOM      8  C   UNL     1       0.278   0.238   2.357  0.00  0.00    -0.095 C 
ATOM      9  C   UNL     1       2.764   0.779   1.472  0.00  0.00    -0.010 C 
ATOM     10  C   UNL     1       2.610  -1.575   2.221  0.00  0.00    -0.010 C 
ATOM     11  C   UNL     1      -1.468  -0.478   0.081  0.00  0.00    -0.010 C 
ATOM     12  H   UNL     1       0.360  -1.492   1.315  0.00  0.00    -0.081 HD
ENDROOT
BRANCH   4  13
ATOM     13  N   UNL     1       2.611  -0.821  -2.630  0.00  0.00    -0.310 N 
ATOM     14  C   UNL     1       3.763  -0.336  -3.132  0.00  0.00    +0.244 C 
ATOM     15  O   UNL     1       4.367   0.531  -2.537  0.00  0.00    -0.273 OA
ATOM     16  H   UNL     1       2.128  -1.515  -3.106  0.00  0.00    +0.149 HD
BRANCH  14  17
ATOM     17  C   UNL     1       4.302  -0.871  -4.434  0.00  0.00    +0.248 C 
ATOM     18  CA  UNL     1       5.066  -2.162  -4.207  0.00  0.00    +0.164 C 
ATOM     19  N   UNL     1       6.284  -1.913  -4.592  0.00  0.00    -0.231 NA
ATOM     20  C   UNL     1       6.425  -0.647  -5.038  0.00  0.00    +0.217 C 
ATOM     21  N   UNL     1       5.325   0.035  -4.986  0.00  0.00    -0.253 NA
BRANCH  18  22
ATOM     22  C   UNL     1       4.539  -3.433  -3.663  0.00  0.00    +0.403 C 
ATOM     23  O   UNL     1       5.280  -4.397  -3.535  0.00  0.00    -0.239 OA
ATOM     24  OXT UNL     1       3.363  -3.519  -3.340  0.00  0.00    -0.239 OA
ENDBRANCH  18  22
ENDBRANCH  14  17
ENDBRANCH   4  13
TORSDOF 3
