REMARK  Name = ZINC02882945
REMARK  8 active torsions:
REMARK  status: ('A' for Active; 'I' for Inactive)
REMARK    1  A    between atoms: C_1  and  C_2
REMARK    2  A    between atoms: C_2  and  C_3
REMARK    3  A    between atoms: C_9  and  C_11
REMARK    4  A    between atoms: C_11  and  S_12
REMARK    5  A    between atoms: S_12  and  C_13
REMARK    6  A    between atoms: C_16  and  C_19
REMARK    7  A    between atoms: N_17  and  C_18
REMARK    8  A    between atoms: C_24  and  O_25
REMARK                            x       y       z     vdW  Elec       q    Type
REMARK                         _______ _______ _______ _____ _____    ______ ____
ROOT
ATOM      1  C   UNL     1      -0.001  -0.016   0.160  0.00  0.00    +0.192 A 
ATOM      2  N   UNL     1       1.066  -0.782   0.130  0.00  0.00    -0.122 NA
ATOM      3  N   UNL     1       0.726  -2.005  -0.073  0.00  0.00    -0.128 NA
ATOM      4  C   UNL     1      -0.578  -2.093  -0.196  0.00  0.00    +0.168 A 
ATOM      5  N   UNL     1      -1.084  -0.822  -0.050  0.00  0.00    -0.305 N 
ATOM      6  C   UNL     1      -2.490  -0.417  -0.108  0.00  0.00    +0.153 C 
ENDROOT
BRANCH   4   7
ATOM      7  C   UNL     1      -1.356  -3.325  -0.443  0.00  0.00    +0.062 A 
ATOM      8  C   UNL     1      -2.353  -3.341  -1.419  0.00  0.00    +0.030 A 
ATOM      9  C   UNL     1      -3.072  -4.497  -1.648  0.00  0.00    +0.019 A 
ATOM     10  C   UNL     1      -2.816  -5.637  -0.905  0.00  0.00    +0.019 A 
ATOM     11  C   UNL     1      -1.834  -5.630   0.068  0.00  0.00    +0.047 A 
ATOM     12  C   UNL     1      -1.100  -4.480   0.306  0.00  0.00    +0.128 A 
ATOM     13 BR   UNL     1      -4.418  -4.520  -2.976  0.00  0.00    -0.050 Br
BRANCH  12  14
ATOM     14  O   UNL     1      -0.135  -4.473   1.262  0.00  0.00    -0.506 OA
ATOM     15  H   UNL     1      -0.452  -4.215   2.139  0.00  0.00    +0.292 HD
ENDBRANCH  12  14
ENDBRANCH   4   7
BRANCH   1  16
ATOM     16  S   UNL     1      -0.029   1.727   0.414  0.00  0.00    -0.077 S 
BRANCH  16  17
ATOM     17  C   UNL     1       1.743   2.045   0.610  0.00  0.00    +0.173 C 
BRANCH  17  24
ATOM     18  C   UNL     1       4.168   7.835   1.667  0.00  0.00    +0.103 A 
ATOM     19  N   UNL     1       2.896   7.526   1.516  0.00  0.00    -0.145 NA
ATOM     20  N   UNL     1       2.544   6.331   1.310  0.00  0.00    -0.126 NA
ATOM     21  C   UNL     1       3.423   5.346   1.238  0.00  0.00    +0.188 A 
ATOM     22  S   UNL     1       4.907   6.214   1.498  0.00  0.00    -0.035 S 
ATOM     23  N   UNL     1       3.216   3.989   1.020  0.00  0.00    -0.263 N 
ATOM     24  C   UNL     1       1.966   3.516   0.846  0.00  0.00    +0.229 C 
ATOM     25  O   UNL     1       1.021   4.276   0.878  0.00  0.00    -0.275 OA
ATOM     26  H   UNL     1       3.972   3.381   0.994  0.00  0.00    +0.157 HD
BRANCH  18  28
ATOM     27  C   UNL     1       4.917   9.415   3.426  0.00  0.00    +0.011 C 
ATOM     28  C   UNL     1       4.816   9.172   1.919  0.00  0.00    +0.061 C 
ENDBRANCH  18  28
ENDBRANCH  17  24
ENDBRANCH  16  17
ENDBRANCH   1  16
TORSDOF 6
