REMARK  Name = ZINC63138910
REMARK  10 active torsions:
REMARK  status: ('A' for Active; 'I' for Inactive)
REMARK    1  A    between atoms: C_1  and  C_2
REMARK    2  A    between atoms: C_2  and  C_3
REMARK    3  A    between atoms: C_3  and  C_4
REMARK    4  A    between atoms: C_4  and  O_5
REMARK    5  A    between atoms: O_5  and  C_6
REMARK    6  A    between atoms: C_6  and  C_7
REMARK    7  A    between atoms: C_7  and  C_8
REMARK    8  A    between atoms: C_8  and  N_9
REMARK    9  A    between atoms: C_29  and  C_31
REMARK   10  A    between atoms: C_35  and  N_37
REMARK                            x       y       z     vdW  Elec       q    Type
REMARK                         _______ _______ _______ _____ _____    ______ ____
ROOT
ATOM      1  N   UNL     1      -5.830  -6.322   0.024  0.00  0.00    -0.291 N 
ATOM      2  C   UNL     1      -6.564  -6.533   1.285  0.00  0.00    +0.203 C 
ATOM      3  C   UNL     1      -7.907  -5.841   1.180  0.00  0.00    +0.234 C 
ATOM      4  O   UNL     1      -8.351  -5.177   2.093  0.00  0.00    -0.274 OA
ATOM      5  N   UNL     1      -8.598  -5.999   0.003  0.00  0.00    -0.279 N 
ATOM      6  C   UNL     1      -7.982  -6.882  -0.965  0.00  0.00    +0.167 C 
ATOM      7  C   UNL     1      -6.531  -6.510  -1.133  0.00  0.00    +0.237 C 
ATOM      8  O   UNL     1      -6.018  -6.389  -2.226  0.00  0.00    -0.274 OA
ATOM      9  C   UNL     1      -8.677  -7.091  -2.285  0.00  0.00    +0.065 C 
ATOM     10  C   UNL     1      -9.818  -6.121  -2.422  0.00  0.00    -0.034 C 
ATOM     11  C   UNL     1     -10.258  -5.404  -3.447  0.00  0.00    -0.001 A 
ATOM     12  C   UNL     1      -9.818  -5.326  -4.850  0.00  0.00    +0.010 A 
ATOM     13  C   UNL     1     -10.500  -4.461  -5.646  0.00  0.00    +0.001 A 
ATOM     14  C   UNL     1     -11.564  -3.675  -5.193  0.00  0.00    +0.002 A 
ATOM     15  C   UNL     1     -12.038  -3.686  -3.922  0.00  0.00    +0.026 A 
ATOM     16  C   UNL     1     -11.403  -4.559  -2.991  0.00  0.00    +0.043 A 
ATOM     17  N   UNL     1     -11.655  -4.775  -1.735  0.00  0.00    -0.375 N 
ATOM     18  C   UNL     1     -10.726  -5.798  -1.238  0.00  0.00    +0.131 C 
ATOM     19  C   UNL     1      -9.825  -5.232  -0.150  0.00  0.00    +0.133 C 
ATOM     20  H   UNL     1     -12.342  -4.333  -1.213  0.00  0.00    +0.160 HD
ENDROOT
BRANCH  19  21
ATOM     21  C   UNL     1     -10.556  -5.207   1.167  0.00  0.00    -0.023 A 
ATOM     22  C   UNL     1     -10.598  -6.341   1.956  0.00  0.00    +0.005 A 
ATOM     23  C   UNL     1     -11.268  -6.318   3.165  0.00  0.00    +0.003 A 
ATOM     24  C   UNL     1     -11.897  -5.161   3.585  0.00  0.00    +0.033 A 
ATOM     25  C   UNL     1     -11.854  -4.026   2.796  0.00  0.00    +0.127 A 
ATOM     26  C   UNL     1     -11.180  -4.048   1.589  0.00  0.00    +0.038 A 
BRANCH  25  27
ATOM     27  N   UNL     1     -12.528  -2.787   3.246  0.00  0.00    +0.056 N 
ATOM     28  O   UNL     1     -13.115  -2.767   4.302  0.00  0.00    -0.126 OA
ATOM     29  O   UNL     1     -12.490  -1.795   2.556  0.00  0.00    -0.126 OA
ENDBRANCH  25  27
ENDBRANCH  19  21
BRANCH   1  30
ATOM     30  C   UNL     1      -4.420  -5.925   0.012  0.00  0.00    +0.110 C 
BRANCH  30  31
ATOM     31  C   UNL     1      -4.319  -4.399   0.020  0.00  0.00    +0.047 C 
BRANCH  31  32
ATOM     32  C   UNL     1      -2.847  -3.984   0.008  0.00  0.00    +0.161 C 
BRANCH  32  33
ATOM     33  O   UNL     1      -2.753  -2.558   0.015  0.00  0.00    -0.380 OA
BRANCH  33  34
ATOM     34  C   UNL     1      -1.413  -2.063   0.004  0.00  0.00    +0.160 C 
BRANCH  34  35
ATOM     35  C   UNL     1      -1.433  -0.534   0.013  0.00  0.00    +0.028 C 
BRANCH  35  37
ATOM     36  C   UNL     1      -0.019   1.526   0.010  0.00  0.00    +0.004 C 
ATOM     37  C   UNL     1       0.002  -0.004   0.002  0.00  0.00    -0.001 C 
ENDBRANCH  35  37
ENDBRANCH  34  35
ENDBRANCH  33  34
ENDBRANCH  32  33
ENDBRANCH  31  32
ENDBRANCH  30  31
ENDBRANCH   1  30
TORSDOF 9
