REMARK  Name = ZINC63867172
REMARK  7 active torsions:
REMARK  status: ('A' for Active; 'I' for Inactive)
REMARK    1  A    between atoms: C_1  and  O_2
REMARK    2  A    between atoms: O_2  and  C_3
REMARK    3  A    between atoms: C_6  and  N_9
REMARK    4  A    between atoms: C_13  and  N_17
REMARK    5  A    between atoms: N_17  and  C_18
REMARK    6  A    between atoms: C_18  and  C_19
REMARK    7  A    between atoms: C_19  and  C_20
REMARK                            x       y       z     vdW  Elec       q    Type
REMARK                         _______ _______ _______ _____ _____    ______ ____
ROOT
ATOM      1  N   UNL     1      -6.875  -4.959  -1.263  0.00  0.00    +0.387 N 
ATOM      2  H   UNL     1      -7.881  -5.040  -1.294  0.00  0.00    -0.085 HD
ATOM      3  H   UNL     1      -6.557  -4.421  -2.054  0.00  0.00    -0.085 HD
ENDROOT
BRANCH   1   8
ATOM      4  N   UNL     1      -4.892  -2.582   0.034  0.00  0.00    -0.212 N 
ATOM      5  C   UNL     1      -6.055  -1.927   0.136  0.00  0.00    +0.225 C 
ATOM      6  O   UNL     1      -6.178  -0.725   0.231  0.00  0.00    -0.275 OA
ATOM      7  C   UNL     1      -7.192  -2.925   0.114  0.00  0.00    +0.090 C 
ATOM      8  C   UNL     1      -6.476  -4.285  -0.020  0.00  0.00    +0.026 C 
ATOM      9  C   UNL     1      -5.011  -3.912  -0.065  0.00  0.00    +0.213 C 
ATOM     10  O   UNL     1      -4.090  -4.693  -0.172  0.00  0.00    -0.277 OA
BRANCH   4  14
ATOM     11  C   UNL     1      -1.201  -0.637   0.009  0.00  0.00    +0.120 A 
ATOM     12  C   UNL     1      -1.652  -1.283  -1.133  0.00  0.00    +0.047 A 
ATOM     13  C   UNL     1      -2.874  -1.927  -1.125  0.00  0.00    +0.027 A 
ATOM     14  C   UNL     1      -3.650  -1.928   0.026  0.00  0.00    +0.044 A 
ATOM     15  C   UNL     1      -3.198  -1.282   1.168  0.00  0.00    +0.027 A 
ATOM     16  C   UNL     1      -1.974  -0.642   1.161  0.00  0.00    +0.047 A 
BRANCH  11  18
ATOM     17  C   UNL     1       0.745  -0.038  -1.219  0.00  0.00    +0.277 C 
ATOM     18  O   UNL     1       0.002  -0.003   0.001  0.00  0.00    -0.495 OA
ENDBRANCH  11  18
ENDBRANCH   4  14
ENDBRANCH   1   8
BRANCH   1  19
ATOM     19  C   UNL     1      -6.275  -6.299  -1.308  0.00  0.00    -0.077 C 
BRANCH  19  20
ATOM     20  C   UNL     1      -6.691  -7.001  -2.602  0.00  0.00    +0.014 C 
BRANCH  20  21
ATOM     21  C   UNL     1      -6.074  -8.375  -2.648  0.00  0.00    -0.043 C 
ATOM     22  C   UNL     1      -6.650  -9.538  -2.265  0.00  0.00    +0.000 A 
ATOM     23  C   UNL     1      -7.971  -9.858  -1.710  0.00  0.00    +0.030 A 
ATOM     24  C   UNL     1      -8.265 -11.146  -1.417  0.00  0.00    +0.042 A 
ATOM     25  C   UNL     1      -7.341 -12.180  -1.629  0.00  0.00    +0.022 A 
ATOM     26  C   UNL     1      -6.108 -11.963  -2.135  0.00  0.00    +0.027 A 
ATOM     27  C   UNL     1      -5.693 -10.647  -2.479  0.00  0.00    +0.043 A 
ATOM     28  N   UNL     1      -4.570 -10.188  -2.976  0.00  0.00    -0.380 N 
ATOM     29  C   UNL     1      -4.690  -8.735  -3.139  0.00  0.00    +0.144 C 
ATOM     30 CL   UNL     1      -9.826 -11.528  -0.761  0.00  0.00    -0.084 Cl
ATOM     31  H   UNL     1      -3.792 -10.721  -3.202  0.00  0.00    +0.160 HD
ENDBRANCH  20  21
ENDBRANCH  19  20
ENDBRANCH   1  19
TORSDOF 6
