REMARK  Name = ZINC08714571
REMARK  13 active torsions:
REMARK  status: ('A' for Active; 'I' for Inactive)
REMARK    1  A    between atoms: C_1  and  C_2
REMARK    2  A    between atoms: C_3  and  C_34
REMARK    3  A    between atoms: C_4  and  S_10
REMARK    4  A    between atoms: C_7  and  O_8
REMARK    5  A    between atoms: O_8  and  C_9
REMARK    6  A    between atoms: S_10  and  N_13
REMARK    7  A    between atoms: N_16  and  S_21
REMARK    8  A    between atoms: C_17  and  C_20
REMARK    9  A    between atoms: S_21  and  C_24
REMARK   10  A    between atoms: C_27  and  O_32
REMARK   11  A    between atoms: C_28  and  C_31
REMARK   12  A    between atoms: C_29  and  C_30
REMARK   13  A    between atoms: O_32  and  C_33
REMARK                            x       y       z     vdW  Elec       q    Type
REMARK                         _______ _______ _______ _____ _____    ______ ____
ROOT
ATOM      1  N   UNL     1      -5.038   3.732   1.060  0.00  0.00    -0.174 NA
ATOM      2  C   UNL     1      -5.867   3.829  -0.149  0.00  0.00    +0.126 C 
ATOM      3  C   UNL     1      -6.959   4.879   0.088  0.00  0.00    +0.127 C 
ATOM      4  N   UNL     1      -6.331   6.099   0.615  0.00  0.00    -0.171 NA
ATOM      5  C   UNL     1      -5.501   6.002   1.825  0.00  0.00    +0.092 C 
ATOM      6  C   UNL     1      -4.414   4.952   1.591  0.00  0.00    +0.129 C 
ATOM      7  C   UNL     1      -4.855   7.358   2.114  0.00  0.00    +0.027 C 
ENDROOT
BRANCH   1   8
ATOM      8  S   UNL     1      -4.816   2.275   1.816  0.00  0.00    +0.061 S 
ATOM      9  O   UNL     1      -5.997   1.517   1.591  0.00  0.00    -0.153 OA
ATOM     10  O   UNL     1      -4.333   2.563   3.121  0.00  0.00    -0.153 OA
BRANCH   8  14
ATOM     11  C   UNL     1       0.167   1.925   0.279  0.00  0.00    +0.048 C 
ATOM     12  C   UNL     1      -1.220   1.334   0.293  0.00  0.00    -0.004 A 
ATOM     13  C   UNL     1      -2.241   1.982   0.960  0.00  0.00    -0.018 A 
ATOM     14  C   UNL     1      -3.514   1.442   0.970  0.00  0.00    +0.109 A 
ATOM     15  C   UNL     1      -3.765   0.247   0.321  0.00  0.00    +0.032 A 
ATOM     16  C   UNL     1      -2.746  -0.408  -0.342  0.00  0.00    +0.048 A 
ATOM     17  C   UNL     1      -1.469   0.135  -0.357  0.00  0.00    +0.123 A 
ATOM     18  C   UNL     1      -1.970   3.282   1.672  0.00  0.00    +0.046 C 
BRANCH  17  19
ATOM     19  O   UNL     1      -0.465  -0.508  -1.010  0.00  0.00    -0.495 OA
ATOM     20  C   UNL     1      -0.794  -1.738  -1.658  0.00  0.00    +0.277 C 
ENDBRANCH  17  19
ENDBRANCH   8  14
ENDBRANCH   1   8
BRANCH   4  21
ATOM     21  S   UNL     1      -6.553   7.556  -0.140  0.00  0.00    +0.061 S 
ATOM     22  O   UNL     1      -5.319   8.254  -0.046  0.00  0.00    -0.153 OA
ATOM     23  O   UNL     1      -7.177   7.276  -1.385  0.00  0.00    -0.153 OA
BRANCH  21  24
ATOM     24  C   UNL     1      -7.720   8.466   0.816  0.00  0.00    +0.109 A 
ATOM     25  C   UNL     1      -7.334   9.634   1.448  0.00  0.00    +0.032 A 
ATOM     26  C   UNL     1      -8.247  10.348   2.198  0.00  0.00    +0.048 A 
ATOM     27  C   UNL     1      -9.553   9.894   2.317  0.00  0.00    +0.123 A 
ATOM     28  C   UNL     1      -9.937   8.722   1.682  0.00  0.00    -0.004 A 
ATOM     29  C   UNL     1      -9.021   8.014   0.929  0.00  0.00    -0.018 A 
ATOM     30  C   UNL     1      -9.440   6.743   0.234  0.00  0.00    +0.046 C 
ATOM     31  C   UNL     1     -11.355   8.226   1.809  0.00  0.00    +0.048 C 
BRANCH  27  32
ATOM     32  O   UNL     1     -10.453  10.595   3.055  0.00  0.00    -0.495 OA
ATOM     33  C   UNL     1      -9.986  11.792   3.681  0.00  0.00    +0.277 C 
ENDBRANCH  27  32
ENDBRANCH  21  24
ENDBRANCH   4  21
TORSDOF 6
