REMARK  Name = ZINC59595229
REMARK  9 active torsions:
REMARK  status: ('A' for Active; 'I' for Inactive)
REMARK    1  A    between atoms: C_1  and  C_2
REMARK    2  A    between atoms: C_2  and  O_3
REMARK    3  A    between atoms: O_3  and  C_4
REMARK    4  A    between atoms: C_7  and  N_10
REMARK    5  A    between atoms: C_14  and  C_15
REMARK    6  A    between atoms: C_17  and  C_29
REMARK    7  A    between atoms: N_18  and  C_21
REMARK    8  A    between atoms: C_19  and  C_20
REMARK    9  A    between atoms: N_32  and  C_35
REMARK                            x       y       z     vdW  Elec       q    Type
REMARK                         _______ _______ _______ _____ _____    ______ ____
ROOT
ATOM      1  N   UNL     1       0.666  -5.910  -2.137  0.00  0.00    -0.217 N 
ATOM      2  C   UNL     1       1.543  -6.428  -3.021  0.00  0.00    +0.262 C 
ATOM      3  O   UNL     1       2.406  -5.734  -3.524  0.00  0.00    -0.269 OA
ATOM      4  C   UNL     1       1.429  -7.858  -3.360  0.00  0.00    +0.100 C 
ATOM      5  C   UNL     1       2.294  -8.460  -4.259  0.00  0.00    +0.028 C 
ATOM      6  C   UNL     1       0.353  -8.621  -2.700  0.00  0.00    +0.257 C 
ATOM      7  O   UNL     1       0.195  -9.805  -2.929  0.00  0.00    -0.269 OA
ATOM      8  N   UNL     1      -0.452  -7.969  -1.836  0.00  0.00    -0.252 N 
ATOM      9  C   UNL     1      -0.286  -6.665  -1.571  0.00  0.00    +0.153 C 
ATOM     10  S   UNL     1      -1.351  -5.924  -0.454  0.00  0.00    -0.017 S 
ATOM     11  C   UNL     1      -1.529  -8.704  -1.167  0.00  0.00    +0.140 C 
ENDROOT
BRANCH   5  12
ATOM     12  C   UNL     1       2.284  -9.866  -4.419  0.00  0.00    -0.003 A 
ATOM     13  C   UNL     1       2.230 -10.879  -3.354  0.00  0.00    +0.031 A 
ATOM     14  C   UNL     1       2.239 -12.074  -3.966  0.00  0.00    +0.022 A 
ATOM     15  N   UNL     1       2.294 -11.887  -5.320  0.00  0.00    -0.317 N 
ATOM     16  C   UNL     1       2.316 -10.573  -5.612  0.00  0.00    +0.028 A 
ATOM     17  C   UNL     1       2.369  -9.974  -6.994  0.00  0.00    +0.064 C 
ATOM     18  C   UNL     1       2.196 -13.411  -3.271  0.00  0.00    +0.064 C 
BRANCH  15  19
ATOM     19  C   UNL     1       2.319 -12.918  -6.270  0.00  0.00    +0.048 A 
ATOM     20  C   UNL     1       3.441 -13.101  -7.067  0.00  0.00    +0.029 A 
ATOM     21  C   UNL     1       3.464 -14.117  -8.002  0.00  0.00    +0.042 A 
ATOM     22  C   UNL     1       2.369 -14.953  -8.146  0.00  0.00    +0.142 A 
ATOM     23  C   UNL     1       1.248 -14.771  -7.351  0.00  0.00    +0.078 A 
ATOM     24  C   UNL     1       1.224 -13.759  -6.410  0.00  0.00    +0.049 A 
ATOM     25 CL   UNL     1      -0.123 -15.820  -7.533  0.00  0.00    -0.081 Cl
ATOM     26  F   UNL     1       2.393 -15.945  -9.062  0.00  0.00    -0.204 F 
ENDBRANCH  15  19
ENDBRANCH   5  12
BRANCH   1  30
ATOM     27  C   UNL     1       0.932  -1.872  -1.130  0.00  0.00    +0.121 A 
ATOM     28  C   UNL     1       1.631  -2.817  -0.394  0.00  0.00    +0.047 A 
ATOM     29  C   UNL     1       1.543  -4.154  -0.727  0.00  0.00    +0.027 A 
ATOM     30  C   UNL     1       0.755  -4.553  -1.798  0.00  0.00    +0.043 A 
ATOM     31  C   UNL     1       0.056  -3.606  -2.534  0.00  0.00    +0.027 A 
ATOM     32  C   UNL     1       0.140  -2.269  -2.197  0.00  0.00    +0.047 A 
BRANCH  27  33
ATOM     33  O   UNL     1       1.020  -0.555  -0.802  0.00  0.00    -0.492 OA
BRANCH  33  35
ATOM     34  C   UNL     1       1.826   1.298   0.524  0.00  0.00    +0.048 C 
ATOM     35  C   UNL     1       1.854  -0.217   0.308  0.00  0.00    +0.225 C 
ENDBRANCH  33  35
ENDBRANCH  27  33
ENDBRANCH   1  30
TORSDOF 5
