REMARK  Name = ZINC64066791
REMARK  12 active torsions:
REMARK  status: ('A' for Active; 'I' for Inactive)
REMARK    1  A    between atoms: C_1  and  C_2
REMARK    2  A    between atoms: C_6  and  C_12
REMARK    3  A    between atoms: C_10  and  C_11
REMARK    4  A    between atoms: C_12  and  N_13
REMARK    5  A    between atoms: N_13  and  C_14
REMARK    6  A    between atoms: C_15  and  C_17
REMARK    7  A    between atoms: C_17  and  C_18
REMARK    8  A    between atoms: C_18  and  C_29
REMARK    9  A    between atoms: N_22  and  C_25
REMARK   10  A    between atoms: C_25  and  C_26
REMARK   11  A    between atoms: C_26  and  O_27
REMARK   12  A    between atoms: O_27  and  C_28
REMARK                            x       y       z     vdW  Elec       q    Type
REMARK                         _______ _______ _______ _____ _____    ______ ____
ROOT
ATOM      1  C   UNL     1      -4.144  -3.921   0.126  0.00  0.00    +0.117 C 
ENDROOT
BRANCH   1   2
ATOM      2  C   UNL     1      -4.523  -4.400   1.529  0.00  0.00    +0.091 C 
ATOM      3  C   UNL     1      -5.717  -3.590   2.075  0.00  0.00    +0.117 C 
ATOM      4  C   UNL     1      -5.156  -2.918   3.309  0.00  0.00    +0.223 C 
ATOM      5  O   UNL     1      -5.771  -2.179   4.047  0.00  0.00    -0.275 OA
ATOM      6  N   UNL     1      -3.873  -3.270   3.457  0.00  0.00    -0.239 N 
ATOM      7  C   UNL     1      -3.413  -4.100   2.512  0.00  0.00    +0.233 C 
ATOM      8  O   UNL     1      -2.285  -4.542   2.454  0.00  0.00    -0.274 OA
BRANCH   2   9
ATOM      9  C   UNL     1      -4.838  -5.873   1.518  0.00  0.00    +0.004 A 
ATOM     10  C   UNL     1      -4.754  -6.589   0.338  0.00  0.00    +0.007 A 
ATOM     11  C   UNL     1      -5.043  -7.941   0.328  0.00  0.00    +0.000 A 
ATOM     12  C   UNL     1      -5.416  -8.579   1.496  0.00  0.00    +0.003 A 
ATOM     13  C   UNL     1      -5.500  -7.865   2.677  0.00  0.00    +0.038 A 
ATOM     14  C   UNL     1      -5.206  -6.512   2.690  0.00  0.00    +0.128 A 
ATOM     15  F   UNL     1      -5.284  -5.814   3.844  0.00  0.00    -0.205 F 
ENDBRANCH   2   9
BRANCH   6  16
ATOM     16  C   UNL     1      -3.040  -2.785   4.561  0.00  0.00    +0.144 C 
BRANCH  16  17
ATOM     17  C   UNL     1      -3.152  -3.749   5.744  0.00  0.00    +0.179 C 
BRANCH  17  18
ATOM     18  O   UNL     1      -2.599  -5.015   5.381  0.00  0.00    -0.381 OA
ATOM     19  C   UNL     1      -2.654  -5.993   6.422  0.00  0.00    +0.194 C 
ENDBRANCH  17  18
ENDBRANCH  16  17
ENDBRANCH   6  16
ENDBRANCH   1   2
BRANCH   1  22
ATOM     20  N   UNL     1      -2.390  -4.391  -1.553  0.00  0.00    -0.301 N 
ATOM     21  C   UNL     1      -3.023  -3.397  -2.423  0.00  0.00    +0.132 C 
ATOM     22  C   UNL     1      -2.911  -4.652  -0.338  0.00  0.00    +0.217 C 
ATOM     23  O   UNL     1      -2.386  -5.475   0.383  0.00  0.00    -0.276 OA
BRANCH  20  24
ATOM     24  C   UNL     1      -1.191  -5.102  -2.005  0.00  0.00    +0.154 C 
BRANCH  24  30
ATOM     25  C   UNL     1      -0.018   1.503   0.010  0.00  0.00    +0.044 C 
ATOM     26  C   UNL     1       0.002  -0.004   0.002  0.00  0.00    -0.045 A 
ATOM     27  C   UNL     1       0.005  -0.645  -1.184  0.00  0.00    +0.031 A 
ATOM     28  C   UNL     1       0.025  -2.114  -1.215  0.00  0.00    +0.060 A 
ATOM     29  N   UNL     1       0.033  -2.979  -2.187  0.00  0.00    -0.362 N 
ATOM     30  C   UNL     1       0.054  -4.318  -1.586  0.00  0.00    +0.192 C 
ATOM     31  N   UNL     1       0.059  -4.118  -0.131  0.00  0.00    -0.362 N 
ATOM     32  C   UNL     1       0.042  -2.835   0.087  0.00  0.00    +0.060 A 
ATOM     33  C   UNL     1       0.037  -2.031   1.317  0.00  0.00    +0.031 A 
ATOM     34  C   UNL     1       0.023  -0.686   1.232  0.00  0.00    -0.045 A 
ATOM     35  C   UNL     1       0.024   0.120   2.506  0.00  0.00    +0.044 C 
ATOM     36  H   UNL     1       0.025  -2.776  -3.136  0.00  0.00    +0.162 HD
ATOM     37  H   UNL     1       0.072  -4.815   0.544  0.00  0.00    +0.162 HD
ENDBRANCH  24  30
ENDBRANCH  20  24
ENDBRANCH   1  22
TORSDOF 8
