REMARK  Name = ZINC16916094
REMARK  10 active torsions:
REMARK  status: ('A' for Active; 'I' for Inactive)
REMARK    1  A    between atoms: C_1  and  C_2
REMARK    2  A    between atoms: C_2  and  O_3
REMARK    3  A    between atoms: O_3  and  C_4
REMARK    4  A    between atoms: C_6  and  C_14
REMARK    5  A    between atoms: C_9  and  O_10
REMARK    6  A    between atoms: O_10  and  C_11
REMARK    7  A    between atoms: C_11  and  C_12
REMARK    8  A    between atoms: N_18  and  N_22
REMARK    9  A    between atoms: C_23  and  C_25
REMARK   10  A    between atoms: C_25  and  C_26
REMARK                            x       y       z     vdW  Elec       q    Type
REMARK                         _______ _______ _______ _____ _____    ______ ____
ROOT
ATOM      1  C   UNL     1       2.415   3.931  -0.001  0.00  0.00    +0.028 C 
ATOM      2  C   UNL     1       3.599   3.273   0.087  0.00  0.00    +0.079 C 
ATOM      3  C   UNL     1       3.870   1.822   0.099  0.00  0.00    +0.275 C 
ATOM      4  O   UNL     1       2.973   1.003   0.025  0.00  0.00    -0.267 OA
ATOM      5  N   UNL     1       5.138   1.456   0.194  0.00  0.00    -0.170 N 
ATOM      6  C   UNL     1       6.129   2.367   0.276  0.00  0.00    +0.138 C 
ATOM      7  S   UNL     1       7.815   2.095   0.403  0.00  0.00    -0.026 S 
ATOM      8  S   UNL     1       5.259   3.925   0.212  0.00  0.00    -0.059 S 
ENDROOT
BRANCH   1  11
ATOM      9  C   UNL     1      -1.166   2.826   0.124  0.00  0.00    +0.162 A 
ATOM     10  C   UNL     1      -0.007   3.530   0.385  0.00  0.00    +0.057 A 
ATOM     11  C   UNL     1       1.179   3.187  -0.274  0.00  0.00    -0.020 A 
ATOM     12  C   UNL     1       1.184   2.131  -1.193  0.00  0.00    +0.012 A 
ATOM     13  C   UNL     1       0.023   1.435  -1.447  0.00  0.00    +0.050 A 
ATOM     14  C   UNL     1      -1.154   1.780  -0.797  0.00  0.00    +0.163 A 
BRANCH   9  15
ATOM     15  O   UNL     1      -2.321   3.157   0.761  0.00  0.00    -0.489 OA
BRANCH  15  17
ATOM     16  C   UNL     1      -3.646   4.467   2.301  0.00  0.00    +0.048 C 
ATOM     17  C   UNL     1      -2.262   4.244   1.688  0.00  0.00    +0.226 C 
ENDBRANCH  15  17
ENDBRANCH   9  15
BRANCH  14  18
ATOM     18  O   UNL     1      -2.297   1.092  -1.056  0.00  0.00    -0.477 OA
BRANCH  18  19
ATOM     19  C   UNL     1      -2.213   0.029  -2.007  0.00  0.00    +0.354 C 
BRANCH  19  20
ATOM     20  C   UNL     1      -3.568  -0.613  -2.163  0.00  0.00    +0.393 C 
ATOM     21  O   UNL     1      -4.508  -0.202  -1.526  0.00  0.00    -0.243 OA
ATOM     22  O   UNL     1      -3.729  -1.642  -3.010  0.00  0.00    -0.243 OA
ENDBRANCH  19  20
ENDBRANCH  18  19
ENDBRANCH  14  18
ENDBRANCH   1  11
BRANCH   5  23
ATOM     23  N   UNL     1       5.458   0.093   0.210  0.00  0.00    -0.226 N 
ATOM     24  C   UNL     1       5.992  -0.488  -0.883  0.00  0.00    +0.234 C 
ATOM     25  O   UNL     1       6.195   0.171  -1.881  0.00  0.00    -0.274 OA
ATOM     26  H   UNL     1       5.296  -0.434   1.008  0.00  0.00    +0.173 HD
BRANCH  24  27
ATOM     27  C   UNL     1       6.336  -1.955  -0.865  0.00  0.00    +0.132 C 
BRANCH  27  28
ATOM     28  C   UNL     1       6.913  -2.352  -2.200  0.00  0.00    -0.039 A 
ATOM     29  C   UNL     1       6.079  -2.801  -3.207  0.00  0.00    +0.004 A 
ATOM     30  C   UNL     1       6.608  -3.161  -4.432  0.00  0.00    +0.000 A 
ATOM     31  C   UNL     1       7.971  -3.080  -4.648  0.00  0.00    +0.000 A 
ATOM     32  C   UNL     1       8.805  -2.635  -3.639  0.00  0.00    +0.000 A 
ATOM     33  C   UNL     1       8.276  -2.271  -2.415  0.00  0.00    +0.004 A 
ENDBRANCH  27  28
ENDBRANCH  24  27
ENDBRANCH   5  23
TORSDOF 9
