REMARK  Name = ZINC63426651
REMARK  10 active torsions:
REMARK  status: ('A' for Active; 'I' for Inactive)
REMARK    1  A    between atoms: C_1  and  C_2
REMARK    2  A    between atoms: C_6  and  N_9
REMARK    3  A    between atoms: C_7  and  C_8
REMARK    4  A    between atoms: N_12  and  C_15
REMARK    5  A    between atoms: C_15  and  C_17
REMARK    6  A    between atoms: C_15  and  C_18
REMARK    7  A    between atoms: N_20  and  C_21
REMARK    8  A    between atoms: C_29  and  C_31
REMARK    9  A    between atoms: C_31  and  O_33
REMARK   10  A    between atoms: O_33  and  C_34
REMARK                            x       y       z     vdW  Elec       q    Type
REMARK                         _______ _______ _______ _____ _____    ______ ____
ROOT
ATOM      1  C   UNL     1       1.271  -3.487   7.403  0.00  0.00    +0.234 C 
ATOM      2  O   UNL     1       2.147  -3.848   6.647  0.00  0.00    -0.274 OA
ATOM      3  N   UNL     1       1.431  -3.622   8.734  0.00  0.00    -0.285 N 
ATOM      4  H   UNL     1       0.766  -3.262   9.342  0.00  0.00    +0.155 HD
ENDROOT
BRANCH   3   5
ATOM      5  C   UNL     1       2.528  -4.263   9.226  0.00  0.00    +0.053 C 
ATOM      6  C   UNL     1       2.911  -4.365  10.553  0.00  0.00    +0.019 A 
ATOM      7  C   UNL     1       2.340  -3.875  11.752  0.00  0.00    +0.031 A 
ATOM      8  C   UNL     1       2.945  -4.132  12.938  0.00  0.00    +0.042 A 
ATOM      9  C   UNL     1       4.129  -4.873  13.012  0.00  0.00    +0.022 A 
ATOM     10  C   UNL     1       4.731  -5.372  11.906  0.00  0.00    +0.027 A 
ATOM     11  C   UNL     1       4.157  -5.146  10.627  0.00  0.00    +0.045 A 
ATOM     12  N   UNL     1       4.541  -5.517   9.422  0.00  0.00    -0.367 N 
ATOM     13  C   UNL     1       3.575  -5.017   8.438  0.00  0.00    +0.234 C 
ATOM     14 CL   UNL     1       2.233  -3.525  14.401  0.00  0.00    -0.084 Cl
ATOM     15  H   UNL     1       5.332  -6.040   9.219  0.00  0.00    +0.161 HD
BRANCH  13  16
ATOM     16  C   UNL     1       2.941  -6.167   7.699  0.00  0.00    +0.335 C 
ATOM     17  O   UNL     1       2.858  -7.252   8.226  0.00  0.00    -0.248 OA
BRANCH  16  18
ATOM     18  O   UNL     1       2.467  -5.987   6.456  0.00  0.00    -0.466 OA
ATOM     19  C   UNL     1       1.878  -7.121   5.816  0.00  0.00    +0.280 C 
ENDBRANCH  16  18
ENDBRANCH  13  16
ENDBRANCH   3   5
BRANCH   1  20
ATOM     20  C   UNL     1       0.002  -2.887   6.854  0.00  0.00    +0.140 C 
ATOM     21  C   UNL     1      -0.164  -1.464   7.392  0.00  0.00    +0.034 C 
BRANCH  20  25
ATOM     22  N   UNL     1       0.057  -1.841   2.789  0.00  0.00    -0.327 N 
ATOM     23  C   UNL     1      -1.144  -2.528   3.286  0.00  0.00    +0.120 C 
ATOM     24  C   UNL     1      -1.194  -2.381   4.811  0.00  0.00    +0.104 C 
ATOM     25  N   UNL     1       0.072  -2.850   5.387  0.00  0.00    -0.289 NA
ATOM     26  C   UNL     1       1.201  -2.026   4.934  0.00  0.00    +0.104 C 
ATOM     27  C   UNL     1       1.351  -2.164   3.411  0.00  0.00    +0.120 C 
BRANCH  22  33
ATOM     28  C   UNL     1      -0.543   2.809   1.316  0.00  0.00    +0.044 C 
ATOM     29  C   UNL     1      -0.318   1.351   1.008  0.00  0.00    -0.046 A 
ATOM     30  C   UNL     1      -0.194   0.934  -0.305  0.00  0.00    +0.004 A 
ATOM     31  C   UNL     1       0.013  -0.402  -0.592  0.00  0.00    +0.002 A 
ATOM     32  C   UNL     1       0.097  -1.325   0.432  0.00  0.00    +0.023 A 
ATOM     33  C   UNL     1      -0.027  -0.910   1.752  0.00  0.00    +0.033 A 
ATOM     34  C   UNL     1      -0.229   0.435   2.037  0.00  0.00    -0.027 A 
ATOM     35  C   UNL     1      -0.359   0.891   3.467  0.00  0.00    +0.046 C 
ENDBRANCH  22  33
ENDBRANCH  20  25
ENDBRANCH   1  20
TORSDOF 6
