REMARK  Name = ZINC35909037
REMARK  8 active torsions:
REMARK  status: ('A' for Active; 'I' for Inactive)
REMARK    1  A    between atoms: C_1  and  C_2
REMARK    2  A    between atoms: C_2  and  C_3
REMARK    3  A    between atoms: N_7  and  C_29
REMARK    4  A    between atoms: C_11  and  N_16
REMARK    5  A    between atoms: C_17  and  C_19
REMARK    6  A    between atoms: C_24  and  O_25
REMARK    7  A    between atoms: O_25  and  C_26
REMARK    8  A    between atoms: C_26  and  C_28
REMARK                            x       y       z     vdW  Elec       q    Type
REMARK                         _______ _______ _______ _____ _____    ______ ____
ROOT
ATOM      1  C   UNL     1      -2.803  -1.024   0.188  0.00  0.00    +0.259 C 
ATOM      2  C   UNL     1      -3.206  -2.467   0.147  0.00  0.00    +0.257 C 
ATOM      3  O   UNL     1      -3.752  -2.847   1.161  0.00  0.00    -0.272 OA
ATOM      4  N   UNL     1      -3.091  -3.371  -0.737  0.00  0.00    -0.287 N 
ATOM      5  C   UNL     1      -2.755  -3.340  -2.122  0.00  0.00    +0.147 C 
ATOM      6  C   UNL     1      -2.525  -2.016  -2.783  0.00  0.00    +0.013 A 
ATOM      7  C   UNL     1      -2.137  -2.138  -4.127  0.00  0.00    +0.032 A 
ATOM      8  C   UNL     1      -1.827  -1.031  -4.890  0.00  0.00    +0.034 A 
ATOM      9  C   UNL     1      -1.894   0.227  -4.303  0.00  0.00    +0.027 A 
ATOM     10  C   UNL     1      -2.293   0.337  -2.997  0.00  0.00    +0.048 A 
ATOM     11  C   UNL     1      -2.647  -0.797  -2.225  0.00  0.00    +0.126 A 
ATOM     12  O   UNL     1      -3.141  -0.379  -1.023  0.00  0.00    -0.479 OA
ENDROOT
BRANCH   4  13
ATOM     13  C   UNL     1      -3.357  -4.720  -0.232  0.00  0.00    +0.107 C 
ATOM     14  C   UNL     1      -2.150  -5.612  -0.515  0.00  0.00    +0.027 C 
ATOM     15  C   UNL     1      -2.528  -7.059  -0.180  0.00  0.00    +0.007 C 
ATOM     16  C   UNL     1      -3.537  -7.546  -1.218  0.00  0.00    +0.035 C 
ATOM     17  C   UNL     1      -4.674  -6.567  -1.351  0.00  0.00    -0.042 A 
ATOM     18  C   UNL     1      -4.589  -5.268  -0.902  0.00  0.00    -0.024 A 
ATOM     19  C   UNL     1      -5.672  -4.414  -1.063  0.00  0.00    +0.006 A 
ATOM     20  C   UNL     1      -6.831  -4.857  -1.666  0.00  0.00    +0.000 A 
ATOM     21  C   UNL     1      -6.917  -6.162  -2.113  0.00  0.00    +0.000 A 
ATOM     22  C   UNL     1      -5.842  -7.011  -1.955  0.00  0.00    +0.004 A 
ENDBRANCH   4  13
BRANCH   8  23
ATOM     23  N   UNL     1      -1.451  -1.172  -6.231  0.00  0.00    -0.281 N 
ATOM     24  C   UNL     1      -1.829  -0.249  -7.138  0.00  0.00    +0.252 C 
ATOM     25  O   UNL     1      -2.425   0.748  -6.778  0.00  0.00    -0.270 OA
ATOM     26  H   UNL     1      -0.918  -1.934  -6.508  0.00  0.00    +0.155 HD
BRANCH  24  27
ATOM     27  C   UNL     1      -1.520  -0.449  -8.567  0.00  0.00    +0.079 A 
ATOM     28  C   UNL     1      -0.842  -1.595  -8.986  0.00  0.00    +0.017 A 
ATOM     29  C   UNL     1      -0.557  -1.776 -10.322  0.00  0.00    +0.001 A 
ATOM     30  C   UNL     1      -0.940  -0.825 -11.253  0.00  0.00    +0.004 A 
ATOM     31  C   UNL     1      -1.612   0.314 -10.852  0.00  0.00    +0.047 A 
ATOM     32  C   UNL     1      -1.912   0.508  -9.513  0.00  0.00    +0.144 A 
BRANCH  32  33
ATOM     33  O   UNL     1      -2.577   1.624  -9.118  0.00  0.00    -0.425 OA
BRANCH  33  34
ATOM     34  C   UNL     1      -1.853   2.682  -8.720  0.00  0.00    +0.309 C 
ATOM     35  O   UNL     1      -0.647   2.655  -8.803  0.00  0.00    -0.251 OA
ATOM     36  C   UNL     1      -2.543   3.903  -8.168  0.00  0.00    +0.136 C 
ENDBRANCH  33  34
ENDBRANCH  32  33
ENDBRANCH  24  27
ENDBRANCH   8  23
BRANCH   1  38
ATOM     37  C   UNL     1      -0.894   0.537   0.586  0.00  0.00    +0.008 C 
ATOM     38  C   UNL     1      -1.291  -0.929   0.405  0.00  0.00    +0.051 C 
ENDBRANCH   1  38
TORSDOF 6
