REMARK  Name = ZINC34788979
REMARK  6 active torsions:
REMARK  status: ('A' for Active; 'I' for Inactive)
REMARK    1  A    between atoms: C_1  and  C_2
REMARK    2  A    between atoms: C_7  and  C_8
REMARK    3  A    between atoms: N_17  and  C_18
REMARK    4  A    between atoms: C_18  and  C_19
REMARK    5  A    between atoms: N_25  and  S_28
REMARK    6  A    between atoms: S_28  and  C_31
REMARK                            x       y       z     vdW  Elec       q    Type
REMARK                         _______ _______ _______ _____ _____    ______ ____
ROOT
ATOM      1  C   UNL     1       1.971  -1.086   3.324  0.00  0.00    +0.020 C 
ENDROOT
BRANCH   1  10
ATOM      2  C   UNL     1      -0.124  -0.378   2.407  0.00  0.00    -0.005 C 
ATOM      3  C   UNL     1      -1.622  -0.283   2.676  0.00  0.00    -0.047 A 
ATOM      4  C   UNL     1      -2.577  -0.045   1.690  0.00  0.00    +0.010 A 
ATOM      5  C   UNL     1      -3.889   0.020   2.021  0.00  0.00    +0.045 A 
ATOM      6  S   UNL     1      -3.839  -0.258   3.785  0.00  0.00    -0.101 S 
ATOM      7  C   UNL     1      -2.086  -0.437   3.948  0.00  0.00    -0.010 A 
ATOM      8  C   UNL     1      -1.262  -0.695   5.167  0.00  0.00    +0.024 C 
ATOM      9  C   UNL     1       0.206  -0.415   4.802  0.00  0.00    -0.072 C 
ATOM     10  N   UNL     1       0.516  -1.078   3.527  0.00  0.00    +0.393 N 
ATOM     11  H   UNL     1       0.181  -2.029   3.559  0.00  0.00    -0.080 HD
BRANCH   2  18
ATOM     12  C   UNL     1      -0.197   0.993  -0.135  0.00  0.00    +0.044 C 
ATOM     13  C   UNL     1       0.079  -0.488  -0.086  0.00  0.00    -0.049 A 
ATOM     14  C   UNL     1       0.302  -1.189  -1.256  0.00  0.00    +0.003 A 
ATOM     15  C   UNL     1       0.554  -2.547  -1.210  0.00  0.00    +0.000 A 
ATOM     16  C   UNL     1       0.584  -3.204   0.006  0.00  0.00    +0.000 A 
ATOM     17  C   UNL     1       0.362  -2.503   1.176  0.00  0.00    +0.002 A 
ATOM     18  C   UNL     1       0.114  -1.143   1.131  0.00  0.00    -0.054 A 
ENDBRANCH   2  18
ENDBRANCH   1  10
BRANCH   1  19
ATOM     19  C   UNL     1       2.619  -1.958   4.369  0.00  0.00    +0.199 C 
ATOM     20  O   UNL     1       1.952  -2.426   5.266  0.00  0.00    -0.278 OA
ATOM     21  N   UNL     1       3.940  -2.217   4.304  0.00  0.00    -0.302 N 
ATOM     22  C   UNL     1       4.771  -1.577   3.257  0.00  0.00    +0.109 C 
ATOM     23  C   UNL     1       5.541  -0.461   3.827  0.00  0.00    +0.036 C 
ATOM     24  C   UNL     1       6.450  -0.922   4.979  0.00  0.00    +0.111 C 
ATOM     25  N   UNL     1       5.635  -1.078   6.150  0.00  0.00    -0.175 NA
ATOM     26  C   UNL     1       5.034  -2.386   6.527  0.00  0.00    +0.128 C 
ATOM     27  C   UNL     1       4.543  -3.110   5.255  0.00  0.00    +0.125 C 
BRANCH  25  28
ATOM     28  S   UNL     1       5.354   0.241   7.112  0.00  0.00    +0.061 S 
ATOM     29  O   UNL     1       4.898  -0.258   8.362  0.00  0.00    -0.153 OA
ATOM     30  O   UNL     1       6.497   1.078   6.997  0.00  0.00    -0.153 OA
BRANCH  28  31
ATOM     31  C   UNL     1       4.007   1.127   6.401  0.00  0.00    +0.105 A 
ATOM     32  C   UNL     1       4.239   2.045   5.394  0.00  0.00    +0.028 A 
ATOM     33  C   UNL     1       3.182   2.740   4.837  0.00  0.00    +0.002 A 
ATOM     34  C   UNL     1       1.894   2.517   5.286  0.00  0.00    +0.000 A 
ATOM     35  C   UNL     1       1.662   1.598   6.293  0.00  0.00    +0.002 A 
ATOM     36  C   UNL     1       2.719   0.900   6.847  0.00  0.00    +0.028 A 
ENDBRANCH  28  31
ENDBRANCH  25  28
ENDBRANCH   1  19
TORSDOF 5
