REMARK  Name = ZINC25236249
REMARK  5 active torsions:
REMARK  status: ('A' for Active; 'I' for Inactive)
REMARK    1  A    between atoms: C_1  and  N_2
REMARK    2  A    between atoms: C_3  and  C_5
REMARK    3  A    between atoms: C_5  and  N_6
REMARK    4  A    between atoms: C_9  and  N_12
REMARK    5  A    between atoms: C_13  and  C_15
REMARK                            x       y       z     vdW  Elec       q    Type
REMARK                         _______ _______ _______ _____ _____    ______ ____
ROOT
ATOM      1  N   UNL     1      -6.090  -4.732  -0.927  0.00  0.00    -0.307 N 
ATOM      2  C   UNL     1      -6.435  -5.985  -1.285  0.00  0.00    +0.261 C 
ATOM      3  O   UNL     1      -5.590  -6.752  -1.705  0.00  0.00    -0.269 OA
ATOM      4  H   UNL     1      -6.764  -4.121  -0.592  0.00  0.00    +0.149 HD
ENDROOT
BRANCH   2   5
ATOM      5  C   UNL     1      -7.834  -6.424  -1.169  0.00  0.00    +0.103 A 
ATOM      6  C   UNL     1      -8.302  -7.658  -1.492  0.00  0.00    +0.040 A 
ATOM      7  C   UNL     1      -9.694  -7.672  -1.234  0.00  0.00    +0.000 A 
ATOM      8  C   UNL     1     -10.688  -8.650  -1.373  0.00  0.00    +0.011 A 
ATOM      9  C   UNL     1     -11.977  -8.361  -1.034  0.00  0.00    +0.021 A 
ATOM     10  C   UNL     1     -12.316  -7.101  -0.551  0.00  0.00    +0.043 A 
ATOM     11  C   UNL     1     -11.357  -6.123  -0.406  0.00  0.00    +0.046 A 
ATOM     12  C   UNL     1     -10.034  -6.396  -0.746  0.00  0.00    +0.048 A 
ATOM     13  N   UNL     1      -8.881  -5.649  -0.708  0.00  0.00    -0.351 N 
ATOM     14  H   UNL     1      -8.813  -4.728  -0.409  0.00  0.00    +0.166 HD
ATOM     15 CL   UNL     1     -13.964  -6.758  -0.128  0.00  0.00    -0.083 Cl
ENDBRANCH   2   5
BRANCH   1  19
ATOM     16  N   UNL     1      -2.514  -2.709   0.011  0.00  0.00    +0.385 N 
ATOM     17  C   UNL     1      -3.188  -2.315  -1.231  0.00  0.00    -0.076 C 
ATOM     18  C   UNL     1      -4.648  -2.772  -1.190  0.00  0.00    +0.004 C 
ATOM     19  C   UNL     1      -4.696  -4.295  -1.043  0.00  0.00    +0.070 C 
ATOM     20  C   UNL     1      -3.926  -4.701   0.217  0.00  0.00    +0.004 C 
ATOM     21  C   UNL     1      -2.493  -4.172   0.124  0.00  0.00    -0.076 C 
ATOM     22  H   UNL     1      -3.009  -2.319   0.799  0.00  0.00    -0.081 HD
BRANCH  16  23
ATOM     23  C   UNL     1      -1.135  -2.201   0.001  0.00  0.00    +0.019 C 
BRANCH  23  26
ATOM     24  C   UNL     1      -0.018   1.461   0.010  0.00  0.00    +0.128 C 
ATOM     25  N   UNL     1       0.002  -0.004   0.002  0.00  0.00    -0.320 N 
ATOM     26  C   UNL     1      -1.156  -0.694   0.009  0.00  0.00    +0.196 C 
ATOM     27  O   UNL     1      -2.214  -0.102   0.023  0.00  0.00    -0.278 OA
ATOM     28  H   UNL     1       0.849  -0.478  -0.009  0.00  0.00    +0.148 HD
ENDBRANCH  23  26
ENDBRANCH  16  23
ENDBRANCH   1  19
TORSDOF 4
