REMARK  Name = ZINC39508740
REMARK  6 active torsions:
REMARK  status: ('A' for Active; 'I' for Inactive)
REMARK    1  A    between atoms: C_4  and  O_7
REMARK    2  A    between atoms: O_7  and  S_8
REMARK    3  A    between atoms: S_8  and  C_11
REMARK    4  A    between atoms: N_21  and  S_23
REMARK    5  A    between atoms: S_23  and  O_26
REMARK    6  A    between atoms: O_26  and  C_27
REMARK                            x       y       z     vdW  Elec       q    Type
REMARK                         _______ _______ _______ _____ _____    ______ ____
ROOT
ATOM      1  C   UNL     1       4.702  -3.642   1.523  0.00  0.00    +0.189 C 
ATOM      2  C   UNL     1       5.332  -4.485   2.666  0.00  0.00    +0.055 C 
ATOM      3  C   UNL     1       4.331  -5.638   2.825  0.00  0.00    +0.049 C 
ATOM      4  C   UNL     1       5.070  -6.951   3.145  0.00  0.00    +0.025 C 
ATOM      5  C   UNL     1       3.977  -7.793   3.852  0.00  0.00    +0.017 C 
ATOM      6  C   UNL     1       3.187  -6.767   4.691  0.00  0.00    +0.059 C 
ATOM      7  C   UNL     1       3.408  -5.394   4.026  0.00  0.00    +0.039 C 
ATOM      8 BR   UNL     1       1.274  -7.220   4.683  0.00  0.00    -0.088 Br
ATOM      9  N   UNL     1       3.568  -5.755   1.584  0.00  0.00    -0.139 NA
ATOM     10  C   UNL     1       4.069  -4.741   0.633  0.00  0.00    +0.143 C 
ENDROOT
BRANCH   1  11
ATOM     11  S   UNL     1       5.977  -2.725   0.614  0.00  0.00    +0.125 S 
ATOM     12  O   UNL     1       6.852  -3.628  -0.047  0.00  0.00    -0.136 OA
ATOM     13  O   UNL     1       6.494  -1.675   1.421  0.00  0.00    -0.136 OA
BRANCH  11  14
ATOM     14  O   UNL     1       5.227  -2.020  -0.507  0.00  0.00    -0.346 OA
BRANCH  14  18
ATOM     15  C   UNL     1       3.034   1.247   0.733  0.00  0.00    +0.000 A 
ATOM     16  C   UNL     1       4.349   1.408   0.338  0.00  0.00    +0.004 A 
ATOM     17  C   UNL     1       5.086   0.316  -0.078  0.00  0.00    +0.048 A 
ATOM     18  C   UNL     1       4.505  -0.944  -0.098  0.00  0.00    +0.156 A 
ATOM     19  C   UNL     1       3.185  -1.103   0.300  0.00  0.00    +0.048 A 
ATOM     20  C   UNL     1       2.453  -0.008   0.714  0.00  0.00    +0.004 A 
ENDBRANCH  14  18
ENDBRANCH  11  14
ENDBRANCH   1  11
BRANCH   9  21
ATOM     21  S   UNL     1       2.352  -6.840   1.292  0.00  0.00    +0.195 S 
ATOM     22  O   UNL     1       2.763  -7.621   0.179  0.00  0.00    -0.119 OA
ATOM     23  O   UNL     1       2.014  -7.418   2.546  0.00  0.00    -0.119 OA
BRANCH  21  24
ATOM     24  O   UNL     1       1.137  -6.043   0.840  0.00  0.00    -0.333 OA
BRANCH  24  25
ATOM     25  C   UNL     1       1.207  -5.610  -0.447  0.00  0.00    +0.158 A 
ATOM     26  C   UNL     1       1.309  -4.254  -0.720  0.00  0.00    +0.048 A 
ATOM     27  C   UNL     1       1.381  -3.817  -2.028  0.00  0.00    +0.004 A 
ATOM     28  C   UNL     1       1.351  -4.731  -3.066  0.00  0.00    +0.000 A 
ATOM     29  C   UNL     1       1.250  -6.083  -2.797  0.00  0.00    +0.004 A 
ATOM     30  C   UNL     1       1.184  -6.525  -1.490  0.00  0.00    +0.048 A 
ENDBRANCH  24  25
ENDBRANCH  21  24
ENDBRANCH   9  21
TORSDOF 6
