REMARK  Name = ZINC14999311
REMARK  9 active torsions:
REMARK  status: ('A' for Active; 'I' for Inactive)
REMARK    1  A    between atoms: C_1  and  C_2
REMARK    2  A    between atoms: C_2  and  O_3
REMARK    3  A    between atoms: O_3  and  C_4
REMARK    4  A    between atoms: C_8  and  C_11
REMARK    5  A    between atoms: C_9  and  O_10
REMARK    6  A    between atoms: C_11  and  N_61
REMARK    7  A    between atoms: C_15  and  N_18
REMARK    8  A    between atoms: C_20  and  C_23
REMARK    9  A    between atoms: N_25  and  C_26
REMARK                            x       y       z     vdW  Elec       q    Type
REMARK                         _______ _______ _______ _____ _____    ______ ____
ROOT
ATOM      1  C   UNL     1      11.225   3.251  -3.334  0.00  0.00    -0.078 C 
ATOM      2  C   UNL     1      10.747   4.057  -2.124  0.00  0.00    -0.017 C 
ATOM      3  C   UNL     1       9.345   3.587  -1.725  0.00  0.00    +0.023 C 
ATOM      4  C   UNL     1       9.385   2.087  -1.423  0.00  0.00    +0.092 C 
ATOM      5  C   UNL     1       9.902   1.337  -2.652  0.00  0.00    -0.051 C 
ATOM      6  N   UNL     1      11.264   1.818  -2.970  0.00  0.00    +0.384 N 
ATOM      7  H   UNL     1      11.860   1.701  -2.142  0.00  0.00    -0.081 HD
ENDROOT
BRANCH   4   8
ATOM      8  N   UNL     1       8.036   1.618  -1.095  0.00  0.00    -0.250 N 
ATOM      9  C   UNL     1       6.881   2.055  -1.634  0.00  0.00    +0.143 A 
ATOM     10  C   UNL     1       5.874   1.349  -1.038  0.00  0.00    +0.167 A 
ATOM     11  N   UNL     1       6.419   0.492  -0.158  0.00  0.00    -0.125 NA
ATOM     12  N   UNL     1       7.700   0.624  -0.165  0.00  0.00    -0.065 NA
BRANCH  10  13
ATOM     13  C   UNL     1       4.434   1.498  -1.319  0.00  0.00    +0.266 C 
ATOM     14  O   UNL     1       4.055   2.309  -2.141  0.00  0.00    -0.268 OA
ATOM     15  N   UNL     1       3.537   0.734  -0.664  0.00  0.00    -0.307 N 
ATOM     16  H   UNL     1       3.839   0.086  -0.008  0.00  0.00    +0.149 HD
BRANCH  15  17
ATOM     17  C   UNL     1       2.107   0.881  -0.942  0.00  0.00    +0.073 C 
ATOM     18  C   UNL     1       1.477   1.939  -0.002  0.00  0.00    +0.022 C 
ATOM     19  C   UNL     1      -0.019   1.538   0.011  0.00  0.00    +0.002 C 
ATOM     20  C   UNL     1       0.002  -0.004   0.002  0.00  0.00    +0.002 C 
ATOM     21  C   UNL     1       1.353  -0.422  -0.604  0.00  0.00    +0.022 C 
ENDBRANCH  15  17
ENDBRANCH  10  13
ENDBRANCH   4   8
BRANCH   6  22
ATOM     22  C   UNL     1      11.830   1.030  -4.084  0.00  0.00    -0.039 C 
BRANCH  22  27
ATOM     23  C   UNL     1      15.572   1.163  -3.524  0.00  0.00    +0.162 A 
ATOM     24  C   UNL     1      15.964   2.038  -4.524  0.00  0.00    +0.049 A 
ATOM     25  C   UNL     1      15.021   2.583  -5.376  0.00  0.00    +0.004 A 
ATOM     26  C   UNL     1      13.686   2.252  -5.236  0.00  0.00    +0.005 A 
ATOM     27  C   UNL     1      13.287   1.384  -4.237  0.00  0.00    -0.019 A 
ATOM     28  C   UNL     1      14.227   0.834  -3.380  0.00  0.00    +0.160 A 
BRANCH  28  29
ATOM     29  O   UNL     1      13.837  -0.024  -2.400  0.00  0.00    -0.503 OA
ATOM     30  H   UNL     1      13.831  -0.952  -2.670  0.00  0.00    +0.292 HD
ENDBRANCH  28  29
BRANCH  23  31
ATOM     31  O   UNL     1      16.498   0.627  -2.686  0.00  0.00    -0.489 OA
BRANCH  31  33
ATOM     32  C   UNL     1      18.748   0.310  -1.862  0.00  0.00    +0.048 C 
ATOM     33  C   UNL     1      17.860   1.009  -2.893  0.00  0.00    +0.226 C 
ENDBRANCH  31  33
ENDBRANCH  23  31
ENDBRANCH  22  27
ENDBRANCH   6  22
TORSDOF 8
