REMARK  Name = ZINC03034141
REMARK  10 active torsions:
REMARK  status: ('A' for Active; 'I' for Inactive)
REMARK    1  A    between atoms: C_1  and  C_2
REMARK    2  A    between atoms: C_2  and  C_3
REMARK    3  A    between atoms: C_3  and  C_5
REMARK    4  A    between atoms: C_3  and  N_6
REMARK    5  A    between atoms: C_7  and  C_9
REMARK    6  A    between atoms: C_9  and  S_10
REMARK    7  A    between atoms: S_10  and  C_11
REMARK    8  A    between atoms: N_17  and  C_18
REMARK    9  A    between atoms: N_28  and  C_29
REMARK   10  A    between atoms: C_34  and  C_35
REMARK                            x       y       z     vdW  Elec       q    Type
REMARK                         _______ _______ _______ _____ _____    ______ ____
ROOT
ATOM      1  C   UNL     1      -2.528   7.606   2.990  0.00  0.00    +0.179 A 
ATOM      2  N   UNL     1      -1.474   8.008   2.325  0.00  0.00    -0.204 NA
ATOM      3  C   UNL     1      -1.149   9.319   2.213  0.00  0.00    +0.161 A 
ATOM      4  C   UNL     1      -1.998  10.221   2.860  0.00  0.00    +0.122 A 
ATOM      5  C   UNL     1      -3.112   9.798   3.571  0.00  0.00    +0.275 A 
ATOM      6  O   UNL     1      -3.841  10.603   4.129  0.00  0.00    -0.266 OA
ATOM      7  N   UNL     1      -3.370   8.469   3.629  0.00  0.00    -0.252 N 
ATOM      8  S   UNL     1      -1.263  11.796   2.503  0.00  0.00    -0.055 S 
ATOM      9  C   UNL     1       0.112  11.202   1.530  0.00  0.00    +0.132 A 
ATOM     10  S   UNL     1       1.359  12.098   0.771  0.00  0.00    -0.024 S 
ATOM     11  N   UNL     1      -0.082   9.868   1.545  0.00  0.00    -0.281 N 
ENDROOT
BRANCH   7  12
ATOM     12  C   UNL     1      -4.482   7.989   4.335  0.00  0.00    +0.087 A 
ATOM     13  C   UNL     1      -4.365   7.660   5.678  0.00  0.00    +0.029 A 
ATOM     14  C   UNL     1      -5.464   7.193   6.372  0.00  0.00    +0.002 A 
ATOM     15  C   UNL     1      -6.679   7.041   5.728  0.00  0.00    +0.003 A 
ATOM     16  C   UNL     1      -6.799   7.362   4.388  0.00  0.00    +0.040 A 
ATOM     17  C   UNL     1      -5.704   7.836   3.689  0.00  0.00    +0.147 A 
ATOM     18  F   UNL     1      -5.821   8.149   2.380  0.00  0.00    -0.203 F 
ENDBRANCH   7  12
BRANCH  11  19
ATOM     19  C   UNL     1       0.816   9.030   0.871  0.00  0.00    +0.052 A 
ATOM     20  C   UNL     1       0.595   8.700  -0.459  0.00  0.00    +0.026 A 
ATOM     21  C   UNL     1       1.482   7.874  -1.121  0.00  0.00    +0.002 A 
ATOM     22  C   UNL     1       2.590   7.376  -0.460  0.00  0.00    +0.000 A 
ATOM     23  C   UNL     1       2.813   7.704   0.865  0.00  0.00    +0.005 A 
ATOM     24  C   UNL     1       1.932   8.534   1.530  0.00  0.00    -0.027 A 
ATOM     25  C   UNL     1       2.180   8.896   2.972  0.00  0.00    +0.046 C 
ENDBRANCH  11  19
BRANCH   1  26
ATOM     26  S   UNL     1      -2.868   5.878   3.071  0.00  0.00    -0.078 S 
BRANCH  26  27
ATOM     27  C   UNL     1      -1.487   5.240   2.090  0.00  0.00    +0.173 C 
BRANCH  27  29
ATOM     28  N   UNL     1      -0.645   3.040   1.336  0.00  0.00    -0.312 N 
ATOM     29  C   UNL     1      -1.574   3.737   2.019  0.00  0.00    +0.224 C 
ATOM     30  O   UNL     1      -2.480   3.155   2.577  0.00  0.00    -0.275 OA
ATOM     31  H   UNL     1       0.080   3.506   0.889  0.00  0.00    +0.149 HD
BRANCH  28  32
ATOM     32  C   UNL     1      -0.729   1.579   1.267  0.00  0.00    +0.070 C 
ATOM     33  C   UNL     1      -0.064   0.971   2.503  0.00  0.00    +0.028 C 
BRANCH  32  35
ATOM     34  C   UNL     1      -0.753   1.593  -1.232  0.00  0.00    +0.005 C 
ATOM     35  C   UNL     1      -0.013   1.086   0.008  0.00  0.00    +0.018 C 
ENDBRANCH  32  35
ENDBRANCH  28  32
ENDBRANCH  27  29
ENDBRANCH  26  27
ENDBRANCH   1  26
TORSDOF 7
