REMARK  Name = ZINC63752559
REMARK  10 active torsions:
REMARK  status: ('A' for Active; 'I' for Inactive)
REMARK    1  A    between atoms: C_1  and  C_2
REMARK    2  A    between atoms: C_2  and  N_3
REMARK    3  A    between atoms: C_4  and  C_34
REMARK    4  A    between atoms: C_5  and  C_9
REMARK    5  A    between atoms: C_6  and  C_8
REMARK    6  A    between atoms: C_9  and  N_10
REMARK    7  A    between atoms: C_11  and  C_13
REMARK    8  A    between atoms: C_15  and  N_24
REMARK    9  A    between atoms: C_18  and  C_23
REMARK   10  A    between atoms: C_25  and  C_27
REMARK                            x       y       z     vdW  Elec       q    Type
REMARK                         _______ _______ _______ _____ _____    ______ ____
ROOT
ATOM      1  C   UNL     1      -7.512   0.965   2.922  0.00  0.00    +0.211 C 
ATOM      2  C   UNL     1      -6.632   1.321   4.100  0.00  0.00    +0.051 C 
ATOM      3  C   UNL     1      -7.282   0.824   5.218  0.00  0.00    +0.018 A 
ATOM      4  C   UNL     1      -6.960   0.842   6.596  0.00  0.00    +0.015 A 
ATOM      5  C   UNL     1      -7.800   0.263   7.489  0.00  0.00    -0.050 A 
ATOM      6  C   UNL     1      -8.986  -0.356   7.085  0.00  0.00    +0.005 A 
ATOM      7  C   UNL     1      -9.357  -0.412   5.784  0.00  0.00    +0.026 A 
ATOM      8  C   UNL     1      -8.530   0.172   4.788  0.00  0.00    +0.045 A 
ATOM      9  N   UNL     1      -8.665   0.251   3.478  0.00  0.00    -0.369 N 
ATOM     10  C   UNL     1      -7.446   0.289   8.954  0.00  0.00    +0.044 C 
ATOM     11  H   UNL     1      -9.407  -0.105   2.965  0.00  0.00    +0.161 HD
ENDROOT
BRANCH   1  13
ATOM     12  N   UNL     1      -5.898   0.612   1.081  0.00  0.00    -0.309 N 
ATOM     13  C   UNL     1      -6.762   0.074   1.965  0.00  0.00    +0.241 C 
ATOM     14  O   UNL     1      -6.936  -1.125   1.991  0.00  0.00    -0.273 OA
ATOM     15  H   UNL     1      -5.759   1.571   1.060  0.00  0.00    +0.149 HD
BRANCH  12  16
ATOM     16  C   UNL     1      -5.170  -0.254   0.151  0.00  0.00    +0.143 C 
BRANCH  16  19
ATOM     17  N   UNL     1      -2.549   1.685  -1.484  0.00  0.00    -0.268 N 
ATOM     18  C   UNL     1      -2.995   0.930  -0.457  0.00  0.00    +0.041 A 
ATOM     19  C   UNL     1      -4.277   0.587  -0.724  0.00  0.00    +0.013 A 
ATOM     20  C   UNL     1      -4.625   1.151  -1.956  0.00  0.00    +0.065 A 
ATOM     21  N   UNL     1      -3.593   1.814  -2.409  0.00  0.00    -0.176 NA
ATOM     22  C   UNL     1      -5.963   1.023  -2.639  0.00  0.00    +0.068 C 
ATOM     23  C   UNL     1      -2.207   0.540   0.766  0.00  0.00    +0.065 C 
BRANCH  17  25
ATOM     24  C   UNL     1      -1.203   3.660  -0.967  0.00  0.00    +0.029 C 
ATOM     25  C   UNL     1      -1.211   2.270  -1.605  0.00  0.00    +0.140 C 
ENDBRANCH  17  25
ENDBRANCH  16  19
ENDBRANCH  12  16
ENDBRANCH   1  13
BRANCH   2  26
ATOM     26  N   UNL     1      -5.448   1.991   4.068  0.00  0.00    -0.282 N 
ATOM     27  C   UNL     1      -5.088   2.773   5.105  0.00  0.00    +0.248 C 
ATOM     28  O   UNL     1      -5.806   2.854   6.083  0.00  0.00    -0.270 OA
ATOM     29  H   UNL     1      -4.863   1.905   3.300  0.00  0.00    +0.155 HD
BRANCH  27  30
ATOM     30  C   UNL     1      -3.822   3.532   5.053  0.00  0.00    +0.037 A 
ATOM     31  C   UNL     1      -2.998   3.445   3.929  0.00  0.00    +0.014 A 
ATOM     32  C   UNL     1      -1.818   4.156   3.886  0.00  0.00    +0.021 A 
ATOM     33  C   UNL     1      -1.448   4.954   4.956  0.00  0.00    +0.041 A 
ATOM     34  C   UNL     1      -2.260   5.044   6.074  0.00  0.00    +0.021 A 
ATOM     35  C   UNL     1      -3.447   4.343   6.126  0.00  0.00    +0.014 A 
ATOM     36 CL   UNL     1       0.041   5.846   4.895  0.00  0.00    -0.084 Cl
ENDBRANCH  27  30
ENDBRANCH   2  26
TORSDOF 6
