REMARK  Name = ZINC00716496
REMARK  7 active torsions:
REMARK  status: ('A' for Active; 'I' for Inactive)
REMARK    1  A    between atoms: C_1  and  C_2
REMARK    2  A    between atoms: C_2  and  C_34
REMARK    3  A    between atoms: C_6  and  C_22
REMARK    4  A    between atoms: C_8  and  C_20
REMARK    5  A    between atoms: C_9  and  N_19
REMARK    6  A    between atoms: N_10  and  C_11
REMARK    7  A    between atoms: C_16  and  C_17
REMARK                            x       y       z     vdW  Elec       q    Type
REMARK                         _______ _______ _______ _____ _____    ______ ____
ROOT
ATOM      1  C   UNL     1      -0.019   1.526   0.010  0.00  0.00    +0.011 C 
ATOM      2  C   UNL     1       0.002  -0.004   0.002  0.00  0.00    -0.023 C 
ATOM      3  C   UNL     1      -1.432  -0.538   0.003  0.00  0.00    +0.058 C 
ATOM      4  C   UNL     1      -1.411  -2.046  -0.055  0.00  0.00    +0.025 C 
ATOM      5  C   UNL     1      -0.418  -2.703  -0.690  0.00  0.00    +0.025 C 
ATOM      6  C   UNL     1      -0.406  -4.210  -0.758  0.00  0.00    +0.097 C 
ATOM      7  C   UNL     1      -1.308  -4.806   0.282  0.00  0.00    +0.077 C 
ATOM      8  C   UNL     1      -2.269  -4.062   0.888  0.00  0.00    +0.107 C 
ATOM      9  N   UNL     1      -2.426  -2.735   0.557  0.00  0.00    -0.259 N 
ATOM     10  C   UNL     1       0.636  -2.005  -1.304  0.00  0.00    +0.162 C 
ATOM     11  O   UNL     1       1.509  -2.626  -1.877  0.00  0.00    -0.292 OA
ATOM     12  C   UNL     1       0.710  -0.502  -1.262  0.00  0.00    +0.086 C 
ATOM     13  C   UNL     1       0.741  -0.515   1.240  0.00  0.00    +0.011 C 
ENDROOT
BRANCH   6  14
ATOM     14  C   UNL     1      -0.870  -4.647  -2.123  0.00  0.00    -0.031 A 
ATOM     15  C   UNL     1      -2.146  -4.332  -2.552  0.00  0.00    +0.008 A 
ATOM     16  C   UNL     1      -2.574  -4.726  -3.806  0.00  0.00    +0.050 A 
ATOM     17  C   UNL     1      -1.728  -5.448  -4.632  0.00  0.00    +0.166 A 
ATOM     18  C   UNL     1      -0.445  -5.770  -4.198  0.00  0.00    +0.167 A 
ATOM     19  C   UNL     1      -0.020  -5.367  -2.942  0.00  0.00    +0.054 A 
ATOM     20  O   UNL     1       0.184  -6.477  -5.182  0.00  0.00    -0.453 OA
ATOM     21  C   UNL     1      -0.579  -6.232  -6.378  0.00  0.00    +0.466 C 
ATOM     22  O   UNL     1      -1.904  -5.953  -5.888  0.00  0.00    -0.453 OA
ENDBRANCH   6  14
BRANCH   9  23
ATOM     23  C   UNL     1      -3.627  -2.087   0.847  0.00  0.00    +0.057 A 
ATOM     24  C   UNL     1      -4.658  -2.080  -0.082  0.00  0.00    +0.025 A 
ATOM     25  C   UNL     1      -5.846  -1.439   0.207  0.00  0.00    +0.002 A 
ATOM     26  C   UNL     1      -6.018  -0.797   1.423  0.00  0.00    +0.001 A 
ATOM     27  C   UNL     1      -5.005  -0.793   2.357  0.00  0.00    +0.021 A 
ATOM     28  C   UNL     1      -3.800  -1.442   2.081  0.00  0.00    +0.073 A 
BRANCH  28  29
ATOM     29  C   UNL     1      -2.745  -1.446   3.050  0.00  0.00    +0.101 C 
ATOM     30  N   UNL     1      -1.909  -1.450   3.818  0.00  0.00    -0.191 NA
ENDBRANCH  28  29
ENDBRANCH   9  23
BRANCH   8  31
ATOM     31  N   UNL     1      -3.088  -4.636   1.831  0.00  0.00    -0.345 N 
ATOM     32  H   UNL     1      -3.775  -4.105   2.264  0.00  0.00    +0.144 HD
ATOM     33  H   UNL     1      -2.978  -5.571   2.065  0.00  0.00    +0.144 HD
ENDBRANCH   8  31
BRANCH   7  34
ATOM     34  C   UNL     1      -1.152  -6.183   0.643  0.00  0.00    +0.099 C 
ATOM     35  N   UNL     1      -1.028  -7.276   0.929  0.00  0.00    -0.191 NA
ENDBRANCH   7  34
TORSDOF 5
