REMARK  Name = ZINC10014839
REMARK  8 active torsions:
REMARK  status: ('A' for Active; 'I' for Inactive)
REMARK    1  A    between atoms: C_1  and  C_2
REMARK    2  A    between atoms: C_5  and  S_13
REMARK    3  A    between atoms: N_6  and  C_7
REMARK    4  A    between atoms: S_13  and  C_14
REMARK    5  A    between atoms: C_14  and  C_15
REMARK    6  A    between atoms: N_17  and  C_18
REMARK    7  A    between atoms: C_22  and  S_24
REMARK    8  A    between atoms: S_24  and  N_27
REMARK                            x       y       z     vdW  Elec       q    Type
REMARK                         _______ _______ _______ _____ _____    ______ ____
ROOT
ATOM      1  C   UNL     1       2.426  -0.238   0.081  0.00  0.00    +0.227 C 
ATOM      2  O   UNL     1       1.388  -0.864   0.088  0.00  0.00    -0.275 OA
ATOM      3  N   UNL     1       2.403   1.107  -0.014  0.00  0.00    -0.285 N 
ATOM      4  H   UNL     1       3.233   1.602  -0.087  0.00  0.00    +0.155 HD
ENDROOT
BRANCH   3   5
ATOM      5  C   UNL     1       1.180   1.787  -0.007  0.00  0.00    +0.035 A 
ATOM      6  C   UNL     1       1.079   3.031   0.601  0.00  0.00    +0.023 A 
ATOM      7  C   UNL     1      -0.130   3.698   0.610  0.00  0.00    +0.004 A 
ATOM      8  C   UNL     1      -1.238   3.132   0.004  0.00  0.00    +0.029 A 
ATOM      9  C   UNL     1      -1.141   1.894  -0.602  0.00  0.00    +0.114 A 
ATOM     10  C   UNL     1       0.065   1.220  -0.610  0.00  0.00    +0.052 A 
BRANCH   9  11
ATOM     11  S   UNL     1      -2.556   1.175  -1.367  0.00  0.00    +0.100 S 
ATOM     12  O   UNL     1      -3.427   2.247  -1.699  0.00  0.00    -0.146 OA
ATOM     13  O   UNL     1      -2.071   0.258  -2.338  0.00  0.00    -0.146 OA
BRANCH  11  14
ATOM     14  N   UNL     1      -3.332   0.276  -0.213  0.00  0.00    -0.118 NA
ATOM     15  C   UNL     1      -4.414  -0.366  -0.512  0.00  0.00    +0.117 C 
ATOM     16  C   UNL     1      -5.074  -0.371  -1.874  0.00  0.00    +0.074 C 
ATOM     17  C   UNL     1      -6.037  -1.581  -1.825  0.00  0.00    +0.026 C 
ATOM     18  C   UNL     1      -6.313  -1.712  -0.311  0.00  0.00    +0.103 C 
ATOM     19  N   UNL     1      -5.138  -1.137   0.355  0.00  0.00    -0.331 N 
ATOM     20  H   UNL     1      -4.905  -1.284   1.285  0.00  0.00    +0.147 HD
ENDBRANCH  11  14
ENDBRANCH   9  11
ENDBRANCH   3   5
BRANCH   1  21
ATOM     21  C   UNL     1       3.744  -0.963   0.179  0.00  0.00    +0.173 C 
BRANCH  21  22
ATOM     22  S   UNL     1       3.445  -2.744   0.294  0.00  0.00    -0.077 S 
BRANCH  22  27
ATOM     23  C   UNL     1       7.788  -5.785   0.662  0.00  0.00    +0.088 C 
ATOM     24  C   UNL     1       6.869  -4.596   0.546  0.00  0.00    +0.131 A 
ATOM     25  N   UNL     1       7.230  -3.346   0.472  0.00  0.00    -0.134 NA
ATOM     26  N   UNL     1       6.192  -2.592   0.382  0.00  0.00    -0.122 NA
ATOM     27  C   UNL     1       5.105  -3.327   0.394  0.00  0.00    +0.192 A 
ATOM     28  N   UNL     1       5.503  -4.629   0.505  0.00  0.00    -0.303 N 
BRANCH  28  29
ATOM     29  C   UNL     1       4.644  -5.814   0.565  0.00  0.00    +0.091 C 
ATOM     30  C   UNL     1       3.804  -5.900  -0.711  0.00  0.00    +0.025 C 
ATOM     31  C   UNL     1       2.908  -7.139  -0.649  0.00  0.00    +0.002 C 
ATOM     32  C   UNL     1       1.982  -7.038   0.565  0.00  0.00    +0.000 C 
ATOM     33  C   UNL     1       2.822  -6.951   1.841  0.00  0.00    +0.002 C 
ATOM     34  C   UNL     1       3.719  -5.713   1.778  0.00  0.00    +0.025 C 
ENDBRANCH  28  29
ENDBRANCH  22  27
ENDBRANCH  21  22
ENDBRANCH   1  21
TORSDOF 7
