REMARK  Name = ZINC40650146
REMARK  4 active torsions:
REMARK  status: ('A' for Active; 'I' for Inactive)
REMARK    1  A    between atoms: C_4  and  S_7
REMARK    2  A    between atoms: S_7  and  C_8
REMARK    3  A    between atoms: C_9  and  N_26
REMARK    4  A    between atoms: C_10  and  N_14
REMARK                            x       y       z     vdW  Elec       q    Type
REMARK                         _______ _______ _______ _____ _____    ______ ____
ROOT
ATOM      1  C   UNL     1       2.673  -3.212  -1.188  0.00  0.00    +0.137 A 
ATOM      2  C   UNL     1       3.701  -4.146  -1.278  0.00  0.00    +0.198 A 
ATOM      3  C   UNL     1       4.296  -4.587  -0.100  0.00  0.00    +0.156 A 
ATOM      4  N   UNL     1       3.864  -4.102   1.063  0.00  0.00    -0.218 NA
ATOM      5  C   UNL     1       2.888  -3.218   1.107  0.00  0.00    +0.224 A 
ATOM      6  N   UNL     1       2.302  -2.772   0.014  0.00  0.00    -0.226 NA
ENDROOT
BRANCH   3   7
ATOM      7  N   UNL     1       5.324  -5.516  -0.136  0.00  0.00    -0.310 N 
ATOM      8  C   UNL     1       6.715  -5.087  -0.334  0.00  0.00    +0.125 C 
ATOM      9  C   UNL     1       7.564  -5.628   0.823  0.00  0.00    +0.125 C 
ATOM     10  N   UNL     1       7.282  -7.061   0.982  0.00  0.00    -0.314 N 
ATOM     11  C   UNL     1       5.891  -7.491   1.180  0.00  0.00    +0.125 C 
ATOM     12  C   UNL     1       5.042  -6.949   0.029  0.00  0.00    +0.125 C 
ATOM     13  C   UNL     1       8.312  -7.994   0.946  0.00  0.00    +0.099 A 
ATOM     14  C   UNL     1       9.633  -7.560   0.896  0.00  0.00    +0.042 A 
ATOM     15  C   UNL     1      10.648  -8.499   0.860  0.00  0.00    +0.005 A 
ATOM     16  C   UNL     1      10.307  -9.845   0.876  0.00  0.00    +0.018 A 
ATOM     17  C   UNL     1       8.976 -10.204   0.926  0.00  0.00    +0.084 A 
ATOM     18  N   UNL     1       8.028  -9.287   0.965  0.00  0.00    -0.350 N 
ATOM     19  H   UNL     1       7.100  -9.567   1.004  0.00  0.00    +0.166 HD
ENDBRANCH   3   7
BRANCH   2  20
ATOM     20  N   UNL     1       4.149  -4.658  -2.593  0.00  0.00    +0.062 N 
ATOM     21  O   UNL     1       5.090  -4.145  -3.152  0.00  0.00    -0.126 OA
ATOM     22  O   UNL     1       3.574  -5.589  -3.107  0.00  0.00    -0.126 OA
ENDBRANCH   2  20
BRANCH   1  23
ATOM     23  S   UNL     1       1.879  -2.614  -2.642  0.00  0.00    -0.068 S 
BRANCH  23  27
ATOM     24  C   UNL     1      -0.946   0.581  -1.115  0.00  0.00    +0.000 A 
ATOM     25  C   UNL     1       0.374   0.897  -1.381  0.00  0.00    +0.001 A 
ATOM     26  C   UNL     1       1.238  -0.075  -1.846  0.00  0.00    +0.015 A 
ATOM     27  C   UNL     1       0.780  -1.371  -2.048  0.00  0.00    +0.014 A 
ATOM     28  C   UNL     1      -0.547  -1.685  -1.779  0.00  0.00    +0.015 A 
ATOM     29  C   UNL     1      -1.405  -0.709  -1.314  0.00  0.00    +0.001 A 
ENDBRANCH  23  27
ENDBRANCH   1  23
TORSDOF 4
