REMARK  Name = ZINC02214614
REMARK  5 active torsions:
REMARK  status: ('A' for Active; 'I' for Inactive)
REMARK    1  A    between atoms: C_1  and  C_2
REMARK    2  A    between atoms: C_2  and  C_24
REMARK    3  A    between atoms: C_10  and  S_14
REMARK    4  A    between atoms: S_14  and  C_15
REMARK    5  A    between atoms: C_15  and  C_16
REMARK                            x       y       z     vdW  Elec       q    Type
REMARK                         _______ _______ _______ _____ _____    ______ ____
ROOT
ATOM      1  C   UNL     1      -0.019   1.526   0.010  0.00  0.00    +0.041 C 
ATOM      2  C   UNL     1       0.002  -0.004   0.002  0.00  0.00    +0.070 C 
ATOM      3  C   UNL     1       0.737  -0.501  -1.243  0.00  0.00    +0.090 C 
ATOM      4  C   UNL     1       0.991  -1.985  -1.129  0.00  0.00    +0.053 A 
ATOM      5  C   UNL     1       0.910  -2.627   0.092  0.00  0.00    +0.000 A 
ATOM      6  C   UNL     1       1.156  -3.989   0.162  0.00  0.00    +0.023 A 
ATOM      7  C   UNL     1       1.475  -4.665  -1.012  0.00  0.00    +0.066 A 
ATOM      8  C   UNL     1       1.796  -6.061  -1.346  0.00  0.00    +0.123 A 
ATOM      9  C   UNL     1       2.022  -6.074  -2.727  0.00  0.00    +0.188 A 
ATOM     10  C   UNL     1       2.353  -7.297  -3.324  0.00  0.00    +0.144 A 
ATOM     11  N   UNL     1       2.437  -8.381  -2.558  0.00  0.00    -0.225 NA
ATOM     12  C   UNL     1       2.213  -8.321  -1.259  0.00  0.00    +0.223 A 
ATOM     13  N   UNL     1       1.900  -7.194  -0.655  0.00  0.00    -0.231 NA
ATOM     14  O   UNL     1       1.860  -4.824  -3.205  0.00  0.00    -0.433 OA
ATOM     15  C   UNL     1       1.537  -3.956  -2.222  0.00  0.00    +0.230 A 
ATOM     16  N   UNL     1       1.294  -2.654  -2.229  0.00  0.00    -0.217 NA
ATOM     17  C   UNL     1       0.554  -1.889   1.355  0.00  0.00    +0.197 C 
ATOM     18  O   UNL     1       0.694  -0.482   1.161  0.00  0.00    -0.369 OA
ATOM     19  C   UNL     1      -1.432  -0.537   0.004  0.00  0.00    +0.041 C 
ENDROOT
BRANCH  10  20
ATOM     20  S   UNL     1       2.654  -7.398  -5.057  0.00  0.00    -0.093 S 
BRANCH  20  21
ATOM     21  C   UNL     1       3.034  -9.149  -5.336  0.00  0.00    +0.171 C 
BRANCH  21  22
ATOM     22  C   UNL     1       3.315  -9.376  -6.799  0.00  0.00    +0.221 C 
ATOM     23  O   UNL     1       3.263  -8.447  -7.577  0.00  0.00    -0.275 OA
ATOM     24  N   UNL     1       3.623 -10.610  -7.243  0.00  0.00    -0.329 N 
ATOM     25  H   UNL     1       3.665 -11.353  -6.620  0.00  0.00    +0.145 HD
ATOM     26  H   UNL     1       3.804 -10.756  -8.185  0.00  0.00    +0.145 HD
ENDBRANCH  21  22
ENDBRANCH  20  21
ENDBRANCH  10  20
TORSDOF 3
