REMARK  Name = ZINC17543306
REMARK  8 active torsions:
REMARK  status: ('A' for Active; 'I' for Inactive)
REMARK    1  A    between atoms: C_1  and  C_2
REMARK    2  A    between atoms: N_5  and  S_11
REMARK    3  A    between atoms: C_7  and  C_10
REMARK    4  A    between atoms: S_11  and  C_14
REMARK    5  A    between atoms: C_17  and  C_20
REMARK    6  A    between atoms: C_20  and  O_22
REMARK    7  A    between atoms: O_22  and  C_23
REMARK    8  A    between atoms: C_23  and  C_24
REMARK                            x       y       z     vdW  Elec       q    Type
REMARK                         _______ _______ _______ _____ _____    ______ ____
ROOT
ATOM      1  C   UNL     1      -3.720   3.284   0.037  0.00  0.00    +0.106 A 
ATOM      2  C   UNL     1      -3.705   1.900   0.030  0.00  0.00    +0.029 A 
ATOM      3  C   UNL     1      -2.505   1.220   0.021  0.00  0.00    +0.017 A 
ATOM      4  C   UNL     1      -1.304   1.932   0.019  0.00  0.00    +0.059 A 
ATOM      5  C   UNL     1      -1.326   3.328   0.032  0.00  0.00    +0.017 A 
ATOM      6  C   UNL     1      -2.534   3.995   0.036  0.00  0.00    +0.029 A 
ENDROOT
BRANCH   1   7
ATOM      7  S   UNL     1      -5.258   4.144   0.050  0.00  0.00    +0.061 S 
ATOM      8  O   UNL     1      -5.008   5.432  -0.495  0.00  0.00    -0.153 OA
ATOM      9  O   UNL     1      -6.223   3.258  -0.501  0.00  0.00    -0.153 OA
BRANCH   7  13
ATOM     10  C   UNL     1      -3.295   4.418   3.398  0.00  0.00    +0.039 C 
ATOM     11  C   UNL     1      -4.610   5.146   3.685  0.00  0.00    +0.131 C 
ATOM     12  C   UNL     1      -5.253   5.581   2.363  0.00  0.00    +0.140 C 
ATOM     13  N   UNL     1      -5.678   4.374   1.635  0.00  0.00    -0.172 NA
ATOM     14  C   UNL     1      -6.490   3.382   2.356  0.00  0.00    +0.140 C 
ATOM     15  C   UNL     1      -5.782   3.052   3.680  0.00  0.00    +0.131 C 
ATOM     16  O   UNL     1      -5.501   4.268   4.377  0.00  0.00    -0.371 OA
ATOM     17  C   UNL     1      -6.690   2.170   4.538  0.00  0.00    +0.039 C 
ENDBRANCH   7  13
ENDBRANCH   1   7
BRANCH   4  18
ATOM     18  C   UNL     1      -0.014   1.210   0.009  0.00  0.00    +0.339 C 
ATOM     19  O   UNL     1       0.002  -0.004   0.002  0.00  0.00    -0.245 OA
BRANCH  18  20
ATOM     20  O   UNL     1       1.143   1.900   0.001  0.00  0.00    -0.456 OA
BRANCH  20  21
ATOM     21  C   UNL     1       2.371   1.126  -0.015  0.00  0.00    +0.268 C 
BRANCH  21  22
ATOM     22  C   UNL     1       3.554   2.060  -0.021  0.00  0.00    -0.005 A 
ATOM     23  C   UNL     1       4.106   2.481   1.176  0.00  0.00    +0.056 A 
ATOM     24  C   UNL     1       5.192   3.340   1.167  0.00  0.00    +0.164 A 
ATOM     25  C   UNL     1       5.724   3.775  -0.039  0.00  0.00    +0.180 A 
ATOM     26  C   UNL     1       5.169   3.352  -1.235  0.00  0.00    +0.087 A 
ATOM     27  C   UNL     1       4.086   2.489  -1.222  0.00  0.00    +0.031 A 
ATOM     28 CL   UNL     1       5.832   3.895  -2.745  0.00  0.00    -0.080 Cl
ATOM     29  O   UNL     1       6.795   4.622  -0.037  0.00  0.00    -0.487 OA
ATOM     30  C   UNL     1       8.028   4.069   0.427  0.00  0.00    +0.232 C 
ATOM     31  C   UNL     1       8.112   4.138   1.944  0.00  0.00    +0.082 C 
ATOM     32  C   UNL     1       7.059   3.276   2.623  0.00  0.00    +0.232 C 
ATOM     33  O   UNL     1       5.746   3.763   2.340  0.00  0.00    -0.488 OA
ENDBRANCH  21  22
ENDBRANCH  20  21
ENDBRANCH  18  20
ENDBRANCH   4  18
TORSDOF 6
