REMARK  Name = ZINC65461761
REMARK  5 active torsions:
REMARK  status: ('A' for Active; 'I' for Inactive)
REMARK    1  A    between atoms: C_1  and  C_2
REMARK    2  A    between atoms: C_3  and  C_13
REMARK    3  A    between atoms: C_5  and  C_7
REMARK    4  A    between atoms: C_23  and  C_27
REMARK    5  A    between atoms: N_29  and  C_30
REMARK                            x       y       z     vdW  Elec       q    Type
REMARK                         _______ _______ _______ _____ _____    ______ ____
ROOT
ATOM      1  C   UNL     1      -2.513  -0.381   0.012  0.00  0.00    +0.059 C 
ATOM      2  C   UNL     1      -3.208  -0.936   1.259  0.00  0.00    +0.106 C 
ATOM      3  C   UNL     1      -4.377  -1.824   0.963  0.00  0.00    +0.215 C 
ATOM      4  O   UNL     1      -5.335  -1.799   1.707  0.00  0.00    -0.276 OA
ATOM      5  N   UNL     1      -4.404  -2.661  -0.116  0.00  0.00    -0.292 N 
ATOM      6  C   UNL     1      -3.285  -2.468  -1.027  0.00  0.00    +0.220 C 
ATOM      7  C   UNL     1      -3.212  -0.915  -1.220  0.00  0.00    +0.078 C 
ATOM      8  C   UNL     1      -2.402  -0.909  -2.523  0.00  0.00    +0.220 C 
ATOM      9  N   UNL     1      -2.890  -2.135  -3.196  0.00  0.00    -0.177 NA
ATOM     10  N   UNL     1      -3.383  -2.965  -2.382  0.00  0.00    -0.169 NA
ATOM     11  H   UNL     1      -5.101  -3.320  -0.261  0.00  0.00    +0.151 HD
ENDROOT
BRANCH   1  14
ATOM     12  C   UNL     1      -0.018   1.503   0.010  0.00  0.00    +0.088 C 
ATOM     13  C   UNL     1       0.002  -0.004   0.002  0.00  0.00    +0.126 A 
ATOM     14  C   UNL     1      -1.071  -0.816   0.003  0.00  0.00    +0.087 A 
ATOM     15  N   UNL     1      -0.627  -2.083  -0.006  0.00  0.00    -0.213 NA
ATOM     16  C   UNL     1       0.685  -2.068  -0.012  0.00  0.00    +0.228 A 
ATOM     17  O   UNL     1       1.098  -0.788  -0.013  0.00  0.00    -0.440 OA
BRANCH  16  18
ATOM     18  C   UNL     1       1.562  -3.258  -0.023  0.00  0.00    +0.037 A 
ATOM     19  C   UNL     1       1.006  -4.538  -0.033  0.00  0.00    +0.013 A 
ATOM     20  C   UNL     1       1.830  -5.644  -0.043  0.00  0.00    +0.001 A 
ATOM     21  C   UNL     1       3.204  -5.487  -0.043  0.00  0.00    +0.000 A 
ATOM     22  C   UNL     1       3.762  -4.221  -0.033  0.00  0.00    +0.001 A 
ATOM     23  C   UNL     1       2.949  -3.106  -0.028  0.00  0.00    +0.013 A 
ENDBRANCH  16  18
ENDBRANCH   1  14
BRANCH   8  24
ATOM     24  C   UNL     1      -2.712   0.316  -3.344  0.00  0.00    +0.240 C 
ATOM     25  O   UNL     1      -3.481   0.241  -4.278  0.00  0.00    -0.273 OA
ATOM     26  N   UNL     1      -2.134   1.495  -3.039  0.00  0.00    -0.317 N 
ATOM     27  C   UNL     1      -2.436   2.686  -3.837  0.00  0.00    +0.128 C 
ATOM     28  H   UNL     1      -1.519   1.555  -2.292  0.00  0.00    +0.148 HD
ENDBRANCH   8  24
TORSDOF 3
