REMARK  Name = ZINC20207981
REMARK  7 active torsions:
REMARK  status: ('A' for Active; 'I' for Inactive)
REMARK    1  A    between atoms: C_1  and  C_2
REMARK    2  A    between atoms: C_5  and  C_8
REMARK    3  A    between atoms: C_8  and  O_10
REMARK    4  A    between atoms: O_10  and  C_11
REMARK    5  A    between atoms: C_14  and  C_18
REMARK    6  A    between atoms: C_28  and  S_30
REMARK    7  A    between atoms: S_30  and  C_33
REMARK                            x       y       z     vdW  Elec       q    Type
REMARK                         _______ _______ _______ _____ _____    ______ ____
ROOT
ATOM      1  C   UNL     1      -0.585  -6.318   0.512  0.00  0.00    +0.150 A 
ATOM      2  C   UNL     1      -0.633  -7.024  -0.685  0.00  0.00    +0.048 A 
ATOM      3  C   UNL     1      -0.387  -8.378  -0.699  0.00  0.00    +0.011 A 
ATOM      4  C   UNL     1      -0.086  -9.046   0.496  0.00  0.00    -0.023 A 
ATOM      5  C   UNL     1      -0.038  -8.330   1.701  0.00  0.00    +0.031 A 
ATOM      6  C   UNL     1      -0.281  -6.974   1.702  0.00  0.00    +0.084 A 
ATOM      7 CL   UNL     1      -0.216  -6.084   3.191  0.00  0.00    -0.080 Cl
ENDROOT
BRANCH   4   8
ATOM      8  C   UNL     1       0.177 -10.487   0.487  0.00  0.00    +0.024 C 
ATOM      9  C   UNL     1       0.914 -11.046  -0.532  0.00  0.00    +0.081 C 
ATOM     10  C   UNL     1       1.617 -10.207  -1.544  0.00  0.00    +0.153 C 
ATOM     11  N   UNL     1       2.129  -9.036  -1.275  0.00  0.00    -0.283 NA
ATOM     12  N   UNL     1       1.674 -10.803  -2.823  0.00  0.00    -0.150 N 
ATOM     13  C   UNL     1       1.564 -12.175  -2.891  0.00  0.00    +0.182 C 
ATOM     14  N   UNL     1       1.314 -13.006  -1.910  0.00  0.00    -0.152 NA
ATOM     15  C   UNL     1       1.058 -12.516  -0.679  0.00  0.00    +0.273 C 
ATOM     16  O   UNL     1       0.944 -13.258   0.284  0.00  0.00    -0.268 OA
ATOM     17  S   UNL     1       1.823 -12.483  -4.618  0.00  0.00    -0.015 S 
ATOM     18  C   UNL     1       1.957 -10.779  -5.142  0.00  0.00    +0.235 C 
ATOM     19  N   UNL     1       1.844 -10.134  -4.016  0.00  0.00    -0.145 NA
ATOM     20  H   UNL     1       2.513  -8.499  -1.986  0.00  0.00    +0.188 HD
BRANCH  18  21
ATOM     21  S   UNL     1       2.185 -10.136  -6.767  0.00  0.00    +0.019 S 
ATOM     22  O   UNL     1       1.538 -11.070  -7.620  0.00  0.00    -0.168 OA
ATOM     23  O   UNL     1       1.734  -8.791  -6.691  0.00  0.00    -0.168 OA
ATOM     24  C   UNL     1       3.978 -10.179  -7.037  0.00  0.00    +0.202 C 
ENDBRANCH  18  21
ENDBRANCH   4   8
BRANCH   1  25
ATOM     25  O   UNL     1      -0.829  -4.983   0.520  0.00  0.00    -0.421 OA
BRANCH  25  26
ATOM     26  C   UNL     1       0.225  -4.147   0.448  0.00  0.00    +0.344 C 
ATOM     27  O   UNL     1       1.356  -4.591   0.471  0.00  0.00    -0.245 OA
BRANCH  26  32
ATOM     28  C   UNL     1      -0.628   1.527   0.027  0.00  0.00    +0.044 C 
ATOM     29  C   UNL     1      -0.405   0.041   0.137  0.00  0.00    -0.050 A 
ATOM     30  C   UNL     1       0.884  -0.461   0.164  0.00  0.00    +0.004 A 
ATOM     31  C   UNL     1       1.096  -1.821   0.265  0.00  0.00    +0.015 A 
ATOM     32  C   UNL     1       0.006  -2.690   0.340  0.00  0.00    +0.059 A 
ATOM     33  C   UNL     1      -1.292  -2.176   0.313  0.00  0.00    +0.015 A 
ATOM     34  C   UNL     1      -1.489  -0.814   0.217  0.00  0.00    +0.004 A 
ENDBRANCH  26  32
ENDBRANCH  25  26
ENDBRANCH   1  25
TORSDOF 5
