REMARK  Name = ZINC13857855
REMARK  9 active torsions:
REMARK  status: ('A' for Active; 'I' for Inactive)
REMARK    1  A    between atoms: C_1  and  C_2
REMARK    2  A    between atoms: C_2  and  C_4
REMARK    3  A    between atoms: C_8  and  N_10
REMARK    4  A    between atoms: C_11  and  C_13
REMARK    5  A    between atoms: C_13  and  C_15
REMARK    6  A    between atoms: C_13  and  N_19
REMARK    7  A    between atoms: C_15  and  C_16
REMARK    8  A    between atoms: C_16  and  S_17
REMARK    9  A    between atoms: S_17  and  C_18
REMARK                            x       y       z     vdW  Elec       q    Type
REMARK                         _______ _______ _______ _____ _____    ______ ____
ROOT
ATOM      1  N   UNL     1      -4.944  -6.939   0.345  0.00  0.00    -0.230 N 
ATOM      2  C   UNL     1      -5.804  -6.581   1.355  0.00  0.00    +0.227 C 
ATOM      3  O   UNL     1      -5.530  -5.991   2.378  0.00  0.00    -0.275 OA
ATOM      4  C   UNL     1      -7.130  -7.067   0.932  0.00  0.00    +0.100 C 
ATOM      5  C   UNL     1      -6.692  -8.316   0.124  0.00  0.00    +0.100 C 
ATOM      6  C   UNL     1      -5.509  -7.812  -0.560  0.00  0.00    +0.227 C 
ATOM      7  O   UNL     1      -5.111  -8.096  -1.670  0.00  0.00    -0.275 OA
ATOM      8  C   UNL     1      -7.865  -9.141  -0.208  0.00  0.00    +0.062 C 
ATOM      9  C   UNL     1      -9.107  -8.294  -0.391  0.00  0.00    -0.035 A 
ATOM     10  C   UNL     1      -9.915  -8.313  -1.494  0.00  0.00    +0.004 A 
ATOM     11  C   UNL     1     -11.052  -7.518  -1.508  0.00  0.00    +0.000 A 
ATOM     12  C   UNL     1     -11.371  -6.719  -0.425  0.00  0.00    +0.000 A 
ATOM     13  C   UNL     1     -10.538  -6.686   0.688  0.00  0.00    +0.004 A 
ATOM     14  C   UNL     1      -9.415  -7.451   0.681  0.00  0.00    -0.035 A 
ATOM     15  C   UNL     1      -8.308  -7.440   1.787  0.00  0.00    +0.062 C 
ATOM     16  C   UNL     1      -8.250  -8.915   2.174  0.00  0.00    -0.035 A 
ATOM     17  C   UNL     1      -8.108  -9.816   1.148  0.00  0.00    -0.035 A 
ATOM     18  C   UNL     1      -8.141 -11.154   1.375  0.00  0.00    +0.004 A 
ATOM     19  C   UNL     1      -8.315 -11.602   2.681  0.00  0.00    +0.000 A 
ATOM     20  C   UNL     1      -8.447 -10.693   3.714  0.00  0.00    +0.000 A 
ATOM     21  C   UNL     1      -8.373  -9.370   3.459  0.00  0.00    +0.004 A 
ENDROOT
BRANCH   1  22
ATOM     22  C   UNL     1      -3.570  -6.440   0.238  0.00  0.00    +0.171 C 
BRANCH  22  24
ATOM     23  N   UNL     1      -2.432  -4.255   0.015  0.00  0.00    -0.284 N 
ATOM     24  C   UNL     1      -3.589  -4.937   0.126  0.00  0.00    +0.238 C 
ATOM     25  O   UNL     1      -4.646  -4.342   0.134  0.00  0.00    -0.273 OA
ATOM     26  H   UNL     1      -1.593  -4.734  -0.068  0.00  0.00    +0.155 HD
BRANCH  23  31
ATOM     27  C   UNL     1      -3.387  -0.775   0.780  0.00  0.00    +0.019 A 
ATOM     28  C   UNL     1      -2.443  -0.077   0.020  0.00  0.00    +0.011 A 
ATOM     29  C   UNL     1      -1.512  -0.768  -0.727  0.00  0.00    +0.002 A 
ATOM     30  C   UNL     1      -1.508  -2.151  -0.729  0.00  0.00    +0.023 A 
ATOM     31  C   UNL     1      -2.442  -2.856   0.022  0.00  0.00    +0.034 A 
ATOM     32  C   UNL     1      -3.378  -2.173   0.782  0.00  0.00    +0.034 A 
BRANCH  27  34
ATOM     33  C   UNL     1      -4.389   1.465   1.574  0.00  0.00    +0.091 C 
ATOM     34  C   UNL     1      -4.382  -0.042   1.579  0.00  0.00    +0.160 C 
ATOM     35  O   UNL     1      -5.196  -0.650   2.240  0.00  0.00    -0.292 OA
ENDBRANCH  27  34
ENDBRANCH  23  31
ENDBRANCH  22  24
BRANCH  22  36
ATOM     36  C   UNL     1      -2.781  -6.848   1.483  0.00  0.00    +0.043 C 
BRANCH  36  37
ATOM     37  C   UNL     1      -2.655  -8.372   1.531  0.00  0.00    +0.071 C 
BRANCH  37  38
ATOM     38  S   UNL     1      -1.719  -8.856   3.007  0.00  0.00    -0.164 S 
ATOM     39  C   UNL     1      -1.660 -10.667   2.915  0.00  0.00    +0.084 C 
ENDBRANCH  37  38
ENDBRANCH  36  37
ENDBRANCH  22  36
ENDBRANCH   1  22
TORSDOF 7
