REMARK  Name = ZINC59850885
REMARK  5 active torsions:
REMARK  status: ('A' for Active; 'I' for Inactive)
REMARK    1  A    between atoms: C_3  and  N_16
REMARK    2  A    between atoms: C_5  and  S_7
REMARK    3  A    between atoms: S_7  and  N_10
REMARK    4  A    between atoms: C_17  and  C_19
REMARK    5  A    between atoms: N_22  and  C_24
REMARK                            x       y       z     vdW  Elec       q    Type
REMARK                         _______ _______ _______ _____ _____    ______ ____
ROOT
ATOM      1  C   UNL     1      -0.013   1.375  -0.180  0.00  0.00    +0.004 A 
ATOM      2  C   UNL     1       1.175   2.081  -0.183  0.00  0.00    +0.023 A 
ATOM      3  C   UNL     1       2.380   1.411  -0.018  0.00  0.00    +0.036 A 
ATOM      4  C   UNL     1       2.387   0.032   0.148  0.00  0.00    +0.052 A 
ATOM      5  C   UNL     1       1.197  -0.668   0.150  0.00  0.00    +0.114 A 
ATOM      6  C   UNL     1      -0.002   0.002  -0.014  0.00  0.00    +0.029 A 
ENDROOT
BRANCH   3   7
ATOM      7  N   UNL     1       3.583   2.123  -0.021  0.00  0.00    -0.280 N 
ATOM      8  C   UNL     1       3.627   3.374   0.478  0.00  0.00    +0.268 C 
ATOM      9  O   UNL     1       2.646   3.848   1.017  0.00  0.00    -0.268 OA
ATOM     10  H   UNL     1       4.387   1.716  -0.383  0.00  0.00    +0.155 HD
BRANCH   8  11
ATOM     11  C   UNL     1       4.867   4.169   0.370  0.00  0.00    +0.148 A 
ATOM     12  C   UNL     1       5.066   5.486   0.849  0.00  0.00    +0.054 A 
ATOM     13  C   UNL     1       6.343   5.800   0.527  0.00  0.00    +0.115 A 
ATOM     14  N   UNL     1       6.872   4.723  -0.110  0.00  0.00    -0.239 N 
ATOM     15  N   UNL     1       5.999   3.783  -0.185  0.00  0.00    -0.162 NA
BRANCH  14  16
ATOM     16  C   UNL     1       8.180   4.646  -0.606  0.00  0.00    +0.067 A 
ATOM     17  C   UNL     1       9.044   5.723  -0.457  0.00  0.00    +0.028 A 
ATOM     18  C   UNL     1      10.333   5.644  -0.947  0.00  0.00    +0.003 A 
ATOM     19  C   UNL     1      10.764   4.496  -1.585  0.00  0.00    +0.020 A 
ATOM     20  C   UNL     1       9.905   3.421  -1.735  0.00  0.00    +0.043 A 
ATOM     21  C   UNL     1       8.616   3.491  -1.241  0.00  0.00    +0.047 A 
ATOM     22 CL   UNL     1      10.449   1.981  -2.537  0.00  0.00    -0.083 Cl
ENDBRANCH  14  16
ENDBRANCH   8  11
ENDBRANCH   3   7
BRANCH   5  23
ATOM     23  S   UNL     1       1.205  -2.417   0.361  0.00  0.00    +0.100 S 
ATOM     24  O   UNL     1       0.002  -2.902  -0.220  0.00  0.00    -0.146 OA
ATOM     25  O   UNL     1       2.487  -2.870  -0.052  0.00  0.00    -0.146 OA
BRANCH  23  26
ATOM     26  N   UNL     1       1.099  -2.715   1.987  0.00  0.00    -0.118 NA
ATOM     27  C   UNL     1       1.085  -3.933   2.421  0.00  0.00    +0.117 C 
ATOM     28  N   UNL     1       1.159  -5.053   1.637  0.00  0.00    -0.331 N 
ATOM     29  C   UNL     1       1.602  -6.192   2.458  0.00  0.00    +0.103 C 
ATOM     30  C   UNL     1       1.061  -5.882   3.872  0.00  0.00    +0.026 C 
ATOM     31  C   UNL     1       0.992  -4.340   3.876  0.00  0.00    +0.074 C 
ATOM     32  H   UNL     1       0.952  -5.090   0.690  0.00  0.00    +0.147 HD
ENDBRANCH  23  26
ENDBRANCH   5  23
TORSDOF 5
