REMARK  Name = ZINC15548533
REMARK  10 active torsions:
REMARK  status: ('A' for Active; 'I' for Inactive)
REMARK    1  A    between atoms: C_1  and  C_2
REMARK    2  A    between atoms: C_2  and  O_3
REMARK    3  A    between atoms: O_3  and  C_4
REMARK    4  A    between atoms: C_7  and  C_10
REMARK    5  A    between atoms: C_15  and  C_16
REMARK    6  A    between atoms: C_15  and  N_55
REMARK    7  A    between atoms: C_22  and  C_31
REMARK    8  A    between atoms: C_23  and  C_27
REMARK    9  A    between atoms: C_27  and  O_29
REMARK   10  A    between atoms: O_29  and  C_30
REMARK                            x       y       z     vdW  Elec       q    Type
REMARK                         _______ _______ _______ _____ _____    ______ ____
ROOT
ATOM      1  C   UNL     1       0.089  -3.366   4.543  0.00  0.00    -0.002 C 
ENDROOT
BRANCH   1   2
ATOM      2  C   UNL     1       0.065  -2.418   3.372  0.00  0.00    +0.094 A 
ATOM      3  N   UNL     1       0.050  -1.083   3.606  0.00  0.00    -0.312 N 
ATOM      4  H   UNL     1       0.054  -0.761   4.521  0.00  0.00    +0.170 HD
ATOM      5  C   UNL     1       0.029  -0.194   2.594  0.00  0.00    +0.260 A 
ATOM      6  O   UNL     1       0.016   1.004   2.815  0.00  0.00    -0.267 OA
ATOM      7  C   UNL     1       0.023  -0.710   1.206  0.00  0.00    +0.076 A 
ATOM      8  C   UNL     1       0.002  -0.004   0.002  0.00  0.00    -0.015 A 
ATOM      9  C   UNL     1      -0.006  -0.682  -1.183  0.00  0.00    +0.102 A 
ATOM     10  S   UNL     1       0.028  -2.389  -0.661  0.00  0.00    -0.062 S 
ATOM     11  C   UNL     1       0.041  -2.120   1.093  0.00  0.00    +0.116 A 
ATOM     12  N   UNL     1       0.061  -2.907   2.161  0.00  0.00    -0.229 NA
ATOM     13  C   UNL     1      -0.018   1.503   0.010  0.00  0.00    +0.046 C 
BRANCH   9  14
ATOM     14  C   UNL     1      -0.033  -0.143  -2.544  0.00  0.00    +0.346 C 
ATOM     15  O   UNL     1      -0.052   1.060  -2.721  0.00  0.00    -0.244 OA
BRANCH  14  16
ATOM     16  O   UNL     1      -0.036  -0.981  -3.602  0.00  0.00    -0.464 OA
ATOM     17  C   UNL     1      -0.064  -0.376  -4.921  0.00  0.00    +0.280 C 
ENDBRANCH  14  16
ENDBRANCH   9  14
ENDBRANCH   1   2
BRANCH   1  22
ATOM     18  C   UNL     1      -0.131  -5.707   5.156  0.00  0.00    -0.037 C 
ATOM     19  C   UNL     1       0.713  -6.952   4.786  0.00  0.00    -0.013 C 
ATOM     20  C   UNL     1       1.971  -6.302   4.152  0.00  0.00    -0.020 C 
ATOM     21  C   UNL     1       1.394  -5.073   3.418  0.00  0.00    -0.077 C 
ATOM     22  N   UNL     1       0.097  -4.765   4.041  0.00  0.00    +0.389 N 
ATOM     23  H   UNL     1      -0.649  -4.876   3.345  0.00  0.00    -0.080 HD
BRANCH  18  27
ATOM     24  C   UNL     1      -4.273  -6.729   5.386  0.00  0.00    +0.121 A 
ATOM     25  C   UNL     1      -3.542  -6.527   6.548  0.00  0.00    +0.046 A 
ATOM     26  C   UNL     1      -2.203  -6.196   6.471  0.00  0.00    +0.005 A 
ATOM     27  C   UNL     1      -1.591  -6.067   5.237  0.00  0.00    -0.061 A 
ATOM     28  C   UNL     1      -2.320  -6.263   4.078  0.00  0.00    +0.005 A 
ATOM     29  C   UNL     1      -3.658  -6.599   4.150  0.00  0.00    +0.046 A 
BRANCH  24  30
ATOM     30  O   UNL     1      -5.591  -7.055   5.460  0.00  0.00    -0.492 OA
BRANCH  30  32
ATOM     31  C   UNL     1      -7.742  -7.606   4.505  0.00  0.00    +0.048 C 
ATOM     32  C   UNL     1      -6.281  -7.248   4.223  0.00  0.00    +0.225 C 
ENDBRANCH  30  32
ENDBRANCH  24  30
ENDBRANCH  18  27
ENDBRANCH   1  22
TORSDOF 7
