REMARK  Name = ZINC13033857
REMARK  9 active torsions:
REMARK  status: ('A' for Active; 'I' for Inactive)
REMARK    1  A    between atoms: C_1  and  C_2
REMARK    2  A    between atoms: C_5  and  C_8
REMARK    3  A    between atoms: C_8  and  N_9
REMARK    4  A    between atoms: N_9  and  C_10
REMARK    5  A    between atoms: N_9  and  C_27
REMARK    6  A    between atoms: C_10  and  C_11
REMARK    7  A    between atoms: C_27  and  C_28
REMARK    8  A    between atoms: N_32  and  C_33
REMARK    9  A    between atoms: C_33  and  C_34
REMARK                            x       y       z     vdW  Elec       q    Type
REMARK                         _______ _______ _______ _____ _____    ______ ____
ROOT
ATOM      1  N   UNL     1       1.446  -4.745  -0.159  0.00  0.00    +0.390 N 
ATOM      2  H   UNL     1       1.845  -4.207  -0.914  0.00  0.00    -0.080 HD
ENDROOT
BRANCH   1   3
ATOM      3  C   UNL     1       0.034  -4.378   0.010  0.00  0.00    -0.042 C 
BRANCH   3   8
ATOM      4  C   UNL     1      -0.388   1.316   0.901  0.00  0.00    +0.044 C 
ATOM      5  C   UNL     1      -0.278  -0.169   0.669  0.00  0.00    -0.050 A 
ATOM      6  C   UNL     1      -0.198  -0.663  -0.620  0.00  0.00    +0.003 A 
ATOM      7  C   UNL     1      -0.098  -2.025  -0.833  0.00  0.00    +0.002 A 
ATOM      8  C   UNL     1      -0.075  -2.893   0.243  0.00  0.00    -0.064 A 
ATOM      9  C   UNL     1      -0.153  -2.399   1.532  0.00  0.00    +0.002 A 
ATOM     10  C   UNL     1      -0.250  -1.037   1.745  0.00  0.00    +0.003 A 
ENDBRANCH   3   8
ENDBRANCH   1   3
BRANCH   1  11
ATOM     11  C   UNL     1       1.546  -6.177  -0.470  0.00  0.00    -0.036 C 
BRANCH  11  12
ATOM     12  C   UNL     1       0.902  -6.446  -1.806  0.00  0.00    +0.001 A 
ATOM     13  C   UNL     1       1.664  -6.484  -2.929  0.00  0.00    +0.017 A 
ATOM     14  C   UNL     1       1.009  -6.748  -4.209  0.00  0.00    +0.002 A 
ATOM     15  C   UNL     1       1.744  -6.798  -5.400  0.00  0.00    +0.059 A 
ATOM     16  C   UNL     1       1.100  -7.050  -6.593  0.00  0.00    +0.163 A 
ATOM     17  C   UNL     1      -0.283  -7.258  -6.616  0.00  0.00    +0.164 A 
ATOM     18  C   UNL     1      -1.018  -7.208  -5.444  0.00  0.00    +0.075 A 
ATOM     19  C   UNL     1      -0.384  -6.955  -4.234  0.00  0.00    +0.053 A 
ATOM     20  N   UNL     1      -1.101  -6.902  -3.056  0.00  0.00    -0.322 N 
ATOM     21  H   UNL     1      -2.060  -7.044  -3.074  0.00  0.00    +0.169 HD
ATOM     22  C   UNL     1      -0.488  -6.663  -1.883  0.00  0.00    +0.251 A 
ATOM     23  O   UNL     1      -1.153  -6.630  -0.862  0.00  0.00    -0.268 OA
ATOM     24  O   UNL     1      -0.925  -7.516  -7.787  0.00  0.00    -0.485 OA
ATOM     25  C   UNL     1      -0.223  -7.189  -8.992  0.00  0.00    +0.270 C 
ATOM     26  C   UNL     1       1.212  -7.720  -8.872  0.00  0.00    +0.270 C 
ATOM     27  O   UNL     1       1.828  -7.092  -7.743  0.00  0.00    -0.485 OA
ENDBRANCH  11  12
ENDBRANCH   1  11
BRANCH   1  28
ATOM     28  C   UNL     1       2.178  -4.462   1.084  0.00  0.00    +0.001 C 
BRANCH  28  29
ATOM     29  C   UNL     1       3.648  -4.716   0.870  0.00  0.00    +0.136 A 
ATOM     30  N   UNL     1       4.299  -5.819   1.145  0.00  0.00    -0.115 NA
ATOM     31  N   UNL     1       5.534  -5.644   0.820  0.00  0.00    -0.023 NA
ATOM     32  N   UNL     1       5.686  -4.457   0.345  0.00  0.00    -0.044 NA
ATOM     33  N   UNL     1       4.545  -3.855   0.355  0.00  0.00    -0.224 N 
BRANCH  33  34
ATOM     34  C   UNL     1       4.277  -2.490  -0.106  0.00  0.00    +0.221 C 
BRANCH  34  35
ATOM     35  C   UNL     1       4.581  -1.517   1.004  0.00  0.00    +0.126 A 
ATOM     36  C   UNL     1       5.767  -0.922   1.226  0.00  0.00    +0.046 A 
ATOM     37  C   UNL     1       5.604  -0.095   2.361  0.00  0.00    +0.041 A 
ATOM     38  C   UNL     1       4.328  -0.234   2.765  0.00  0.00    +0.195 A 
ATOM     39  O   UNL     1       3.712  -1.092   1.936  0.00  0.00    -0.466 OA
ENDBRANCH  34  35
ENDBRANCH  33  34
ENDBRANCH  28  29
ENDBRANCH   1  28
TORSDOF 8
