REMARK  Name = ZINC39991276
REMARK  10 active torsions:
REMARK  status: ('A' for Active; 'I' for Inactive)
REMARK    1  A    between atoms: C_1  and  C_2
REMARK    2  A    between atoms: C_2  and  C_3
REMARK    3  A    between atoms: C_3  and  C_4
REMARK    4  A    between atoms: C_4  and  N_5
REMARK    5  A    between atoms: C_6  and  N_24
REMARK    6  A    between atoms: C_7  and  C_15
REMARK    7  A    between atoms: C_8  and  C_14
REMARK    8  A    between atoms: C_9  and  C_12
REMARK    9  A    between atoms: N_19  and  C_23
REMARK   10  A    between atoms: N_27  and  C_30
REMARK                            x       y       z     vdW  Elec       q    Type
REMARK                         _______ _______ _______ _____ _____    ______ ____
ROOT
ATOM      1  N   UNL     1       1.852  -2.440  -2.474  0.00  0.00    -0.295 N 
ATOM      2  C   UNL     1       1.027  -2.689  -3.523  0.00  0.00    +0.112 A 
ATOM      3  C   UNL     1       1.449  -3.505  -4.586  0.00  0.00    +0.019 A 
ATOM      4  C   UNL     1       2.737  -4.065  -4.557  0.00  0.00    -0.017 A 
ATOM      5  C   UNL     1       3.564  -3.794  -3.471  0.00  0.00    +0.120 A 
ATOM      6  C   UNL     1       3.092  -2.960  -2.426  0.00  0.00    +0.270 A 
ATOM      7  O   UNL     1       3.813  -2.715  -1.475  0.00  0.00    -0.266 OA
ATOM      8  C   UNL     1       3.215  -4.944  -5.683  0.00  0.00    +0.046 C 
ENDROOT
BRANCH   3   9
ATOM      9  C   UNL     1       0.553  -3.770  -5.713  0.00  0.00    +0.032 C 
ATOM     10  C   UNL     1       0.872  -3.316  -6.956  0.00  0.00    +0.077 C 
ATOM     11  C   UNL     1       0.182  -3.497  -8.194  0.00  0.00    +0.258 C 
ATOM     12  O   UNL     1      -0.852  -4.138  -8.248  0.00  0.00    -0.269 OA
ATOM     13  N   UNL     1       0.701  -2.949  -9.279  0.00  0.00    -0.258 N 
ATOM     14  C   UNL     1       1.849  -2.238  -9.219  0.00  0.00    +0.120 C 
ATOM     15  S   UNL     1       2.690  -1.450 -10.484  0.00  0.00    -0.027 S 
ATOM     16  S   UNL     1       2.262  -2.324  -7.483  0.00  0.00    -0.061 S 
ATOM     17  C   UNL     1       0.021  -3.114 -10.566  0.00  0.00    +0.139 C 
ENDBRANCH   3   9
BRANCH   2  18
ATOM     18  N   UNL     1      -0.223  -2.142  -3.545  0.00  0.00    -0.313 N 
ATOM     19  C   UNL     1      -0.467  -0.860  -4.222  0.00  0.00    +0.125 C 
ATOM     20  C   UNL     1      -1.585  -1.056  -5.253  0.00  0.00    +0.124 C 
ATOM     21  N   UNL     1      -2.712  -1.738  -4.601  0.00  0.00    -0.327 N 
ATOM     22  C   UNL     1      -2.468  -3.019  -3.924  0.00  0.00    +0.124 C 
ATOM     23  C   UNL     1      -1.351  -2.827  -2.897  0.00  0.00    +0.125 C 
BRANCH  21  24
ATOM     24  C   UNL     1      -3.993  -1.177  -4.623  0.00  0.00    +0.030 A 
ATOM     25  C   UNL     1      -5.021  -1.763  -3.896  0.00  0.00    +0.026 A 
ATOM     26  C   UNL     1      -6.285  -1.207  -3.919  0.00  0.00    +0.040 A 
ATOM     27  C   UNL     1      -6.528  -0.067  -4.667  0.00  0.00    +0.124 A 
ATOM     28  C   UNL     1      -5.504   0.518  -5.393  0.00  0.00    +0.040 A 
ATOM     29  C   UNL     1      -4.237  -0.031  -5.369  0.00  0.00    +0.026 A 
ATOM     30  F   UNL     1      -7.765   0.474  -4.689  0.00  0.00    -0.205 F 
ENDBRANCH  21  24
ENDBRANCH   2  18
BRANCH   5  31
ATOM     31  C   UNL     1       4.883  -4.350  -3.411  0.00  0.00    +0.105 C 
ATOM     32  N   UNL     1       5.928  -4.791  -3.363  0.00  0.00    -0.191 NA
ENDBRANCH   5  31
BRANCH   1  33
ATOM     33  C   UNL     1       1.387  -1.585  -1.379  0.00  0.00    +0.126 C 
BRANCH  33  34
ATOM     34  C   UNL     1       1.854  -0.148  -1.619  0.00  0.00    +0.021 C 
BRANCH  34  36
ATOM     35  C   UNL     1       1.835   2.181  -0.715  0.00  0.00    +0.004 C 
ATOM     36  C   UNL     1       1.368   0.744  -0.475  0.00  0.00    -0.002 C 
ENDBRANCH  34  36
ENDBRANCH  33  34
ENDBRANCH   1  33
TORSDOF 7
