REMARK  Name = ZINC03654026
REMARK  4 active torsions:
REMARK  status: ('A' for Active; 'I' for Inactive)
REMARK    1  A    between atoms: C_6  and  S_7
REMARK    2  A    between atoms: S_7  and  N_10
REMARK    3  A    between atoms: N_10  and  C_11
REMARK    4  A    between atoms: C_21  and  C_23
REMARK                            x       y       z     vdW  Elec       q    Type
REMARK                         _______ _______ _______ _____ _____    ______ ____
ROOT
ATOM      1  N   UNL     1      -0.407   1.424   3.739  0.00  0.00    -0.139 N 
ATOM      2  C   UNL     1       0.065   1.553   2.483  0.00  0.00    +0.242 C 
ATOM      3  O   UNL     1       1.038   0.919   2.132  0.00  0.00    -0.273 OA
ENDROOT
BRANCH   1   4
ATOM      4  C   UNL     1       0.283   0.635   4.668  0.00  0.00    +0.061 A 
ATOM      5  C   UNL     1       1.052  -0.443   4.247  0.00  0.00    +0.029 A 
ATOM      6  C   UNL     1       1.739  -1.222   5.147  0.00  0.00    +0.049 A 
ATOM      7  C   UNL     1       1.677  -0.962   6.525  0.00  0.00    +0.146 A 
ATOM      8  C   UNL     1       0.889   0.129   6.920  0.00  0.00    +0.063 A 
ATOM      9  C   UNL     1       0.205   0.915   6.028  0.00  0.00    +0.044 A 
ATOM     10  S   UNL     1       1.067   0.124   8.689  0.00  0.00    -0.004 S 
ATOM     11  C   UNL     1       2.152  -1.291   8.805  0.00  0.00    +0.379 A 
ATOM     12  O   UNL     1       2.639  -1.803   9.795  0.00  0.00    -0.237 OA
ATOM     13  O   UNL     1       2.291  -1.643   7.514  0.00  0.00    -0.417 OA
ENDBRANCH   1   4
BRANCH   2  14
ATOM     14  C   UNL     1      -0.616   2.486   1.515  0.00  0.00    +0.077 C 
ATOM     15  C   UNL     1      -1.534   1.682   0.592  0.00  0.00    +0.013 C 
ATOM     16  C   UNL     1      -2.225   2.629  -0.391  0.00  0.00    +0.001 C 
ATOM     17  C   UNL     1      -1.169   3.354  -1.228  0.00  0.00    +0.000 C 
ATOM     18  C   UNL     1      -0.251   4.159  -0.305  0.00  0.00    +0.001 C 
ATOM     19  C   UNL     1       0.440   3.212   0.678  0.00  0.00    +0.013 C 
ENDBRANCH   2  14
BRANCH   1  20
ATOM     20  S   UNL     1      -1.803   2.196   4.182  0.00  0.00    +0.081 S 
ATOM     21  O   UNL     1      -2.632   2.231   3.029  0.00  0.00    -0.149 OA
ATOM     22  O   UNL     1      -2.223   1.606   5.405  0.00  0.00    -0.149 OA
BRANCH  20  28
ATOM     23  C   UNL     1      -0.905   4.200   5.803  0.00  0.00    +0.030 A 
ATOM     24  C   UNL     1      -0.568   5.510   6.090  0.00  0.00    +0.017 A 
ATOM     25  C   UNL     1      -0.717   6.489   5.124  0.00  0.00    +0.018 A 
ATOM     26  C   UNL     1      -1.197   6.156   3.870  0.00  0.00    +0.017 A 
ATOM     27  C   UNL     1      -1.528   4.845   3.583  0.00  0.00    +0.030 A 
ATOM     28  C   UNL     1      -1.380   3.867   4.549  0.00  0.00    +0.109 A 
ATOM     29 BR   UNL     1      -0.262   8.282   5.518  0.00  0.00    -0.050 Br
ENDBRANCH  20  28
ENDBRANCH   1  20
TORSDOF 4
