REMARK  Name = ZINC38965284
REMARK  8 active torsions:
REMARK  status: ('A' for Active; 'I' for Inactive)
REMARK    1  A    between atoms: C_1  and  O_2
REMARK    2  A    between atoms: O_2  and  C_3
REMARK    3  A    between atoms: C_3  and  C_4
REMARK    4  A    between atoms: C_4  and  C_5
REMARK    5  A    between atoms: C_5  and  N_6
REMARK    6  A    between atoms: N_6  and  C_7
REMARK    7  A    between atoms: N_10  and  S_11
REMARK    8  A    between atoms: S_11  and  C_14
REMARK                            x       y       z     vdW  Elec       q    Type
REMARK                         _______ _______ _______ _____ _____    ______ ____
ROOT
ATOM      1  C   UNL     1       1.932  -4.786  -3.326  0.00  0.00    +0.219 C 
ATOM      2  C   UNL     1       1.004  -5.846  -3.875  0.00  0.00    +0.188 C 
ATOM      3  N   UNL     1      -0.198  -5.535  -4.263  0.00  0.00    -0.110 NA
ATOM      4  N   UNL     1       1.439  -7.114  -3.957  0.00  0.00    -0.226 NA
ATOM      5  C   UNL     1       2.651  -7.454  -3.572  0.00  0.00    +0.089 A 
ATOM      6  C   UNL     1       3.077  -8.803  -3.672  0.00  0.00    +0.030 A 
ATOM      7  C   UNL     1       4.320  -9.158  -3.278  0.00  0.00    +0.002 A 
ATOM      8  C   UNL     1       5.243  -8.237  -2.757  0.00  0.00    +0.002 A 
ATOM      9  C   UNL     1       4.940  -6.927  -2.618  0.00  0.00    +0.027 A 
ATOM     10  C   UNL     1       3.607  -6.460  -3.024  0.00  0.00    +0.063 A 
ATOM     11  N   UNL     1       3.278  -5.204  -2.905  0.00  0.00    -0.362 N 
ATOM     12  H   UNL     1       3.908  -4.559  -2.547  0.00  0.00    +0.162 HD
ENDROOT
BRANCH   3  13
ATOM     13  S   UNL     1      -1.204  -6.706  -4.862  0.00  0.00    +0.100 S 
ATOM     14  O   UNL     1      -0.628  -7.149  -6.083  0.00  0.00    -0.146 OA
ATOM     15  O   UNL     1      -1.484  -7.591  -3.786  0.00  0.00    -0.146 OA
BRANCH  13  16
ATOM     16  C   UNL     1      -2.726  -5.922  -5.279  0.00  0.00    +0.113 A 
ATOM     17  C   UNL     1      -3.732  -5.821  -4.335  0.00  0.00    +0.030 A 
ATOM     18  C   UNL     1      -4.926  -5.206  -4.661  0.00  0.00    +0.022 A 
ATOM     19  C   UNL     1      -5.114  -4.691  -5.931  0.00  0.00    +0.041 A 
ATOM     20  C   UNL     1      -4.107  -4.792  -6.875  0.00  0.00    +0.022 A 
ATOM     21  C   UNL     1      -2.911  -5.402  -6.546  0.00  0.00    +0.030 A 
ATOM     22 CL   UNL     1      -6.614  -3.919  -6.342  0.00  0.00    -0.084 Cl
ENDBRANCH  13  16
ENDBRANCH   3  13
BRANCH   1  23
ATOM     23  N   UNL     1       1.272  -4.168  -2.168  0.00  0.00    -0.291 NA
ATOM     24  H   UNL     1       1.684  -4.487  -1.304  0.00  0.00    +0.124 HD
BRANCH  23  25
ATOM     25  C   UNL     1       1.309  -2.703  -2.261  0.00  0.00    +0.085 C 
BRANCH  25  26
ATOM     26  C   UNL     1       0.613  -2.097  -1.041  0.00  0.00    +0.043 C 
BRANCH  26  27
ATOM     27  C   UNL     1       0.652  -0.570  -1.138  0.00  0.00    +0.160 C 
BRANCH  27  29
ATOM     28  C   UNL     1      -0.017   1.425   0.010  0.00  0.00    +0.193 C 
ATOM     29  O   UNL     1       0.002  -0.004   0.002  0.00  0.00    -0.383 OA
ENDBRANCH  27  29
ENDBRANCH  26  27
ENDBRANCH  25  26
ENDBRANCH  23  25
ENDBRANCH   1  23
TORSDOF 7
