REMARK  Name = ZINC06014896
REMARK  13 active torsions:
REMARK  status: ('A' for Active; 'I' for Inactive)
REMARK    1  A    between atoms: C_1  and  C_2
REMARK    2  A    between atoms: C_2  and  C_3
REMARK    3  A    between atoms: C_2  and  C_4
REMARK    4  A    between atoms: C_2  and  N_5
REMARK    5  A    between atoms: C_6  and  C_10
REMARK    6  A    between atoms: C_10  and  C_12
REMARK    7  A    between atoms: C_10  and  N_74
REMARK    8  A    between atoms: C_16  and  O_26
REMARK    9  A    between atoms: C_17  and  O_24
REMARK   10  A    between atoms: O_24  and  C_25
REMARK   11  A    between atoms: O_26  and  C_27
REMARK   12  A    between atoms: C_30  and  C_33
REMARK   13  A    between atoms: C_33  and  C_34
REMARK                            x       y       z     vdW  Elec       q    Type
REMARK                         _______ _______ _______ _____ _____    ______ ____
ROOT
ATOM      1  C   UNL     1      -5.084   3.862   0.009  0.00  0.00    +0.039 C 
ENDROOT
BRANCH   1   2
ATOM      2  C   UNL     1      -3.878   2.979  -0.181  0.00  0.00    +0.011 A 
ATOM      3  C   UNL     1      -2.636   3.526  -0.198  0.00  0.00    +0.017 A 
ATOM      4  C   UNL     1      -1.486   2.643  -0.389  0.00  0.00    +0.002 A 
ATOM      5  C   UNL     1      -0.182   3.154  -0.432  0.00  0.00    +0.059 A 
ATOM      6  C   UNL     1       0.880   2.296  -0.614  0.00  0.00    +0.162 A 
ATOM      7  C   UNL     1       0.661   0.922  -0.756  0.00  0.00    +0.163 A 
ATOM      8  C   UNL     1      -0.622   0.408  -0.715  0.00  0.00    +0.075 A 
ATOM      9  C   UNL     1      -1.705   1.259  -0.538  0.00  0.00    +0.053 A 
ATOM     10  N   UNL     1      -2.993   0.766  -0.500  0.00  0.00    -0.322 N 
ATOM     11  H   UNL     1      -3.147  -0.217  -0.602  0.00  0.00    +0.169 HD
ATOM     12  C   UNL     1      -4.044   1.587  -0.329  0.00  0.00    +0.251 A 
ATOM     13  O   UNL     1      -5.168   1.116  -0.301  0.00  0.00    -0.268 OA
BRANCH   7  14
ATOM     14  O   UNL     1       1.717   0.086  -0.935  0.00  0.00    -0.491 OA
ATOM     15  C   UNL     1       1.426  -1.306  -1.073  0.00  0.00    +0.277 C 
ENDBRANCH   7  14
BRANCH   6  16
ATOM     16  O   UNL     1       2.148   2.788  -0.656  0.00  0.00    -0.491 OA
ATOM     17  C   UNL     1       2.301   4.200  -0.505  0.00  0.00    +0.277 C 
ENDBRANCH   6  16
ENDBRANCH   1   2
BRANCH   1  23
ATOM     18  C   UNL     1      -5.386   3.861  -2.393  0.00  0.00    -0.077 C 
ATOM     19  C   UNL     1      -6.356   3.483  -3.515  0.00  0.00    -0.015 C 
ATOM     20  C   UNL     1      -7.620   4.338  -3.400  0.00  0.00    -0.010 C 
ATOM     21  C   UNL     1      -8.246   4.128  -2.019  0.00  0.00    -0.015 C 
ATOM     22  C   UNL     1      -7.222   4.487  -0.940  0.00  0.00    -0.077 C 
ATOM     23  N   UNL     1      -6.039   3.612  -1.090  0.00  0.00    +0.389 N 
ATOM     24  H   UNL     1      -6.343   2.632  -1.052  0.00  0.00    -0.080 HD
BRANCH  20  25
ATOM     25  C   UNL     1      -8.619   3.924  -4.483  0.00  0.00    +0.038 C 
BRANCH  25  26
ATOM     26  C   UNL     1      -8.051   4.246  -5.841  0.00  0.00    -0.047 A 
ATOM     27  C   UNL     1      -8.296   5.478  -6.419  0.00  0.00    +0.003 A 
ATOM     28  C   UNL     1      -7.771   5.775  -7.662  0.00  0.00    +0.000 A 
ATOM     29  C   UNL     1      -7.008   4.837  -8.332  0.00  0.00    +0.000 A 
ATOM     30  C   UNL     1      -6.767   3.603  -7.757  0.00  0.00    +0.000 A 
ATOM     31  C   UNL     1      -7.288   3.308  -6.511  0.00  0.00    +0.003 A 
ENDBRANCH  25  26
ENDBRANCH  20  25
ENDBRANCH   1  23
BRANCH   1  33
ATOM     32  N   UNL     1      -5.796   4.303   2.418  0.00  0.00    -0.225 N 
ATOM     33  C   UNL     1      -5.751   3.528   1.319  0.00  0.00    +0.143 A 
ATOM     34  N   UNL     1      -6.403   2.428   1.607  0.00  0.00    -0.115 NA
ATOM     35  N   UNL     1      -6.821   2.520   2.822  0.00  0.00    -0.023 NA
ATOM     36  N   UNL     1      -6.458   3.653   3.315  0.00  0.00    -0.043 NA
BRANCH  32  38
ATOM     37  C   UNL     1      -5.862   6.599   1.579  0.00  0.00    +0.036 C 
ATOM     38  C   UNL     1      -5.205   5.635   2.569  0.00  0.00    +0.059 C 
ATOM     39  C   UNL     1      -5.432   6.136   3.997  0.00  0.00    +0.036 C 
ATOM     40  C   UNL     1      -3.703   5.561   2.288  0.00  0.00    +0.036 C 
ENDBRANCH  32  38
ENDBRANCH   1  33
TORSDOF 8
