REMARK  Name = ZINC66149224
REMARK  8 active torsions:
REMARK  status: ('A' for Active; 'I' for Inactive)
REMARK    1  A    between atoms: C_1  and  C_2
REMARK    2  A    between atoms: C_2  and  N_3
REMARK    3  A    between atoms: C_7  and  C_8
REMARK    4  A    between atoms: C_8  and  N_9
REMARK    5  A    between atoms: N_12  and  C_13
REMARK    6  A    between atoms: N_12  and  C_14
REMARK    7  A    between atoms: N_17  and  C_20
REMARK    8  A    between atoms: C_23  and  C_26
REMARK                            x       y       z     vdW  Elec       q    Type
REMARK                         _______ _______ _______ _____ _____    ______ ____
ROOT
ATOM      1  N   UNL     1       3.334  -1.581   0.441  0.00  0.00    -0.292 N 
ATOM      2  C   UNL     1       4.256  -1.574   1.425  0.00  0.00    +0.303 C 
ATOM      3  O   UNL     1       4.885  -0.561   1.661  0.00  0.00    -0.253 OA
ATOM      4  N   UNL     1       4.480  -2.690   2.147  0.00  0.00    -0.286 N 
ATOM      5  C   UNL     1       3.722  -3.910   1.862  0.00  0.00    +0.134 C 
ATOM      6  H   UNL     1       2.833  -2.389   0.253  0.00  0.00    +0.151 HD
ENDROOT
BRANCH   4   7
ATOM      7  C   UNL     1       5.481  -2.682   3.216  0.00  0.00    +0.074 C 
ATOM      8  C   UNL     1       6.556  -3.732   2.918  0.00  0.00    +0.004 C 
ATOM      9  C   UNL     1       7.555  -3.773   4.077  0.00  0.00    -0.077 C 
ATOM     10  N   UNL     1       6.855  -4.125   5.319  0.00  0.00    +0.382 N 
ATOM     11  C   UNL     1       5.872  -3.086   5.648  0.00  0.00    -0.077 C 
ATOM     12  C   UNL     1       4.809  -3.018   4.550  0.00  0.00    +0.004 C 
ATOM     13  H   UNL     1       6.382  -5.008   5.198  0.00  0.00    -0.081 HD
BRANCH  10  14
ATOM     14  C   UNL     1       7.829  -4.240   6.412  0.00  0.00    -0.069 C 
ATOM     15  C   UNL     1       8.849  -5.330   6.074  0.00  0.00    -0.015 C 
ATOM     16  C   UNL     1       9.864  -5.450   7.213  0.00  0.00    +0.002 C 
ATOM     17  C   UNL     1       9.136  -5.816   8.508  0.00  0.00    -0.014 C 
ATOM     18  C   UNL     1       8.116  -4.727   8.846  0.00  0.00    +0.002 C 
ATOM     19  C   UNL     1       7.101  -4.607   7.707  0.00  0.00    -0.015 C 
ATOM     20  C   UNL     1       8.413  -7.152   8.326  0.00  0.00    +0.007 C 
ENDBRANCH  10  14
ENDBRANCH   4   7
BRANCH   1  21
ATOM     21  C   UNL     1       3.091  -0.368  -0.344  0.00  0.00    +0.182 C 
BRANCH  21  26
ATOM     22  N   UNL     1       0.688  -0.476  -1.203  0.00  0.00    -0.316 N 
ATOM     23  C   UNL     1       0.117  -0.833  -2.379  0.00  0.00    +0.225 A 
ATOM     24  N   UNL     1       1.079  -1.191  -3.185  0.00  0.00    -0.138 NA
ATOM     25  N   UNL     1       2.210  -1.080  -2.585  0.00  0.00    -0.133 NA
ATOM     26  C   UNL     1       2.022  -0.640  -1.371  0.00  0.00    +0.151 A 
BRANCH  22  28
ATOM     27  C   UNL     1      -0.019   1.526   0.010  0.00  0.00    +0.027 C 
ATOM     28  C   UNL     1       0.002  -0.004   0.002  0.00  0.00    +0.121 C 
ENDBRANCH  22  28
ENDBRANCH  21  26
ENDBRANCH   1  21
TORSDOF 5
