REMARK  Name = ZINC39265738
REMARK  8 active torsions:
REMARK  status: ('A' for Active; 'I' for Inactive)
REMARK    1  A    between atoms: C_4  and  C_7
REMARK    2  A    between atoms: C_7  and  O_8
REMARK    3  A    between atoms: O_8  and  C_9
REMARK    4  A    between atoms: C_16  and  C_35
REMARK    5  A    between atoms: N_18  and  C_21
REMARK    6  A    between atoms: C_21  and  C_22
REMARK    7  A    between atoms: N_24  and  C_25
REMARK    8  A    between atoms: C_25  and  C_26
REMARK                            x       y       z     vdW  Elec       q    Type
REMARK                         _______ _______ _______ _____ _____    ______ ____
ROOT
ATOM      1  C   UNL     1       5.308  -1.599   1.465  0.00  0.00    +0.404 C 
ATOM      2  O   UNL     1       5.944  -1.955   0.493  0.00  0.00    -0.226 OA
ATOM      3  N   UNL     1       5.770  -1.857   2.704  0.00  0.00    -0.251 N 
ATOM      4  C   UNL     1       5.102  -1.489   3.967  0.00  0.00    +0.112 C 
ATOM      5  C   UNL     1       5.650  -2.492   5.013  0.00  0.00    +0.022 C 
ATOM      6  C   UNL     1       7.127  -2.643   4.558  0.00  0.00    +0.039 C 
ATOM      7  C   UNL     1       7.019  -2.555   3.024  0.00  0.00    +0.139 C 
ATOM      8  C   UNL     1       7.224  -3.882   2.295  0.00  0.00    +0.139 C 
ATOM      9  N   UNL     1       8.391  -3.200   1.720  0.00  0.00    -0.281 N 
ATOM     10  C   UNL     1       8.247  -2.010   2.345  0.00  0.00    +0.243 C 
ATOM     11  O   UNL     1       8.848  -0.957   2.354  0.00  0.00    -0.273 OA
ENDROOT
BRANCH   8  12
ATOM     12  C   UNL     1       7.564  -5.038   3.200  0.00  0.00    -0.024 A 
ATOM     13  C   UNL     1       8.856  -5.195   3.664  0.00  0.00    +0.005 A 
ATOM     14  C   UNL     1       9.168  -6.255   4.495  0.00  0.00    +0.000 A 
ATOM     15  C   UNL     1       8.187  -7.158   4.862  0.00  0.00    +0.000 A 
ATOM     16  C   UNL     1       6.894  -7.000   4.398  0.00  0.00    +0.000 A 
ATOM     17  C   UNL     1       6.582  -5.937   3.571  0.00  0.00    +0.005 A 
ENDBRANCH   8  12
BRANCH   1  18
ATOM     18  O   UNL     1       4.141  -0.946   1.304  0.00  0.00    -0.445 OA
BRANCH  18  19
ATOM     19  C   UNL     1       3.711  -0.707  -0.038  0.00  0.00    +0.269 C 
BRANCH  19  23
ATOM     20  C   UNL     1      -0.017   1.378   0.010  0.00  0.00    +0.000 A 
ATOM     21  C   UNL     1       1.171   2.086   0.002  0.00  0.00    +0.000 A 
ATOM     22  C   UNL     1       2.377   1.411  -0.013  0.00  0.00    +0.007 A 
ATOM     23  C   UNL     1       2.396   0.029  -0.020  0.00  0.00    -0.010 A 
ATOM     24  C   UNL     1       1.208  -0.679  -0.012  0.00  0.00    +0.007 A 
ATOM     25  C   UNL     1       0.002  -0.004   0.002  0.00  0.00    +0.000 A 
ENDBRANCH  19  23
ENDBRANCH  18  19
ENDBRANCH   1  18
BRANCH   9  26
ATOM     26  C   UNL     1       9.399  -3.666   0.765  0.00  0.00    +0.204 C 
BRANCH  26  27
ATOM     27  C   UNL     1       8.943  -3.358  -0.638  0.00  0.00    +0.231 C 
ATOM     28  O   UNL     1       7.880  -2.804  -0.822  0.00  0.00    -0.274 OA
ATOM     29  N   UNL     1       9.716  -3.699  -1.688  0.00  0.00    -0.310 N 
ATOM     30  H   UNL     1      10.566  -4.142  -1.541  0.00  0.00    +0.149 HD
BRANCH  29  31
ATOM     31  C   UNL     1       9.272  -3.400  -3.052  0.00  0.00    +0.139 C 
BRANCH  31  32
ATOM     32  C   UNL     1      10.309  -3.879  -4.035  0.00  0.00    -0.027 A 
ATOM     33  C   UNL     1      11.332  -3.035  -4.424  0.00  0.00    +0.009 A 
ATOM     34  C   UNL     1      12.287  -3.470  -5.324  0.00  0.00    +0.050 A 
ATOM     35  C   UNL     1      12.219  -4.754  -5.840  0.00  0.00    +0.166 A 
ATOM     36  C   UNL     1      11.188  -5.604  -5.448  0.00  0.00    +0.167 A 
ATOM     37  C   UNL     1      10.238  -5.163  -4.540  0.00  0.00    +0.054 A 
ATOM     38  O   UNL     1      11.341  -6.800  -6.089  0.00  0.00    -0.453 OA
ATOM     39  C   UNL     1      12.237  -6.537  -7.184  0.00  0.00    +0.466 C 
ATOM     40  O   UNL     1      13.018  -5.417  -6.726  0.00  0.00    -0.453 OA
ENDBRANCH  31  32
ENDBRANCH  29  31
ENDBRANCH  26  27
ENDBRANCH   9  26
TORSDOF 8
