REMARK  Name = ZINC58008756
REMARK  7 active torsions:
REMARK  status: ('A' for Active; 'I' for Inactive)
REMARK    1  A    between atoms: C_4  and  C_8
REMARK    2  A    between atoms: C_8  and  C_10
REMARK    3  A    between atoms: C_8  and  N_27
REMARK    4  A    between atoms: C_10  and  N_11
REMARK    5  A    between atoms: C_12  and  C_14
REMARK    6  A    between atoms: C_14  and  N_15
REMARK    7  A    between atoms: C_22  and  N_24
REMARK                            x       y       z     vdW  Elec       q    Type
REMARK                         _______ _______ _______ _____ _____    ______ ____
ROOT
ATOM      1  N   UNL     1       5.266  -1.827   1.480  0.00  0.00    -0.315 N 
ATOM      2  C   UNL     1       5.793  -2.155   2.676  0.00  0.00    +0.233 C 
ATOM      3  O   UNL     1       5.242  -1.806   3.698  0.00  0.00    -0.274 OA
ATOM      4  H   UNL     1       5.707  -2.106   0.662  0.00  0.00    +0.149 HD
ENDROOT
BRANCH   1   5
ATOM      5  C   UNL     1       4.026  -1.049   1.415  0.00  0.00    +0.093 C 
BRANCH   5   6
ATOM      6  C   UNL     1       3.725  -0.691  -0.042  0.00  0.00    -0.016 C 
BRANCH   6  10
ATOM      7  C   UNL     1       6.735   1.966  -1.508  0.00  0.00    +0.004 A 
ATOM      8  C   UNL     1       6.659   0.674  -1.993  0.00  0.00    +0.038 A 
ATOM      9  C   UNL     1       5.684  -0.187  -1.519  0.00  0.00    +0.126 A 
ATOM     10  C   UNL     1       4.786   0.246  -0.558  0.00  0.00    -0.006 A 
ATOM     11  C   UNL     1       4.864   1.539  -0.074  0.00  0.00    +0.045 A 
ATOM     12  C   UNL     1       5.838   2.399  -0.549  0.00  0.00    +0.020 A 
ATOM     13 CL   UNL     1       3.738   2.083   1.130  0.00  0.00    -0.083 Cl
ATOM     14  F   UNL     1       5.609  -1.450  -1.994  0.00  0.00    -0.205 F 
ENDBRANCH   6  10
BRANCH   6  15
ATOM     15  N   UNL     1       2.412  -0.036  -0.124  0.00  0.00    +0.385 N 
ATOM     16  C   UNL     1       2.133   0.379  -1.522  0.00  0.00    -0.078 C 
ATOM     17  C   UNL     1       0.589   0.505  -1.553  0.00  0.00    -0.020 C 
ATOM     18  C   UNL     1       0.128  -0.666  -0.655  0.00  0.00    -0.020 C 
ATOM     19  C   UNL     1       1.342  -0.992   0.235  0.00  0.00    -0.078 C 
ATOM     20  H   UNL     1       2.383   0.765   0.490  0.00  0.00    -0.081 HD
ENDBRANCH   6  15
ENDBRANCH   5   6
ENDBRANCH   1   5
BRANCH   2  21
ATOM     21  C   UNL     1       7.068  -2.955   2.743  0.00  0.00    +0.217 C 
BRANCH  21  22
ATOM     22  N   UNL     1       7.431  -3.179   4.145  0.00  0.00    -0.338 N 
ATOM     23  C   UNL     1       8.293  -2.401   4.868  0.00  0.00    +0.087 A 
ATOM     24  C   UNL     1       8.405  -2.880   6.117  0.00  0.00    +0.027 A 
ATOM     25  C   UNL     1       7.543  -4.061   6.201  0.00  0.00    +0.002 A 
ATOM     26  C   UNL     1       6.950  -4.201   4.933  0.00  0.00    +0.050 A 
ATOM     27  C   UNL     1       6.065  -5.249   4.706  0.00  0.00    +0.028 A 
ATOM     28  C   UNL     1       5.777  -6.133   5.723  0.00  0.00    +0.035 A 
ATOM     29  C   UNL     1       6.362  -5.989   6.973  0.00  0.00    +0.127 A 
ATOM     30  C   UNL     1       7.241  -4.971   7.215  0.00  0.00    +0.042 A 
BRANCH  29  31
ATOM     31  N   UNL     1       6.037  -6.951   8.051  0.00  0.00    +0.056 N 
ATOM     32  O   UNL     1       5.266  -7.857   7.840  0.00  0.00    -0.126 OA
ATOM     33  O   UNL     1       6.545  -6.830   9.142  0.00  0.00    -0.126 OA
ENDBRANCH  29  31
ENDBRANCH  21  22
ENDBRANCH   2  21
TORSDOF 7
