REMARK  Name = ZINC62560020
REMARK  5 active torsions:
REMARK  status: ('A' for Active; 'I' for Inactive)
REMARK    1  A    between atoms: C_1  and  C_2
REMARK    2  A    between atoms: C_2  and  C_3
REMARK    3  A    between atoms: C_2  and  C_4
REMARK    4  A    between atoms: N_8  and  C_19
REMARK    5  A    between atoms: C_13  and  N_16
REMARK                            x       y       z     vdW  Elec       q    Type
REMARK                         _______ _______ _______ _____ _____    ______ ____
ROOT
ATOM      1  C   UNL     1      -1.647  -0.542   0.030  0.00  0.00    +0.262 C 
ATOM      2  C   UNL     1      -1.629  -2.049   0.027  0.00  0.00    +0.261 C 
ATOM      3  O   UNL     1      -1.850  -2.659  -0.998  0.00  0.00    -0.271 OA
ATOM      4  N   UNL     1      -1.364  -2.718   1.171  0.00  0.00    -0.267 N 
ATOM      5  C   UNL     1      -1.146  -1.989   2.350  0.00  0.00    +0.098 A 
ATOM      6  C   UNL     1      -1.519  -0.647   2.401  0.00  0.00    +0.146 A 
ATOM      7  C   UNL     1      -1.312   0.086   3.556  0.00  0.00    +0.069 A 
ATOM      8  C   UNL     1      -0.733  -0.514   4.661  0.00  0.00    +0.067 A 
ATOM      9  C   UNL     1      -0.358  -1.851   4.613  0.00  0.00    +0.064 A 
ATOM     10  C   UNL     1      -0.566  -2.591   3.455  0.00  0.00    +0.088 A 
ATOM     11 CL   UNL     1      -0.100  -4.262   3.393  0.00  0.00    -0.080 Cl
ATOM     12 CL   UNL     1      -0.473   0.406   6.109  0.00  0.00    -0.081 Cl
ATOM     13  O   UNL     1      -2.085  -0.070   1.306  0.00  0.00    -0.477 OA
ATOM     14  C   UNL     1      -1.307  -4.182   1.180  0.00  0.00    +0.138 C 
ENDROOT
BRANCH   1  16
ATOM     15  C   UNL     1      -0.256   1.515  -0.251  0.00  0.00    +0.011 C 
ATOM     16  C   UNL     1      -0.238  -0.015  -0.252  0.00  0.00    +0.033 C 
ATOM     17  C   UNL     1       0.719  -0.514   0.832  0.00  0.00    +0.011 C 
ENDBRANCH   1  16
BRANCH   9  18
ATOM     18  N   UNL     1       0.228  -2.454   5.733  0.00  0.00    -0.356 N 
ATOM     19  H   UNL     1       0.373  -1.938   6.542  0.00  0.00    +0.142 HD
ATOM     20  H   UNL     1       0.490  -3.388   5.700  0.00  0.00    +0.142 HD
ENDBRANCH   9  18
TORSDOF 2
