REMARK  Name = ZINC28615410
REMARK  8 active torsions:
REMARK  status: ('A' for Active; 'I' for Inactive)
REMARK    1  A    between atoms: C_1  and  C_2
REMARK    2  A    between atoms: C_2  and  N_3
REMARK    3  A    between atoms: C_6  and  O_31
REMARK    4  A    between atoms: N_15  and  C_28
REMARK    5  A    between atoms: N_20  and  C_24
REMARK    6  A    between atoms: C_24  and  C_25
REMARK    7  A    between atoms: C_28  and  C_29
REMARK    8  A    between atoms: O_31  and  C_32
REMARK                            x       y       z     vdW  Elec       q    Type
REMARK                         _______ _______ _______ _____ _____    ______ ____
ROOT
ATOM      1  N   UNL     1       0.503  -2.231  -0.823  0.00  0.00    -0.293 N 
ATOM      2  C   UNL     1       0.614  -3.197   0.162  0.00  0.00    +0.052 A 
ATOM      3  C   UNL     1       1.614  -3.305   1.143  0.00  0.00    +0.070 A 
ATOM      4  C   UNL     1       1.593  -4.330   2.064  0.00  0.00    +0.122 A 
ATOM      5  C   UNL     1       0.586  -5.286   2.052  0.00  0.00    +0.047 A 
ATOM      6  C   UNL     1      -0.411  -5.200   1.096  0.00  0.00    +0.020 A 
ATOM      7  C   UNL     1      -0.388  -4.177   0.178  0.00  0.00    +0.036 A 
ATOM      8  S   UNL     1      -1.442  -3.715  -1.176  0.00  0.00    -0.071 S 
ATOM      9  C   UNL     1      -0.543  -2.266  -1.705  0.00  0.00    +0.092 C 
ATOM     10  C   UNL     1      -0.832  -1.395  -2.748  0.00  0.00    +0.107 A 
ATOM     11  C   UNL     1      -1.906  -1.419  -3.656  0.00  0.00    +0.269 A 
ATOM     12  O   UNL     1      -2.755  -2.294  -3.591  0.00  0.00    -0.266 OA
ATOM     13  N   UNL     1      -1.982  -0.477  -4.580  0.00  0.00    -0.297 N 
ATOM     14  C   UNL     1      -1.017   0.506  -4.643  0.00  0.00    +0.103 A 
ATOM     15  C   UNL     1      -0.912   1.573  -5.526  0.00  0.00    +0.107 C 
ATOM     16  C   UNL     1      -1.508   1.751  -6.789  0.00  0.00    +0.261 C 
ATOM     17  O   UNL     1      -2.243   0.911  -7.283  0.00  0.00    -0.269 OA
ATOM     18  N   UNL     1      -1.221   2.886  -7.408  0.00  0.00    -0.251 N 
ATOM     19  C   UNL     1      -0.405   3.792  -6.835  0.00  0.00    +0.121 C 
ATOM     20  S   UNL     1       0.089   5.307  -7.459  0.00  0.00    -0.027 S 
ATOM     21  S   UNL     1       0.008   3.093  -5.363  0.00  0.00    -0.058 S 
ATOM     22  S   UNL     1       0.059   0.056  -3.289  0.00  0.00    -0.063 S 
ENDROOT
BRANCH   1  24
ATOM     23  C   UNL     1       1.070   0.021  -0.054  0.00  0.00    +0.025 C 
ATOM     24  C   UNL     1       1.504  -1.165  -0.917  0.00  0.00    +0.108 C 
ENDBRANCH   1  24
BRANCH   4  25
ATOM     25  O   UNL     1       2.577  -4.407   3.000  0.00  0.00    -0.495 OA
ATOM     26  C   UNL     1       2.504  -5.490   3.929  0.00  0.00    +0.277 C 
ENDBRANCH   4  25
BRANCH  18  27
ATOM     27  C   UNL     1      -1.795   3.158  -8.728  0.00  0.00    +0.141 C 
BRANCH  27  28
ATOM     28  C   UNL     1      -3.113   3.871  -8.565  0.00  0.00    -0.015 C 
ATOM     29  C   UNL     1      -3.315   5.019  -9.163  0.00  0.00    +0.005 C 
ENDBRANCH  27  28
ENDBRANCH  18  27
BRANCH  13  30
ATOM     30  C   UNL     1      -3.090  -0.478  -5.539  0.00  0.00    +0.152 C 
BRANCH  30  31
ATOM     31  C   UNL     1      -2.768  -1.411  -6.678  0.00  0.00    -0.013 C 
ATOM     32  C   UNL     1      -3.620  -2.345  -7.019  0.00  0.00    +0.005 C 
ENDBRANCH  30  31
ENDBRANCH  13  30
TORSDOF 6
