REMARK  Name = ZINC08590472
REMARK  10 active torsions:
REMARK  status: ('A' for Active; 'I' for Inactive)
REMARK    1  A    between atoms: C_1  and  C_2
REMARK    2  A    between atoms: C_2  and  C_4
REMARK    3  A    between atoms: C_2  and  S_19
REMARK    4  A    between atoms: C_4  and  C_5
REMARK    5  A    between atoms: N_7  and  C_8
REMARK    6  A    between atoms: C_11  and  O_16
REMARK    7  A    between atoms: C_13  and  O_14
REMARK    8  A    between atoms: O_14  and  C_15
REMARK    9  A    between atoms: O_16  and  C_17
REMARK   10  A    between atoms: S_19  and  C_22
REMARK                            x       y       z     vdW  Elec       q    Type
REMARK                         _______ _______ _______ _____ _____    ______ ____
ROOT
ATOM      1  C   UNL     1       0.014   1.527  -0.010  0.00  0.00    +0.032 C 
ATOM      2  C   UNL     1       0.024  -0.003  -0.012  0.00  0.00    +0.142 C 
ENDROOT
BRANCH   2   3
ATOM      3  S   UNL     1      -1.682  -0.619   0.001  0.00  0.00    -0.000 S 
ATOM      4  O   UNL     1      -1.695  -2.028  -0.180  0.00  0.00    -0.169 OA
ATOM      5  O   UNL     1      -2.411  -0.018   1.063  0.00  0.00    -0.169 OA
BRANCH   3   6
ATOM      6  C   UNL     1      -2.409   0.030  -1.467  0.00  0.00    +0.090 A 
ATOM      7  C   UNL     1      -3.035   1.262  -1.439  0.00  0.00    +0.030 A 
ATOM      8  C   UNL     1      -3.608   1.779  -2.587  0.00  0.00    +0.049 A 
ATOM      9  C   UNL     1      -3.553   1.060  -3.769  0.00  0.00    +0.142 A 
ATOM     10  C   UNL     1      -2.921  -0.182  -3.797  0.00  0.00    +0.077 A 
ATOM     11  C   UNL     1      -2.345  -0.692  -2.645  0.00  0.00    +0.054 A 
ATOM     12  N   UNL     1      -2.875  -0.901  -4.999  0.00  0.00    -0.280 N 
ATOM     13  C   UNL     1      -3.152  -0.261  -6.156  0.00  0.00    +0.255 C 
ATOM     14  O   UNL     1      -3.148  -0.869  -7.205  0.00  0.00    -0.272 OA
ATOM     15  C   UNL     1      -3.465   1.214  -6.138  0.00  0.00    +0.325 C 
ATOM     16  O   UNL     1      -4.110   1.553  -4.907  0.00  0.00    -0.481 OA
ATOM     17  H   UNL     1      -2.648  -1.844  -5.001  0.00  0.00    +0.155 HD
ENDBRANCH   3   6
ENDBRANCH   2   3
BRANCH   2  18
ATOM     18  C   UNL     1       0.759  -0.510   1.231  0.00  0.00    +0.122 C 
BRANCH  18  19
ATOM     19  C   UNL     1       0.876  -2.011   1.168  0.00  0.00    +0.219 C 
ATOM     20  O   UNL     1       0.418  -2.616   0.222  0.00  0.00    -0.275 OA
ATOM     21  N   UNL     1       1.491  -2.681   2.163  0.00  0.00    -0.282 N 
ATOM     22  H   UNL     1       1.914  -2.194   2.887  0.00  0.00    +0.155 HD
BRANCH  21  23
ATOM     23  C   UNL     1       1.518  -4.084   2.151  0.00  0.00    +0.077 A 
ATOM     24  C   UNL     1       1.608  -4.766   0.947  0.00  0.00    +0.050 A 
ATOM     25  C   UNL     1       1.635  -6.148   0.935  0.00  0.00    +0.084 A 
ATOM     26  C   UNL     1       1.572  -6.856   2.128  0.00  0.00    +0.142 A 
ATOM     27  C   UNL     1       1.484  -6.177   3.334  0.00  0.00    +0.094 A 
ATOM     28  C   UNL     1       1.462  -4.792   3.349  0.00  0.00    +0.145 A 
ATOM     29 CL   UNL     1       1.745  -7.001  -0.573  0.00  0.00    -0.080 Cl
BRANCH  28  30
ATOM     30  O   UNL     1       1.380  -4.125   4.531  0.00  0.00    -0.493 OA
ATOM     31  C   UNL     1       1.325  -4.916   5.720  0.00  0.00    +0.277 C 
ENDBRANCH  28  30
BRANCH  26  32
ATOM     32  O   UNL     1       1.598  -8.215   2.114  0.00  0.00    -0.494 OA
ATOM     33  C   UNL     1       1.531  -8.878   3.378  0.00  0.00    +0.277 C 
ENDBRANCH  26  32
ENDBRANCH  21  23
ENDBRANCH  18  19
ENDBRANCH   2  18
TORSDOF 7
