REMARK  Name = ZINC09209591
REMARK  5 active torsions:
REMARK  status: ('A' for Active; 'I' for Inactive)
REMARK    1  A    between atoms: C_1  and  C_2
REMARK    2  A    between atoms: N_20  and  C_23
REMARK    3  A    between atoms: C_25  and  N_31
REMARK    4  A    between atoms: C_28  and  O_29
REMARK    5  A    between atoms: O_29  and  C_30
REMARK                            x       y       z     vdW  Elec       q    Type
REMARK                         _______ _______ _______ _____ _____    ______ ____
ROOT
ATOM      1  C   UNL     1       3.311   0.761   4.316  0.00  0.00    +0.044 C 
ATOM      2  C   UNL     1       4.318   1.826   3.963  0.00  0.00    -0.050 A 
ATOM      3  C   UNL     1       5.260   2.225   4.895  0.00  0.00    +0.005 A 
ATOM      4  C   UNL     1       6.183   3.199   4.578  0.00  0.00    +0.024 A 
ATOM      5  C   UNL     1       6.174   3.790   3.316  0.00  0.00    +0.036 A 
ATOM      6  C   UNL     1       5.222   3.380   2.388  0.00  0.00    -0.027 A 
ATOM      7  C   UNL     1       4.302   2.407   2.708  0.00  0.00    +0.008 A 
ATOM      8  C   UNL     1       5.477   4.194   1.150  0.00  0.00    +0.053 C 
ATOM      9  C   UNL     1       4.247   5.025   0.766  0.00  0.00    +0.089 C 
ATOM     10  C   UNL     1       4.231   5.037  -0.787  0.00  0.00    +0.074 C 
ATOM     11  C   UNL     1       5.470   4.190  -1.195  0.00  0.00    -0.054 C 
ATOM     12  C   UNL     1       4.789   2.229  -0.079  0.00  0.00    -0.076 C 
ATOM     13  C   UNL     1       4.643   1.913  -1.581  0.00  0.00    -0.020 C 
ATOM     14  C   UNL     1       5.071   3.203  -2.308  0.00  0.00    -0.016 C 
ATOM     15  C   UNL     1       2.971   4.274  -1.129  0.00  0.00    +0.229 C 
ATOM     16  O   UNL     1       2.576   4.040  -2.251  0.00  0.00    -0.275 OA
ATOM     17  N   UNL     1       2.358   3.901   0.001  0.00  0.00    -0.206 N 
ATOM     18  C   UNL     1       2.988   4.268   1.122  0.00  0.00    +0.230 C 
ATOM     19  O   UNL     1       2.609   4.030   2.249  0.00  0.00    -0.275 OA
ATOM     20  C   UNL     1       6.647   5.074   1.497  0.00  0.00    +0.212 C 
ATOM     21  O   UNL     1       7.178   5.891   0.775  0.00  0.00    -0.277 OA
ATOM     22  N   UNL     1       6.990   4.780   2.766  0.00  0.00    -0.286 N 
ATOM     23  H   UNL     1       7.720   5.206   3.242  0.00  0.00    +0.155 HD
ATOM     24  N   UNL     1       5.729   3.369  -0.034  0.00  0.00    +0.395 N 
ATOM     25  H   UNL     1       6.698   3.030  -0.033  0.00  0.00    -0.079 HD
ENDROOT
BRANCH  17  26
ATOM     26  C   UNL     1       1.155   3.177   0.008  0.00  0.00    +0.088 A 
ATOM     27  C   UNL     1      -0.059   3.847   0.022  0.00  0.00    +0.060 A 
ATOM     28  C   UNL     1      -1.242   3.133   0.030  0.00  0.00    +0.128 A 
ATOM     29  C   UNL     1      -1.219   1.750   0.017  0.00  0.00    +0.036 A 
ATOM     30  C   UNL     1      -0.013   1.076   0.008  0.00  0.00    +0.050 A 
ATOM     31  C   UNL     1       1.178   1.785   0.000  0.00  0.00    +0.142 A 
BRANCH  28  32
ATOM     32  N   UNL     1      -2.537   3.850   0.046  0.00  0.00    +0.056 N 
ATOM     33  O   UNL     1      -2.559   5.068   0.053  0.00  0.00    -0.126 OA
ATOM     34  O   UNL     1      -3.580   3.222   0.053  0.00  0.00    -0.126 OA
ENDBRANCH  28  32
BRANCH  31  35
ATOM     35  O   UNL     1       2.365   1.123  -0.014  0.00  0.00    -0.493 OA
ATOM     36  C   UNL     1       2.312  -0.305  -0.020  0.00  0.00    +0.277 C 
ENDBRANCH  31  35
ENDBRANCH  17  26
TORSDOF 3
