REMARK  Name = ZINC00077411
REMARK  1 active torsions:
REMARK  status: ('A' for Active; 'I' for Inactive)
REMARK    1  A    between atoms: C_1  and  N_2
REMARK                            x       y       z     vdW  Elec       q    Type
REMARK                         _______ _______ _______ _____ _____    ______ ____
ROOT
ATOM      1  C   UNL     1      -0.018   1.461   0.010  0.00  0.00    +0.127 C 
ATOM      2  N   UNL     1       0.002  -0.004   0.002  0.00  0.00    -0.327 N 
ATOM      3  C   UNL     1      -1.184  -0.711   0.009  0.00  0.00    +0.159 A 
ATOM      4  N   UNL     1      -2.415  -0.253   0.018  0.00  0.00    -0.223 NA
ATOM      5  C   UNL     1      -3.492  -1.070   0.024  0.00  0.00    +0.099 A 
ATOM      6  C   UNL     1      -3.211  -2.454   0.021  0.00  0.00    +0.044 A 
ATOM      7  S   UNL     1      -1.435  -2.480   0.002  0.00  0.00    -0.052 S 
ATOM      8  C   UNL     1      -4.195  -3.411   0.026  0.00  0.00    +0.037 A 
ATOM      9  C   UNL     1      -5.524  -3.024   0.035  0.00  0.00    +0.044 A 
ATOM     10  C   UNL     1      -5.838  -1.672   0.038  0.00  0.00    +0.042 A 
ATOM     11  C   UNL     1      -4.860  -0.710   0.033  0.00  0.00    +0.069 A 
ATOM     12 CL   UNL     1      -5.306   0.968   0.037  0.00  0.00    -0.081 Cl
ATOM     13 CL   UNL     1      -6.785  -4.217   0.041  0.00  0.00    -0.083 Cl
ATOM     14  H   UNL     1       0.849  -0.478  -0.009  0.00  0.00    +0.148 HD
ENDROOT
TORSDOF 0
