REMARK  Name = ZINC10153669
REMARK  6 active torsions:
REMARK  status: ('A' for Active; 'I' for Inactive)
REMARK    1  A    between atoms: C_1  and  C_2
REMARK    2  A    between atoms: C_5  and  N_9
REMARK    3  A    between atoms: C_10  and  C_12
REMARK    4  A    between atoms: C_19  and  C_25
REMARK    5  A    between atoms: C_19  and  C_26
REMARK    6  A    between atoms: C_23  and  S_24
REMARK                            x       y       z     vdW  Elec       q    Type
REMARK                         _______ _______ _______ _____ _____    ______ ____
ROOT
ATOM      1  C   UNL     1       1.157   1.768  -0.116  0.00  0.00    +0.172 C 
ATOM      2  C   UNL     1       1.202   2.631  -1.392  0.00  0.00    +0.127 C 
ATOM      3  C   UNL     1       2.521   2.259  -2.031  0.00  0.00    +0.237 C 
ATOM      4  O   UNL     1       2.943   2.691  -3.082  0.00  0.00    -0.274 OA
ATOM      5  N   UNL     1       3.149   1.374  -1.244  0.00  0.00    -0.179 N 
ATOM      6  N   UNL     1       2.398   0.983  -0.168  0.00  0.00    -0.191 NA
ATOM      7  C   UNL     1       3.193   1.150   1.060  0.00  0.00    +0.113 C 
ATOM      8  C   UNL     1       4.564   0.563   0.844  0.00  0.00    +0.260 C 
ATOM      9  O   UNL     1       5.191   0.150   1.800  0.00  0.00    -0.272 OA
ATOM     10  N   UNL     1       5.103   0.486  -0.368  0.00  0.00    -0.156 NA
ATOM     11  C   UNL     1       4.433   0.896  -1.441  0.00  0.00    +0.167 C 
ATOM     12  C   UNL     1       3.320   2.639   1.389  0.00  0.00    +0.039 C 
ATOM     13  C   UNL     1       2.503   0.426   2.218  0.00  0.00    +0.039 C 
ENDROOT
BRANCH   1  15
ATOM     14  N   UNL     1      -1.285   1.380  -0.179  0.00  0.00    -0.283 N 
ATOM     15  C   UNL     1      -0.044   0.857  -0.137  0.00  0.00    +0.237 C 
ATOM     16  O   UNL     1       0.107  -0.346  -0.122  0.00  0.00    -0.274 OA
ATOM     17  H   UNL     1      -1.410   2.339  -0.109  0.00  0.00    +0.155 HD
BRANCH  14  22
ATOM     18  C   UNL     1      -5.782  -2.032  -0.764  0.00  0.00    +0.044 C 
ATOM     19  C   UNL     1      -4.588  -1.125  -0.608  0.00  0.00    -0.049 A 
ATOM     20  C   UNL     1      -3.347  -1.534  -1.062  0.00  0.00    +0.005 A 
ATOM     21  C   UNL     1      -2.251  -0.706  -0.921  0.00  0.00    +0.025 A 
ATOM     22  C   UNL     1      -2.395   0.538  -0.323  0.00  0.00    +0.052 A 
ATOM     23  C   UNL     1      -3.641   0.944   0.138  0.00  0.00    +0.062 A 
ATOM     24  C   UNL     1      -4.735   0.113  -0.011  0.00  0.00    +0.025 A 
ATOM     25 CL   UNL     1      -3.825   2.497   0.894  0.00  0.00    -0.082 Cl
ENDBRANCH  14  22
ENDBRANCH   1  15
BRANCH  11  26
ATOM     26  S   UNL     1       5.131   0.834  -3.003  0.00  0.00    -0.109 S 
ATOM     27  H   UNL     1       6.394   0.294  -2.686  0.00  0.00    +0.110 HD
ENDBRANCH  11  26
TORSDOF 3
