REMARK  Name = ZINC20362917
REMARK  5 active torsions:
REMARK  status: ('A' for Active; 'I' for Inactive)
REMARK    1  A    between atoms: C_9  and  C_12
REMARK    2  A    between atoms: C_12  and  N_13
REMARK    3  A    between atoms: C_20  and  N_24
REMARK    4  A    between atoms: N_27  and  C_30
REMARK    5  A    between atoms: C_30  and  C_31
REMARK                            x       y       z     vdW  Elec       q    Type
REMARK                         _______ _______ _______ _____ _____    ______ ____
ROOT
ATOM      1  N   UNL     1       3.986   4.066   4.199  0.00  0.00    -0.230 N 
ATOM      2  C   UNL     1       5.184   4.122   3.589  0.00  0.00    +0.254 C 
ATOM      3  O   UNL     1       6.155   4.732   3.987  0.00  0.00    -0.270 OA
ATOM      4  C   UNL     1       5.117   3.316   2.352  0.00  0.00    +0.051 A 
ATOM      5  C   UNL     1       6.017   3.014   1.345  0.00  0.00    +0.014 A 
ATOM      6  C   UNL     1       5.628   2.203   0.287  0.00  0.00    +0.003 A 
ATOM      7  C   UNL     1       4.351   1.688   0.231  0.00  0.00    +0.024 A 
ATOM      8  C   UNL     1       3.425   1.986   1.233  0.00  0.00    +0.043 A 
ATOM      9  C   UNL     1       3.805   2.799   2.299  0.00  0.00    +0.070 A 
ATOM     10  C   UNL     1       3.122   3.306   3.502  0.00  0.00    +0.256 C 
ATOM     11  O   UNL     1       1.970   3.077   3.812  0.00  0.00    -0.269 OA
ENDROOT
BRANCH   8  12
ATOM     12  N   UNL     1       2.138   1.472   1.171  0.00  0.00    -0.333 N 
ATOM     13  C   UNL     1       1.419   1.992  -0.001  0.00  0.00    +0.086 C 
ATOM     14  C   UNL     1      -0.018   1.465   0.010  0.00  0.00    -0.059 C 
ATOM     15  N   UNL     1       0.002  -0.004   0.002  0.00  0.00    +0.384 N 
ATOM     16  C   UNL     1       0.721  -0.525   1.173  0.00  0.00    -0.059 C 
ATOM     17  C   UNL     1       2.158   0.003   1.162  0.00  0.00    +0.086 C 
ATOM     18  H   UNL     1       0.540  -0.332  -0.900  0.00  0.00    -0.081 HD
BRANCH  15  19
ATOM     19  C   UNL     1      -1.361  -0.549  -0.064  0.00  0.00    -0.039 C 
BRANCH  19  20
ATOM     20  C   UNL     1      -1.297  -2.033  -0.317  0.00  0.00    -0.010 A 
ATOM     21  C   UNL     1      -1.296  -2.515  -1.615  0.00  0.00    +0.126 A 
ATOM     22  C   UNL     1      -1.231  -3.878  -1.847  0.00  0.00    +0.038 A 
ATOM     23  C   UNL     1      -1.179  -4.758  -0.782  0.00  0.00    +0.004 A 
ATOM     24  C   UNL     1      -1.186  -4.277   0.514  0.00  0.00    +0.020 A 
ATOM     25  C   UNL     1      -1.245  -2.915   0.747  0.00  0.00    +0.045 A 
ATOM     26 CL   UNL     1      -1.252  -2.312   2.375  0.00  0.00    -0.083 Cl
ATOM     27  F   UNL     1      -1.353  -1.655  -2.656  0.00  0.00    -0.205 F 
ENDBRANCH  19  20
ENDBRANCH  15  19
ENDBRANCH   8  12
BRANCH   1  28
ATOM     28  C   UNL     1       3.665   4.743   5.458  0.00  0.00    +0.165 C 
BRANCH  28  37
ATOM     29  C   UNL     1       6.878   1.893  10.161  0.00  0.00    +0.004 A 
ATOM     30  C   UNL     1       7.633   1.884   9.003  0.00  0.00    +0.004 A 
ATOM     31  C   UNL     1       7.133   2.449   7.845  0.00  0.00    +0.049 A 
ATOM     32  C   UNL     1       5.871   3.025   7.842  0.00  0.00    +0.163 A 
ATOM     33  C   UNL     1       5.112   3.031   9.005  0.00  0.00    +0.162 A 
ATOM     34  C   UNL     1       5.620   2.465  10.165  0.00  0.00    +0.049 A 
ATOM     35  O   UNL     1       3.869   3.587   9.023  0.00  0.00    -0.485 OA
ATOM     36  C   UNL     1       3.546   4.475   7.947  0.00  0.00    +0.275 C 
ATOM     37  C   UNL     1       3.982   3.814   6.632  0.00  0.00    +0.229 C 
ATOM     38  O   UNL     1       5.393   3.579   6.694  0.00  0.00    -0.480 OA
ENDBRANCH  28  37
ENDBRANCH   1  28
TORSDOF 5
