REMARK  Name = ZINC33812670
REMARK  11 active torsions:
REMARK  status: ('A' for Active; 'I' for Inactive)
REMARK    1  A    between atoms: C_1  and  C_2
REMARK    2  A    between atoms: C_2  and  C_3
REMARK    3  A    between atoms: C_3  and  C_4
REMARK    4  A    between atoms: C_4  and  N_5
REMARK    5  A    between atoms: C_6  and  N_29
REMARK    6  A    between atoms: C_7  and  C_15
REMARK    7  A    between atoms: C_8  and  C_14
REMARK    8  A    between atoms: C_9  and  C_12
REMARK    9  A    between atoms: N_19  and  C_23
REMARK   10  A    between atoms: N_32  and  C_35
REMARK   11  A    between atoms: C_35  and  C_36
REMARK                            x       y       z     vdW  Elec       q    Type
REMARK                         _______ _______ _______ _____ _____    ______ ____
ROOT
ATOM      1  N   UNL     1       1.972  -2.555  -2.580  0.00  0.00    -0.295 N 
ATOM      2  C   UNL     1       1.107  -2.730  -3.612  0.00  0.00    +0.112 A 
ATOM      3  C   UNL     1       1.477  -3.494  -4.731  0.00  0.00    +0.019 A 
ATOM      4  C   UNL     1       2.754  -4.078  -4.777  0.00  0.00    -0.017 A 
ATOM      5  C   UNL     1       3.622  -3.883  -3.707  0.00  0.00    +0.120 A 
ATOM      6  C   UNL     1       3.202  -3.099  -2.603  0.00  0.00    +0.270 A 
ATOM      7  O   UNL     1       3.960  -2.921  -1.665  0.00  0.00    -0.266 OA
ATOM      8  C   UNL     1       3.176  -4.903  -5.966  0.00  0.00    +0.046 C 
ENDROOT
BRANCH   3   9
ATOM      9  C   UNL     1       0.539  -3.679  -5.840  0.00  0.00    +0.032 C 
ATOM     10  C   UNL     1       0.816  -3.147  -7.061  0.00  0.00    +0.077 C 
ATOM     11  C   UNL     1       1.890  -2.294  -7.458  0.00  0.00    +0.259 C 
ATOM     12  O   UNL     1       2.735  -1.935  -6.658  0.00  0.00    -0.269 OA
ATOM     13  N   UNL     1       1.941  -1.907  -8.721  0.00  0.00    -0.252 N 
ATOM     14  C   UNL     1       1.004  -2.305  -9.609  0.00  0.00    +0.121 C 
ATOM     15  S   UNL     1       0.874  -1.929 -11.274  0.00  0.00    -0.027 S 
ATOM     16  S   UNL     1      -0.063  -3.330  -8.607  0.00  0.00    -0.061 S 
BRANCH  13  17
ATOM     17  C   UNL     1       3.029  -1.032  -9.165  0.00  0.00    +0.083 C 
ATOM     18  C   UNL     1       2.445   0.274  -9.707  0.00  0.00    +0.023 C 
ATOM     19  C   UNL     1       3.582   1.187 -10.170  0.00  0.00    +0.002 C 
ATOM     20  C   UNL     1       4.380   0.489 -11.273  0.00  0.00    +0.000 C 
ATOM     21  C   UNL     1       4.965  -0.817 -10.730  0.00  0.00    +0.002 C 
ATOM     22  C   UNL     1       3.828  -1.730 -10.267  0.00  0.00    +0.023 C 
ENDBRANCH  13  17
ENDBRANCH   3   9
BRANCH   2  23
ATOM     23  N   UNL     1      -0.131  -2.159  -3.561  0.00  0.00    -0.320 N 
ATOM     24  C   UNL     1      -1.247  -2.834  -2.879  0.00  0.00    +0.088 C 
ATOM     25  C   UNL     1      -2.450  -2.862  -3.828  0.00  0.00    -0.060 C 
ATOM     26  N   UNL     1      -2.750  -1.496  -4.277  0.00  0.00    +0.382 N 
ATOM     27  C   UNL     1      -1.631  -0.974  -5.072  0.00  0.00    -0.060 C 
ATOM     28  C   UNL     1      -0.387  -0.850  -4.180  0.00  0.00    +0.088 C 
ATOM     29  H   UNL     1      -2.895  -0.904  -3.473  0.00  0.00    -0.082 HD
BRANCH  26  30
ATOM     30  C   UNL     1      -3.968  -1.509  -5.098  0.00  0.00    -0.082 C 
ATOM     31  C   UNL     1      -4.353  -0.074  -5.463  0.00  0.00    -0.017 C 
ENDBRANCH  26  30
ENDBRANCH   2  23
BRANCH   5  32
ATOM     32  C   UNL     1       4.930  -4.466  -3.723  0.00  0.00    +0.105 C 
ATOM     33  N   UNL     1       5.968  -4.928  -3.736  0.00  0.00    -0.191 NA
ENDBRANCH   5  32
BRANCH   1  34
ATOM     34  C   UNL     1       1.562  -1.754  -1.424  0.00  0.00    +0.126 C 
BRANCH  34  35
ATOM     35  C   UNL     1       2.044  -0.313  -1.605  0.00  0.00    +0.021 C 
BRANCH  35  37
ATOM     36  C   UNL     1       2.097   1.964  -0.578  0.00  0.00    +0.004 C 
ATOM     37  C   UNL     1       1.615   0.524  -0.398  0.00  0.00    -0.002 C 
ENDBRANCH  35  37
ENDBRANCH  34  35
ENDBRANCH   1  34
TORSDOF 8
