REMARK  Name = ZINC38648753
REMARK  7 active torsions:
REMARK  status: ('A' for Active; 'I' for Inactive)
REMARK    1  A    between atoms: C_1  and  C_2
REMARK    2  A    between atoms: C_2  and  C_3
REMARK    3  A    between atoms: C_3  and  C_4
REMARK    4  A    between atoms: C_4  and  O_5
REMARK    5  A    between atoms: O_5  and  C_6
REMARK    6  A    between atoms: C_10  and  C_12
REMARK    7  A    between atoms: N_27  and  C_28
REMARK                            x       y       z     vdW  Elec       q    Type
REMARK                         _______ _______ _______ _____ _____    ______ ____
ROOT
ATOM      1  C   UNL     1       2.959  -6.280  -5.094  0.00  0.00    +0.145 C 
ATOM      2  C   UNL     1       4.332  -6.742  -4.730  0.00  0.00    +0.072 A 
ATOM      3  C   UNL     1       5.489  -6.011  -4.201  0.00  0.00    +0.199 A 
ATOM      4  O   UNL     1       5.427  -4.861  -3.803  0.00  0.00    -0.287 OA
ATOM      5  C   UNL     1       6.742  -6.807  -4.196  0.00  0.00    +0.066 A 
ATOM      6  C   UNL     1       7.964  -6.197  -3.912  0.00  0.00    +0.035 A 
ATOM      7  C   UNL     1       9.118  -6.950  -3.917  0.00  0.00    +0.042 A 
ATOM      8  C   UNL     1       9.062  -8.308  -4.204  0.00  0.00    +0.023 A 
ATOM      9  C   UNL     1       7.862  -8.920  -4.483  0.00  0.00    +0.048 A 
ATOM     10  C   UNL     1       6.679  -8.180  -4.482  0.00  0.00    +0.140 A 
ATOM     11  O   UNL     1       5.512  -8.809  -4.751  0.00  0.00    -0.450 OA
ATOM     12  C   UNL     1       4.401  -8.083  -4.981  0.00  0.00    +0.199 A 
ATOM     13  C   UNL     1       3.098  -8.521  -5.511  0.00  0.00    +0.283 C 
ATOM     14  O   UNL     1       2.827  -9.659  -5.839  0.00  0.00    -0.267 OA
ATOM     15  N   UNL     1       2.248  -7.473  -5.581  0.00  0.00    -0.279 N 
ATOM     16 CL   UNL     1      10.644  -6.200  -3.564  0.00  0.00    -0.084 Cl
ENDROOT
BRANCH  15  17
ATOM     17  C   UNL     1       0.863  -7.516  -6.056  0.00  0.00    +0.100 C 
ATOM     18  C   UNL     1       0.053  -8.509  -5.206  0.00  0.00    +0.047 C 
ATOM     19  C   UNL     1      -1.305  -8.802  -5.888  0.00  0.00    +0.168 C 
ATOM     20  S   UNL     1      -0.926  -8.544  -7.670  0.00  0.00    -0.029 S 
ATOM     21  O   UNL     1      -0.973  -9.798  -8.338  0.00  0.00    -0.174 OA
ATOM     22  O   UNL     1      -1.708  -7.463  -8.157  0.00  0.00    -0.174 OA
ATOM     23  C   UNL     1       0.829  -8.004  -7.533  0.00  0.00    +0.188 C 
ENDBRANCH  15  17
BRANCH   1  28
ATOM     24  C   UNL     1       1.514  -3.833  -2.603  0.00  0.00    +0.121 A 
ATOM     25  C   UNL     1       0.980  -4.692  -1.653  0.00  0.00    +0.045 A 
ATOM     26  C   UNL     1       1.088  -6.059  -1.821  0.00  0.00    +0.004 A 
ATOM     27  C   UNL     1       1.728  -6.571  -2.934  0.00  0.00    +0.006 A 
ATOM     28  C   UNL     1       2.262  -5.718  -3.882  0.00  0.00    -0.019 A 
ATOM     29  C   UNL     1       2.151  -4.350  -3.722  0.00  0.00    +0.051 A 
BRANCH  24  30
ATOM     30  O   UNL     1       1.408  -2.488  -2.441  0.00  0.00    -0.492 OA
BRANCH  30  31
ATOM     31  C   UNL     1       0.739  -2.027  -1.265  0.00  0.00    +0.229 C 
BRANCH  31  32
ATOM     32  C   UNL     1       0.718  -0.497  -1.257  0.00  0.00    +0.041 C 
BRANCH  32  34
ATOM     33  C   UNL     1      -0.019   1.526   0.010  0.00  0.00    +0.004 C 
ATOM     34  C   UNL     1       0.002  -0.004   0.002  0.00  0.00    -0.000 C 
ENDBRANCH  32  34
ENDBRANCH  31  32
ENDBRANCH  30  31
ENDBRANCH  24  30
ENDBRANCH   1  28
TORSDOF 6
