REMARK  Name = ZINC55167873
REMARK  3 active torsions:
REMARK  status: ('A' for Active; 'I' for Inactive)
REMARK    1  A    between atoms: C_3  and  N_10
REMARK    2  A    between atoms: C_5  and  N_7
REMARK    3  A    between atoms: C_11  and  C_13
REMARK                            x       y       z     vdW  Elec       q    Type
REMARK                         _______ _______ _______ _____ _____    ______ ____
ROOT
ATOM      1  N   UNL     1       3.586   2.129   0.042  0.00  0.00    -0.281 N 
ATOM      2  C   UNL     1       3.568   3.467  -0.116  0.00  0.00    +0.255 C 
ATOM      3  O   UNL     1       2.506   4.061  -0.160  0.00  0.00    -0.270 OA
ATOM      4  H   UNL     1       4.425   1.671   0.208  0.00  0.00    +0.155 HD
ENDROOT
BRANCH   2   5
ATOM      5  C   UNL     1       4.829   4.209  -0.235  0.00  0.00    +0.120 A 
ATOM      6  C   UNL     1       4.839   5.611  -0.230  0.00  0.00    +0.131 A 
ATOM      7  N   UNL     1       5.981   6.257  -0.338  0.00  0.00    -0.237 NA
ATOM      8  C   UNL     1       7.145   5.612  -0.454  0.00  0.00    +0.140 A 
ATOM      9  C   UNL     1       8.332   6.354  -0.566  0.00  0.00    +0.048 A 
ATOM     10  C   UNL     1       9.525   5.701  -0.684  0.00  0.00    +0.020 A 
ATOM     11  C   UNL     1       9.547   4.300  -0.693  0.00  0.00    +0.035 A 
ATOM     12  C   UNL     1       8.392   3.603  -0.584  0.00  0.00    +0.111 A 
ATOM     13  N   UNL     1       7.199   4.247  -0.465  0.00  0.00    -0.267 N 
ATOM     14  C   UNL     1       6.063   3.525  -0.352  0.00  0.00    +0.271 A 
ATOM     15  O   UNL     1       6.099   2.307  -0.355  0.00  0.00    -0.266 OA
ATOM     16 BR   UNL     1      11.193   3.383  -0.857  0.00  0.00    -0.049 Br
ENDBRANCH   2   5
BRANCH   1  19
ATOM     17  C   UNL     1       0.030   1.241   0.333  0.00  0.00    +0.004 A 
ATOM     18  C   UNL     1       1.205   1.964   0.409  0.00  0.00    +0.023 A 
ATOM     19  C   UNL     1       2.395   1.400  -0.033  0.00  0.00    +0.036 A 
ATOM     20  C   UNL     1       2.399   0.111  -0.550  0.00  0.00    +0.056 A 
ATOM     21  C   UNL     1       1.221  -0.606  -0.623  0.00  0.00    +0.128 A 
ATOM     22  C   UNL     1       0.038  -0.042  -0.182  0.00  0.00    +0.033 A 
BRANCH  21  23
ATOM     23  N   UNL     1       1.225  -1.980  -1.174  0.00  0.00    +0.056 N 
ATOM     24  O   UNL     1       2.259  -2.474  -1.560  0.00  0.00    -0.126 OA
ATOM     25  O   UNL     1       0.194  -2.608  -1.238  0.00  0.00    -0.126 OA
ENDBRANCH  21  23
ENDBRANCH   1  19
TORSDOF 3
