REMARK  Name = ZINC08861263
REMARK  7 active torsions:
REMARK  status: ('A' for Active; 'I' for Inactive)
REMARK    1  A    between atoms: C_4  and  C_7
REMARK    2  A    between atoms: C_7  and  C_8
REMARK    3  A    between atoms: C_11  and  S_13
REMARK    4  A    between atoms: S_13  and  C_14
REMARK    5  A    between atoms: C_14  and  C_15
REMARK    6  A    between atoms: C_18  and  C_30
REMARK    7  A    between atoms: C_21  and  C_23
REMARK                            x       y       z     vdW  Elec       q    Type
REMARK                         _______ _______ _______ _____ _____    ______ ____
ROOT
ATOM      1  C   UNL     1      -4.064  -0.538   0.039  0.00  0.00    +0.246 C 
ATOM      2  O   UNL     1      -4.113  -1.750   0.033  0.00  0.00    -0.273 OA
ATOM      3  N   UNL     1      -5.203   0.182   0.053  0.00  0.00    -0.181 N 
ATOM      4  C   UNL     1      -6.566  -0.372   0.058  0.00  0.00    +0.173 C 
ATOM      5  C   UNL     1      -7.465   0.880   0.077  0.00  0.00    +0.090 C 
ATOM      6  C   UNL     1      -6.485   2.032   0.074  0.00  0.00    +0.069 C 
ATOM      7  N   UNL     1      -5.282   1.573   0.060  0.00  0.00    -0.181 NA
ENDROOT
BRANCH   6   8
ATOM      8  C   UNL     1      -6.851   3.461   0.084  0.00  0.00    -0.002 A 
ATOM      9  C   UNL     1      -8.196   3.840   0.093  0.00  0.00    +0.011 A 
ATOM     10  C   UNL     1      -8.531   5.178   0.109  0.00  0.00    +0.020 A 
ATOM     11  C   UNL     1      -7.539   6.144   0.105  0.00  0.00    +0.041 A 
ATOM     12  C   UNL     1      -6.205   5.774   0.090  0.00  0.00    +0.020 A 
ATOM     13  C   UNL     1      -5.855   4.440   0.080  0.00  0.00    +0.011 A 
ATOM     14 CL   UNL     1      -7.970   7.825   0.118  0.00  0.00    -0.084 Cl
ENDBRANCH   6   8
BRANCH   4  15
ATOM     15  C   UNL     1      -6.795  -1.206   1.292  0.00  0.00    +0.128 A 
ATOM     16  C   UNL     1      -7.488  -2.358   1.345  0.00  0.00    +0.046 A 
ATOM     17  C   UNL     1      -7.450  -2.797   2.688  0.00  0.00    +0.041 A 
ATOM     18  C   UNL     1      -6.737  -1.887   3.376  0.00  0.00    +0.195 A 
ATOM     19  O   UNL     1      -6.338  -0.928   2.523  0.00  0.00    -0.466 OA
ENDBRANCH   4  15
BRANCH   1  20
ATOM     20  C   UNL     1      -2.729   0.162   0.029  0.00  0.00    +0.176 C 
BRANCH  20  21
ATOM     21  S   UNL     1      -1.402  -1.068   0.010  0.00  0.00    -0.056 S 
BRANCH  21  25
ATOM     22  C   UNL     1       2.022   0.748  -0.013  0.00  0.00    +0.222 A 
ATOM     23  N   UNL     1       1.192   1.749   0.000  0.00  0.00    -0.111 NA
ATOM     24  N   UNL     1      -0.016   1.307   0.009  0.00  0.00    -0.101 NA
ATOM     25  C   UNL     1       0.002  -0.004   0.002  0.00  0.00    +0.278 A 
ATOM     26  O   UNL     1       1.293  -0.386  -0.012  0.00  0.00    -0.415 OA
BRANCH  22  27
ATOM     27  C   UNL     1       3.527   0.838  -0.028  0.00  0.00    +0.132 C 
BRANCH  27  31
ATOM     28  C   UNL     1       4.988   0.901   3.986  0.00  0.00    +0.000 A 
ATOM     29  C   UNL     1       4.824  -0.304   3.329  0.00  0.00    +0.000 A 
ATOM     30  C   UNL     1       4.350  -0.324   2.030  0.00  0.00    +0.004 A 
ATOM     31  C   UNL     1       4.042   0.861   1.388  0.00  0.00    -0.038 A 
ATOM     32  C   UNL     1       4.212   2.066   2.043  0.00  0.00    +0.004 A 
ATOM     33  C   UNL     1       4.680   2.086   3.344  0.00  0.00    +0.000 A 
ENDBRANCH  27  31
ENDBRANCH  22  27
ENDBRANCH  21  25
ENDBRANCH  20  21
ENDBRANCH   1  20
TORSDOF 7
