REMARK  Name = ZINC03147726
REMARK  4 active torsions:
REMARK  status: ('A' for Active; 'I' for Inactive)
REMARK    1  A    between atoms: C_1  and  C_2
REMARK    2  A    between atoms: C_3  and  S_12
REMARK    3  A    between atoms: S_12  and  N_15
REMARK    4  A    between atoms: N_15  and  C_16
REMARK                            x       y       z     vdW  Elec       q    Type
REMARK                         _______ _______ _______ _____ _____    ______ ____
ROOT
ATOM      1  S   UNL     1      -3.541   3.459   0.758  0.00  0.00    +0.079 S 
ATOM      2  O   UNL     1      -4.867   3.901   0.506  0.00  0.00    -0.150 OA
ATOM      3  O   UNL     1      -3.003   2.285   0.166  0.00  0.00    -0.150 OA
ENDROOT
BRANCH   1   6
ATOM      4  C   UNL     1      -5.448   4.623   2.771  0.00  0.00    +0.065 C 
ATOM      5  C   UNL     1      -4.308   3.814   3.332  0.00  0.00    +0.049 A 
ATOM      6  C   UNL     1      -3.402   3.253   2.502  0.00  0.00    +0.191 A 
ATOM      7  C   UNL     1      -2.343   2.492   3.053  0.00  0.00    +0.281 A 
ATOM      8  O   UNL     1      -1.516   1.972   2.324  0.00  0.00    -0.266 OA
ATOM      9  N   UNL     1      -2.255   2.351   4.391  0.00  0.00    -0.273 N 
ATOM     10  H   UNL     1      -1.506   1.820   4.787  0.00  0.00    +0.173 HD
ATOM     11  C   UNL     1      -3.171   2.921   5.195  0.00  0.00    +0.327 A 
ATOM     12  O   UNL     1      -3.082   2.782   6.399  0.00  0.00    -0.247 OA
ATOM     13  N   UNL     1      -4.185   3.643   4.684  0.00  0.00    -0.310 N 
ATOM     14  H   UNL     1      -4.856   4.058   5.298  0.00  0.00    +0.170 HD
ENDBRANCH   1   6
BRANCH   1  15
ATOM     15  N   UNL     1      -2.538   4.706   0.331  0.00  0.00    -0.215 N 
ATOM     16  H   UNL     1      -2.909   5.521  -0.042  0.00  0.00    +0.174 HD
BRANCH  15  17
ATOM     17  C   UNL     1      -1.161   4.585   0.508  0.00  0.00    +0.056 A 
ATOM     18  C   UNL     1      -0.442   3.673  -0.235  0.00  0.00    +0.025 A 
ATOM     19  C   UNL     1       0.932   3.541  -0.062  0.00  0.00    +0.002 A 
ATOM     20  C   UNL     1       1.606   4.312   0.836  0.00  0.00    +0.008 A 
ATOM     21  C   UNL     1       0.911   5.257   1.609  0.00  0.00    -0.016 A 
ATOM     22  C   UNL     1      -0.489   5.398   1.446  0.00  0.00    +0.004 A 
ATOM     23  C   UNL     1      -1.182   6.344   2.218  0.00  0.00    +0.010 A 
ATOM     24  C   UNL     1      -0.501   7.111   3.114  0.00  0.00    +0.001 A 
ATOM     25  C   UNL     1       0.876   6.973   3.275  0.00  0.00    +0.001 A 
ATOM     26  C   UNL     1       1.580   6.068   2.543  0.00  0.00    +0.008 A 
ENDBRANCH  15  17
ENDBRANCH   1  15
TORSDOF 3
