REMARK  Name = ZINC09639656
REMARK  10 active torsions:
REMARK  status: ('A' for Active; 'I' for Inactive)
REMARK    1  A    between atoms: C_1  and  C_2
REMARK    2  A    between atoms: C_2  and  C_27
REMARK    3  A    between atoms: C_5  and  C_23
REMARK    4  A    between atoms: C_6  and  N_12
REMARK    5  A    between atoms: C_9  and  C_10
REMARK    6  A    between atoms: C_9  and  C_11
REMARK    7  A    between atoms: C_13  and  C_15
REMARK    8  A    between atoms: C_18  and  N_20
REMARK    9  A    between atoms: C_23  and  O_25
REMARK   10  A    between atoms: O_25  and  C_26
REMARK                            x       y       z     vdW  Elec       q    Type
REMARK                         _______ _______ _______ _____ _____    ______ ____
ROOT
ATOM      1  C   UNL     1      -0.013   1.086   0.008  0.00  0.00    -0.010 C 
ATOM      2  C   UNL     1      -0.729   1.580   1.268  0.00  0.00    -0.069 C 
ATOM      3  C   UNL     1      -2.138   0.980   1.315  0.00  0.00    +0.024 C 
ATOM      4  C   UNL     1      -2.982   1.650   0.241  0.00  0.00    -0.024 A 
ATOM      5  C   UNL     1      -4.133   1.057  -0.412  0.00  0.00    +0.091 A 
ATOM      6  C   UNL     1      -4.798   1.828  -1.360  0.00  0.00    +0.087 A 
ATOM      7  S   UNL     1      -3.896   3.308  -1.369  0.00  0.00    -0.079 S 
ATOM      8  C   UNL     1      -2.675   2.906  -0.153  0.00  0.00    -0.016 A 
ATOM      9  C   UNL     1      -1.545   3.748   0.345  0.00  0.00    -0.041 C 
ATOM     10  C   UNL     1      -2.141   5.007   1.007  0.00  0.00    -0.005 C 
ATOM     11  C   UNL     1      -0.679   4.204  -0.835  0.00  0.00    -0.005 C 
ATOM     12  C   UNL     1       0.048   1.047   2.488  0.00  0.00    -0.010 C 
ATOM     13  N   UNL     1      -0.717   3.061   1.375  0.00  0.00    +0.389 N 
ATOM     14  H   UNL     1       0.253   3.383   1.279  0.00  0.00    -0.084 HD
ATOM     15  H   UNL     1      -1.073   3.320   2.303  0.00  0.00    -0.084 HD
ENDROOT
BRANCH   6  16
ATOM     16  N   UNL     1      -5.910   1.493  -2.113  0.00  0.00    -0.275 N 
ATOM     17  C   UNL     1      -6.421   2.378  -2.991  0.00  0.00    +0.255 C 
ATOM     18  O   UNL     1      -5.905   3.472  -3.123  0.00  0.00    -0.269 OA
ATOM     19  H   UNL     1      -6.322   0.621  -2.008  0.00  0.00    +0.156 HD
BRANCH  17  20
ATOM     20  C   UNL     1      -7.599   2.023  -3.787  0.00  0.00    +0.076 A 
ATOM     21  C   UNL     1      -8.274   2.779  -4.735  0.00  0.00    +0.023 A 
ATOM     22  C   UNL     1      -9.360   2.198  -5.339  0.00  0.00    +0.041 A 
ATOM     23  C   UNL     1      -9.718   0.934  -4.988  0.00  0.00    +0.164 A 
ATOM     24  S   UNL     1      -8.535   0.504  -3.796  0.00  0.00    -0.060 S 
BRANCH  23  25
ATOM     25  N   UNL     1     -10.842   0.120  -5.504  0.00  0.00    +0.063 N 
ATOM     26  O   UNL     1     -11.585   0.577  -6.354  0.00  0.00    -0.126 OA
ATOM     27  O   UNL     1     -11.024  -1.006  -5.077  0.00  0.00    -0.126 OA
ENDBRANCH  23  25
ENDBRANCH  17  20
ENDBRANCH   6  16
BRANCH   5  28
ATOM     28  C   UNL     1      -4.586  -0.298  -0.092  0.00  0.00    +0.342 C 
ATOM     29  O   UNL     1      -5.402  -0.473   0.793  0.00  0.00    -0.245 OA
BRANCH  28  30
ATOM     30  O   UNL     1      -4.100  -1.352  -0.779  0.00  0.00    -0.464 OA
ATOM     31  C   UNL     1      -4.595  -2.666  -0.407  0.00  0.00    +0.280 C 
ENDBRANCH  28  30
ENDBRANCH   5  28
TORSDOF 5
