REMARK  Name = ZINC39868091
REMARK  8 active torsions:
REMARK  status: ('A' for Active; 'I' for Inactive)
REMARK    1  A    between atoms: C_1  and  O_2
REMARK    2  A    between atoms: O_2  and  C_3
REMARK    3  A    between atoms: C_6  and  C_9
REMARK    4  A    between atoms: C_10  and  C_11
REMARK    5  A    between atoms: C_11  and  O_13
REMARK    6  A    between atoms: O_13  and  C_14
REMARK    7  A    between atoms: C_17  and  C_20
REMARK    8  A    between atoms: C_25  and  C_30
REMARK                            x       y       z     vdW  Elec       q    Type
REMARK                         _______ _______ _______ _____ _____    ______ ____
ROOT
ATOM      1  C   UNL     1       3.999  -6.652  -6.416  0.00  0.00    +0.132 A 
ATOM      2  C   UNL     1       4.717  -5.982  -7.401  0.00  0.00    +0.047 A 
ATOM      3  C   UNL     1       5.388  -6.693  -8.370  0.00  0.00    +0.011 A 
ATOM      4  C   UNL     1       5.345  -8.093  -8.364  0.00  0.00    -0.024 A 
ATOM      5  C   UNL     1       4.619  -8.762  -7.370  0.00  0.00    +0.011 A 
ATOM      6  C   UNL     1       3.957  -8.041  -6.402  0.00  0.00    +0.047 A 
ENDROOT
BRANCH   4   7
ATOM      7  C   UNL     1       6.057  -8.857  -9.396  0.00  0.00    +0.028 C 
ATOM      8  C   UNL     1       7.035  -8.261 -10.128  0.00  0.00    +0.081 A 
ATOM      9  C   UNL     1       7.767  -8.769 -11.298  0.00  0.00    +0.273 A 
ATOM     10  O   UNL     1       7.537  -9.873 -11.754  0.00  0.00    -0.266 OA
ATOM     11  N   UNL     1       8.695  -7.974 -11.844  0.00  0.00    -0.235 N 
ATOM     12  C   UNL     1       9.598  -8.023 -12.911  0.00  0.00    +0.172 A 
ATOM     13  N   UNL     1      10.255  -6.890 -12.925  0.00  0.00    -0.128 NA
ATOM     14  N   UNL     1       9.851  -6.133 -11.968  0.00  0.00    -0.121 NA
ATOM     15  C   UNL     1       8.917  -6.738 -11.293  0.00  0.00    +0.204 A 
ATOM     16  S   UNL     1       7.774  -6.645  -9.935  0.00  0.00    -0.044 S 
BRANCH  12  17
ATOM     17  C   UNL     1       9.779  -9.149 -13.850  0.00  0.00    +0.023 A 
ATOM     18  C   UNL     1       8.707  -9.987 -14.184  0.00  0.00    +0.031 A 
ATOM     19  C   UNL     1       8.921 -11.025 -15.066  0.00  0.00    +0.111 A 
ATOM     20  N   UNL     1      10.113 -11.234 -15.591  0.00  0.00    -0.263 NA
ATOM     21  C   UNL     1      11.150 -10.469 -15.304  0.00  0.00    +0.111 A 
ATOM     22  C   UNL     1      11.025  -9.404 -14.436  0.00  0.00    +0.031 A 
ENDBRANCH  12  17
ENDBRANCH   4   7
BRANCH   1  23
ATOM     23  O   UNL     1       3.340  -5.945  -5.462  0.00  0.00    -0.423 OA
BRANCH  23  24
ATOM     24  C   UNL     1       2.164  -5.372  -5.797  0.00  0.00    +0.337 C 
ATOM     25  O   UNL     1       1.769  -5.420  -6.946  0.00  0.00    -0.245 OA
BRANCH  24  27
ATOM     26  C   UNL     1       0.214  -4.140  -5.143  0.00  0.00    +0.015 C 
ATOM     27  C   UNL     1       1.390  -4.714  -4.808  0.00  0.00    +0.092 C 
BRANCH  26  31
ATOM     28  C   UNL     1      -2.103  -2.171  -2.186  0.00  0.00    +0.120 A 
ATOM     29  C   UNL     1      -2.556  -2.224  -3.499  0.00  0.00    +0.046 A 
ATOM     30  C   UNL     1      -1.808  -2.862  -4.463  0.00  0.00    +0.011 A 
ATOM     31  C   UNL     1      -0.589  -3.458  -4.118  0.00  0.00    -0.025 A 
ATOM     32  C   UNL     1      -0.137  -3.401  -2.795  0.00  0.00    +0.011 A 
ATOM     33  C   UNL     1      -0.890  -2.756  -1.840  0.00  0.00    +0.046 A 
BRANCH  28  35
ATOM     34  C   UNL     1      -4.080  -0.963  -1.662  0.00  0.00    +0.277 C 
ATOM     35  O   UNL     1      -2.844  -1.542  -1.239  0.00  0.00    -0.495 OA
ENDBRANCH  28  35
ENDBRANCH  26  31
ENDBRANCH  24  27
ENDBRANCH  23  24
ENDBRANCH   1  23
TORSDOF 7
