REMARK  Name = ZINC05530809
REMARK  5 active torsions:
REMARK  status: ('A' for Active; 'I' for Inactive)
REMARK    1  A    between atoms: C_1  and  N_2
REMARK    2  A    between atoms: C_6  and  C_8
REMARK    3  A    between atoms: C_8  and  O_9
REMARK    4  A    between atoms: O_9  and  C_10
REMARK    5  A    between atoms: C_10  and  C_12
REMARK                            x       y       z     vdW  Elec       q    Type
REMARK                         _______ _______ _______ _____ _____    ______ ____
ROOT
ATOM      1  C   UNL     1      -2.436   6.601   0.060  0.00  0.00    +0.356 C 
ATOM      2  O   UNL     1      -3.651   6.604   0.072  0.00  0.00    -0.243 OA
ENDROOT
BRANCH   1   3
ATOM      3  C   UNL     1      -1.705   5.327   0.046  0.00  0.00    +0.125 A 
ATOM      4  C   UNL     1      -2.273   4.092   0.045  0.00  0.00    +0.042 A 
ATOM      5  C   UNL     1      -1.229   3.136   0.030  0.00  0.00    +0.000 A 
ATOM      6  C   UNL     1      -1.207   1.735   0.017  0.00  0.00    +0.010 A 
ATOM      7  C   UNL     1      -0.013   1.076   0.008  0.00  0.00    +0.001 A 
ATOM      8  C   UNL     1       1.185   1.780   0.000  0.00  0.00    +0.002 A 
ATOM      9  C   UNL     1       1.189   3.157   0.007  0.00  0.00    +0.026 A 
ATOM     10  C   UNL     1      -0.016   3.853   0.022  0.00  0.00    +0.047 A 
ATOM     11  N   UNL     1      -0.330   5.191   0.032  0.00  0.00    -0.349 N 
ATOM     12  H   UNL     1       0.309   5.921   0.031  0.00  0.00    +0.166 HD
ENDBRANCH   1   3
BRANCH   1  13
ATOM     13  O   UNL     1      -1.758   7.767   0.059  0.00  0.00    -0.451 OA
BRANCH  13  14
ATOM     14  C   UNL     1      -2.545   8.987   0.073  0.00  0.00    +0.328 C 
BRANCH  14  20
ATOM     15  C   UNL     1      -0.927  14.899   0.088  0.00  0.00    +0.129 C 
ATOM     16  N   UNL     1      -1.822  13.739   0.091  0.00  0.00    -0.302 N 
ATOM     17  C   UNL     1      -1.311  12.492   0.080  0.00  0.00    +0.306 C 
ATOM     18  O   UNL     1      -0.107  12.330   0.067  0.00  0.00    -0.252 OA
ATOM     19  N   UNL     1      -2.135  11.426   0.082  0.00  0.00    -0.237 N 
ATOM     20  C   UNL     1      -1.624  10.179   0.071  0.00  0.00    +0.258 C 
ATOM     21  O   UNL     1      -0.422  10.017   0.058  0.00  0.00    -0.272 OA
ATOM     22  H   UNL     1      -2.784  13.869   0.101  0.00  0.00    +0.150 HD
ATOM     23  H   UNL     1      -3.096  11.556   0.092  0.00  0.00    +0.159 HD
ENDBRANCH  14  20
ENDBRANCH  13  14
ENDBRANCH   1  13
TORSDOF 4
