REMARK  Name = ZINC52907767
REMARK  4 active torsions:
REMARK  status: ('A' for Active; 'I' for Inactive)
REMARK    1  A    between atoms: C_3  and  S_12
REMARK    2  A    between atoms: C_4  and  C_8
REMARK    3  A    between atoms: N_9  and  O_10
REMARK    4  A    between atoms: S_12  and  C_13
REMARK                            x       y       z     vdW  Elec       q    Type
REMARK                         _______ _______ _______ _____ _____    ______ ____
ROOT
ATOM      1  C   UNL     1      -0.017   1.381   0.028  0.00  0.00    +0.003 A 
ATOM      2  C   UNL     1       1.165   2.095   0.017  0.00  0.00    +0.016 A 
ATOM      3  C   UNL     1       2.382   1.428  -0.009  0.00  0.00    +0.025 A 
ATOM      4  C   UNL     1       2.405   0.025  -0.025  0.00  0.00    +0.050 A 
ATOM      5  C   UNL     1       1.203  -0.684  -0.014  0.00  0.00    +0.053 A 
ATOM      6  C   UNL     1       0.002  -0.003   0.012  0.00  0.00    +0.021 A 
ATOM      7 CL   UNL     1       1.218  -2.420  -0.034  0.00  0.00    -0.083 Cl
ENDROOT
BRANCH   4   8
ATOM      8  C   UNL     1       3.694  -0.697  -0.053  0.00  0.00    +0.165 C 
ATOM      9  N   UNL     1       4.280  -1.027   1.062  0.00  0.00    -0.071 NA
ATOM     10  N   UNL     1       4.279  -1.022  -1.266  0.00  0.00    -0.340 N 
ATOM     11  H   UNL     1       3.842  -0.776  -2.096  0.00  0.00    +0.144 HD
ATOM     12  H   UNL     1       5.125  -1.496  -1.285  0.00  0.00    +0.144 HD
BRANCH   9  13
ATOM     13  O   UNL     1       3.682  -0.695   2.301  0.00  0.00    -0.408 OA
ATOM     14  H   UNL     1       4.190  -0.981   3.072  0.00  0.00    +0.328 HD
ENDBRANCH   9  13
ENDBRANCH   4   8
BRANCH   3  15
ATOM     15  S   UNL     1       3.891   2.338  -0.023  0.00  0.00    -0.089 S 
BRANCH  15  16
ATOM     16  C   UNL     1       3.375   4.017  -0.159  0.00  0.00    +0.013 A 
ATOM     17  C   UNL     1       3.234   4.796   0.983  0.00  0.00    +0.016 A 
ATOM     18  C   UNL     1       2.829   6.112   0.874  0.00  0.00    +0.021 A 
ATOM     19  C   UNL     1       2.563   6.654  -0.371  0.00  0.00    +0.041 A 
ATOM     20  C   UNL     1       2.702   5.880  -1.510  0.00  0.00    +0.021 A 
ATOM     21  C   UNL     1       3.113   4.566  -1.408  0.00  0.00    +0.016 A 
ATOM     22 CL   UNL     1       2.053   8.308  -0.505  0.00  0.00    -0.084 Cl
ENDBRANCH  15  16
ENDBRANCH   3  15
TORSDOF 4
