REMARK  Name = ZINC39979749
REMARK  8 active torsions:
REMARK  status: ('A' for Active; 'I' for Inactive)
REMARK    1  A    between atoms: C_1  and  O_2
REMARK    2  A    between atoms: O_2  and  C_3
REMARK    3  A    between atoms: C_6  and  S_9
REMARK    4  A    between atoms: S_9  and  N_12
REMARK    5  A    between atoms: N_12  and  C_13
REMARK    6  A    between atoms: C_15  and  C_18
REMARK    7  A    between atoms: C_18  and  C_19
REMARK    8  A    between atoms: N_21  and  C_22
REMARK                            x       y       z     vdW  Elec       q    Type
REMARK                         _______ _______ _______ _____ _____    ______ ____
ROOT
ATOM      1  C   UNL     1       1.724  -3.581   6.768  0.00  0.00    +0.202 A 
ATOM      2  N   UNL     1       1.008  -3.858   7.837  0.00  0.00    -0.227 NA
ATOM      3  C   UNL     1       1.556  -4.426   8.896  0.00  0.00    +0.059 A 
ATOM      4  C   UNL     1       2.880  -4.706   8.829  0.00  0.00    +0.072 A 
ATOM      5  S   UNL     1       3.262  -4.120   7.186  0.00  0.00    -0.057 S 
ENDROOT
BRANCH   1   6
ATOM      6  N   UNL     1       1.310  -2.993   5.582  0.00  0.00    -0.070 NA
BRANCH   6   7
ATOM      7  S   UNL     1       2.397  -2.745   4.358  0.00  0.00    +0.093 S 
ATOM      8  O   UNL     1       2.795  -4.031   3.901  0.00  0.00    -0.148 OA
ATOM      9  O   UNL     1       3.329  -1.783   4.830  0.00  0.00    -0.148 OA
BRANCH   7  13
ATOM     10  C   UNL     1       0.147  -0.799   0.944  0.00  0.00    +0.120 A 
ATOM     11  C   UNL     1       0.750  -0.014   1.915  0.00  0.00    +0.047 A 
ATOM     12  C   UNL     1       1.436  -0.610   2.956  0.00  0.00    +0.032 A 
ATOM     13  C   UNL     1       1.521  -1.988   3.029  0.00  0.00    +0.111 A 
ATOM     14  C   UNL     1       0.921  -2.773   2.062  0.00  0.00    +0.032 A 
ATOM     15  C   UNL     1       0.229  -2.182   1.023  0.00  0.00    +0.047 A 
BRANCH  10  17
ATOM     16  C   UNL     1      -0.572   1.213  -0.098  0.00  0.00    +0.277 C 
ATOM     17  O   UNL     1      -0.528  -0.215  -0.081  0.00  0.00    -0.495 OA
ENDBRANCH  10  17
ENDBRANCH   7  13
ENDBRANCH   6   7
ENDBRANCH   1   6
BRANCH   3  18
ATOM     18  C   UNL     1       0.745  -4.747  10.125  0.00  0.00    +0.152 C 
BRANCH  18  19
ATOM     19  C   UNL     1       0.054  -3.499  10.611  0.00  0.00    +0.223 C 
ATOM     20  O   UNL     1       0.205  -2.452  10.018  0.00  0.00    -0.275 OA
ATOM     21  N   UNL     1      -0.732  -3.546  11.705  0.00  0.00    -0.285 N 
ATOM     22  H   UNL     1      -0.911  -4.396  12.137  0.00  0.00    +0.155 HD
BRANCH  21  23
ATOM     23  C   UNL     1      -1.285  -2.380  12.213  0.00  0.00    +0.034 C 
ATOM     24  C   UNL     1      -1.041  -2.011  13.518  0.00  0.00    +0.029 C 
ATOM     25  C   UNL     1      -1.602  -0.788  13.905  0.00  0.00    -0.016 C 
ATOM     26  C   UNL     1      -2.061  -0.324  15.084  0.00  0.00    +0.025 C 
ATOM     27  C   UNL     1      -2.783   0.866  14.868  0.00  0.00    +0.106 C 
ATOM     28  N   UNL     1      -2.737   1.251  13.622  0.00  0.00    -0.279 NA
ATOM     29  C   UNL     1      -1.855   0.335  12.912  0.00  0.00    +0.158 C 
ATOM     30  C   UNL     1      -2.437  -0.275  11.672  0.00  0.00    +0.006 C 
ATOM     31  C   UNL     1      -2.125  -1.534  11.361  0.00  0.00    +0.021 C 
ENDBRANCH  21  23
ENDBRANCH  18  19
ENDBRANCH   3  18
TORSDOF 7
