REMARK  Name = ZINC03020370
REMARK  7 active torsions:
REMARK  status: ('A' for Active; 'I' for Inactive)
REMARK    1  A    between atoms: C_1  and  C_2
REMARK    2  A    between atoms: C_6  and  N_8
REMARK    3  A    between atoms: C_12  and  C_15
REMARK    4  A    between atoms: C_16  and  C_18
REMARK    5  A    between atoms: C_21  and  S_27
REMARK    6  A    between atoms: C_22  and  N_24
REMARK    7  A    between atoms: S_27  and  C_30
REMARK                            x       y       z     vdW  Elec       q    Type
REMARK                         _______ _______ _______ _____ _____    ______ ____
ROOT
ATOM      1  C   UNL     1       0.254   2.612  -0.016  0.00  0.00    +0.039 A 
ATOM      2  C   UNL     1      -0.542   2.393  -1.141  0.00  0.00    +0.015 A 
ATOM      3  C   UNL     1      -1.400   1.314  -1.176  0.00  0.00    +0.030 A 
ATOM      4  C   UNL     1      -1.473   0.449  -0.098  0.00  0.00    +0.124 A 
ATOM      5  C   UNL     1      -0.687   0.660   1.020  0.00  0.00    +0.152 A 
ATOM      6  C   UNL     1       0.176   1.736   1.068  0.00  0.00    +0.047 A 
ENDROOT
BRANCH   1  14
ATOM      7  N   UNL     1      -0.281   7.538  -0.474  0.00  0.00    -0.327 N 
ATOM      8  C   UNL     1      -1.184   6.394  -0.288  0.00  0.00    +0.124 C 
ATOM      9  C   UNL     1      -0.583   5.158  -0.965  0.00  0.00    +0.127 C 
ATOM     10  N   UNL     1       0.782   4.963  -0.453  0.00  0.00    -0.292 N 
ATOM     11  C   UNL     1       1.704   6.109  -0.473  0.00  0.00    +0.091 C 
ATOM     12  C   UNL     1       1.014   7.306   0.178  0.00  0.00    +0.127 C 
ATOM     13  C   UNL     1       2.974   5.761   0.307  0.00  0.00    +0.029 C 
ATOM     14  C   UNL     1       1.176   3.767   0.028  0.00  0.00    +0.247 C 
ATOM     15  O   UNL     1       2.290   3.637   0.498  0.00  0.00    -0.270 OA
BRANCH   7  21
ATOM     16  C   UNL     1      -4.013  10.733  -0.599  0.00  0.00    +0.044 C 
ATOM     17  C   UNL     1      -2.678  10.293  -0.057  0.00  0.00    -0.049 A 
ATOM     18  C   UNL     1      -2.032  11.058   0.897  0.00  0.00    +0.003 A 
ATOM     19  C   UNL     1      -0.807  10.658   1.396  0.00  0.00    +0.002 A 
ATOM     20  C   UNL     1      -0.226   9.488   0.948  0.00  0.00    +0.023 A 
ATOM     21  C   UNL     1      -0.869   8.719  -0.014  0.00  0.00    +0.030 A 
ATOM     22  C   UNL     1      -2.100   9.125  -0.514  0.00  0.00    +0.026 A 
ENDBRANCH   7  21
ENDBRANCH   1  14
BRANCH   5  23
ATOM     23  N   UNL     1      -0.771  -0.270   2.168  0.00  0.00    +0.058 N 
ATOM     24  O   UNL     1      -0.120  -0.055   3.175  0.00  0.00    -0.126 OA
ATOM     25  O   UNL     1      -1.491  -1.251   2.106  0.00  0.00    -0.126 OA
ENDBRANCH   5  23
BRANCH   4  26
ATOM     26  S   UNL     1      -2.571  -0.928  -0.151  0.00  0.00    +0.027 S 
ATOM     27  O   UNL     1      -3.324  -0.801  -1.350  0.00  0.00    -0.164 OA
ATOM     28  O   UNL     1      -1.793  -2.080   0.142  0.00  0.00    -0.164 OA
BRANCH  26  29
ATOM     29  C   UNL     1      -3.710  -0.737   1.180  0.00  0.00    +0.094 A 
ATOM     30  C   UNL     1      -3.666  -1.604   2.256  0.00  0.00    +0.030 A 
ATOM     31  C   UNL     1      -4.555  -1.453   3.303  0.00  0.00    +0.040 A 
ATOM     32  C   UNL     1      -5.497  -0.439   3.269  0.00  0.00    +0.124 A 
ATOM     33  C   UNL     1      -5.544   0.426   2.189  0.00  0.00    +0.040 A 
ATOM     34  C   UNL     1      -4.650   0.276   1.145  0.00  0.00    +0.030 A 
ATOM     35  F   UNL     1      -6.370  -0.293   4.290  0.00  0.00    -0.205 F 
ENDBRANCH  26  29
ENDBRANCH   4  26
TORSDOF 5
