REMARK  Name = ZINC11071423
REMARK  8 active torsions:
REMARK  status: ('A' for Active; 'I' for Inactive)
REMARK    1  A    between atoms: C_1  and  C_2
REMARK    2  A    between atoms: C_15  and  C_17
REMARK    3  A    between atoms: C_17  and  N_55
REMARK    4  A    between atoms: C_18  and  N_55
REMARK    5  A    between atoms: C_19  and  C_21
REMARK    6  A    between atoms: C_19  and  C_22
REMARK    7  A    between atoms: C_19  and  N_55
REMARK    8  A    between atoms: N_24  and  C_25
REMARK                            x       y       z     vdW  Elec       q    Type
REMARK                         _______ _______ _______ _____ _____    ______ ____
ROOT
ATOM      1  C   UNL     1      -0.019   6.049   1.794  0.00  0.00    +0.029 C 
ATOM      2  C   UNL     1       1.174   5.824   0.863  0.00  0.00    +0.087 C 
ATOM      3  C   UNL     1       2.375   5.346   1.681  0.00  0.00    +0.118 C 
ATOM      4  C   UNL     1       3.414   4.745   0.772  0.00  0.00    +0.219 C 
ATOM      5  O   UNL     1       4.419   5.372   0.508  0.00  0.00    -0.275 OA
ATOM      6  N   UNL     1       3.235   3.513   0.249  0.00  0.00    -0.284 N 
ATOM      7  C   UNL     1       2.039   2.818   0.463  0.00  0.00    +0.055 A 
ATOM      8  C   UNL     1       2.050   1.499   0.884  0.00  0.00    +0.025 A 
ATOM      9  C   UNL     1       0.857   0.823   1.061  0.00  0.00    +0.002 A 
ATOM     10  C   UNL     1      -0.347   1.458   0.814  0.00  0.00    +0.002 A 
ATOM     11  C   UNL     1      -0.367   2.777   0.398  0.00  0.00    +0.025 A 
ATOM     12  C   UNL     1       0.824   3.464   0.232  0.00  0.00    +0.058 A 
ATOM     13  N   UNL     1       0.823   4.815  -0.140  0.00  0.00    -0.268 N 
ATOM     14  C   UNL     1       0.503   5.181  -1.397  0.00  0.00    +0.204 C 
ATOM     15  O   UNL     1       0.505   6.353  -1.707  0.00  0.00    -0.277 OA
ATOM     16  H   UNL     1       3.939   3.107  -0.280  0.00  0.00    +0.155 HD
ENDROOT
BRANCH  14  17
ATOM     17  C   UNL     1       0.144   4.132  -2.418  0.00  0.00    +0.020 C 
BRANCH  17  19
ATOM     18  C   UNL     1       1.034   5.422  -4.263  0.00  0.00    -0.094 C 
ATOM     19  N   UNL     1      -0.181   4.802  -3.695  0.00  0.00    +0.391 N 
ATOM     20  H   UNL     1      -0.879   5.534  -3.519  0.00  0.00    -0.080 HD
BRANCH  19  21
ATOM     21  C   UNL     1      -0.743   3.823  -4.650  0.00  0.00    +0.017 C 
ATOM     22  C   UNL     1       0.102   2.547  -4.668  0.00  0.00    -0.004 C 
BRANCH  21  23
ATOM     23  C   UNL     1      -2.150   3.488  -4.228  0.00  0.00    +0.203 C 
ATOM     24  O   UNL     1      -2.546   3.807  -3.127  0.00  0.00    -0.277 OA
ATOM     25  N   UNL     1      -2.970   2.834  -5.075  0.00  0.00    -0.287 N 
ATOM     26  H   UNL     1      -2.675   2.635  -5.978  0.00  0.00    +0.155 HD
BRANCH  25  27
ATOM     27  C   UNL     1      -4.245   2.444  -4.653  0.00  0.00    +0.033 A 
ATOM     28  C   UNL     1      -4.794   1.252  -5.107  0.00  0.00    +0.023 A 
ATOM     29  C   UNL     1      -6.051   0.866  -4.683  0.00  0.00    +0.002 A 
ATOM     30  C   UNL     1      -6.767   1.671  -3.817  0.00  0.00    +0.000 A 
ATOM     31  C   UNL     1      -6.226   2.861  -3.367  0.00  0.00    +0.002 A 
ATOM     32  C   UNL     1      -4.967   3.250  -3.783  0.00  0.00    +0.023 A 
ENDBRANCH  25  27
ENDBRANCH  21  23
ENDBRANCH  19  21
ENDBRANCH  17  19
ENDBRANCH  14  17
TORSDOF 5
