REMARK  Name = ZINC07048434
REMARK  7 active torsions:
REMARK  status: ('A' for Active; 'I' for Inactive)
REMARK    1  A    between atoms: C_1  and  C_2
REMARK    2  A    between atoms: C_4  and  N_23
REMARK    3  A    between atoms: C_6  and  S_8
REMARK    4  A    between atoms: S_8  and  C_9
REMARK    5  A    between atoms: C_9  and  C_10
REMARK    6  A    between atoms: N_12  and  C_13
REMARK    7  A    between atoms: C_18  and  N_19
REMARK                            x       y       z     vdW  Elec       q    Type
REMARK                         _______ _______ _______ _____ _____    ______ ____
ROOT
ATOM      1  C   UNL     1       0.077  -5.468   3.458  0.00  0.00    +0.228 C 
ATOM      2  O   UNL     1       0.088  -4.941   4.550  0.00  0.00    -0.275 OA
ATOM      3  N   UNL     1       0.097  -6.812   3.359  0.00  0.00    -0.283 N 
ATOM      4  H   UNL     1       0.022  -7.236   2.489  0.00  0.00    +0.155 HD
ENDROOT
BRANCH   3   5
ATOM      5  C   UNL     1       0.225  -7.597   4.510  0.00  0.00    +0.065 A 
ATOM      6  C   UNL     1      -0.366  -7.190   5.699  0.00  0.00    +0.045 A 
ATOM      7  C   UNL     1      -0.238  -7.967   6.834  0.00  0.00    +0.043 A 
ATOM      8  C   UNL     1       0.479  -9.150   6.787  0.00  0.00    +0.022 A 
ATOM      9  C   UNL     1       1.069  -9.557   5.604  0.00  0.00    +0.036 A 
ATOM     10  C   UNL     1       0.939  -8.787   4.465  0.00  0.00    +0.147 A 
ATOM     11 CL   UNL     1      -0.976  -7.460   8.321  0.00  0.00    -0.083 Cl
BRANCH  10  12
ATOM     12  N   UNL     1       1.566  -9.227   3.198  0.00  0.00    +0.058 N 
ATOM     13  O   UNL     1       2.104 -10.308   3.134  0.00  0.00    -0.126 OA
ATOM     14  O   UNL     1       1.540  -8.505   2.229  0.00  0.00    -0.126 OA
ENDBRANCH  10  12
ENDBRANCH   3   5
BRANCH   1  15
ATOM     15  C   UNL     1       0.040  -4.621   2.212  0.00  0.00    +0.173 C 
BRANCH  15  16
ATOM     16  S   UNL     1       0.020  -2.867   2.674  0.00  0.00    -0.077 S 
BRANCH  16  22
ATOM     17  C   UNL     1      -0.099   1.484  -0.019  0.00  0.00    +0.066 C 
ATOM     18  C   UNL     1      -0.075  -0.023  -0.022  0.00  0.00    +0.044 A 
ATOM     19  C   UNL     1      -0.085  -0.719  -1.216  0.00  0.00    +0.066 A 
ATOM     20  C   UNL     1      -0.062  -2.115  -1.174  0.00  0.00    +0.121 A 
ATOM     21  N   UNL     1      -0.031  -2.724   0.006  0.00  0.00    -0.207 NA
ATOM     22  C   UNL     1      -0.021  -2.020   1.129  0.00  0.00    +0.191 A 
ATOM     23  N   UNL     1      -0.038  -0.695   1.119  0.00  0.00    -0.227 NA
BRANCH  20  24
ATOM     24  N   UNL     1      -0.072  -2.853  -2.346  0.00  0.00    -0.343 N 
ATOM     25  H   UNL     1      -0.095  -2.401  -3.204  0.00  0.00    +0.144 HD
ATOM     26  H   UNL     1      -0.056  -3.822  -2.309  0.00  0.00    +0.144 HD
ENDBRANCH  20  24
ENDBRANCH  16  22
ENDBRANCH  15  16
ENDBRANCH   1  15
TORSDOF 6
