REMARK  Name = ZINC03461850
REMARK  7 active torsions:
REMARK  status: ('A' for Active; 'I' for Inactive)
REMARK    1  A    between atoms: C_1  and  C_2
REMARK    2  A    between atoms: C_5  and  C_8
REMARK    3  A    between atoms: C_8  and  C_29
REMARK    4  A    between atoms: N_11  and  C_15
REMARK    5  A    between atoms: C_15  and  C_16
REMARK    6  A    between atoms: N_18  and  C_19
REMARK    7  A    between atoms: C_21  and  N_26
REMARK                            x       y       z     vdW  Elec       q    Type
REMARK                         _______ _______ _______ _____ _____    ______ ____
ROOT
ATOM      1  C   UNL     1      -0.050   1.486   0.003  0.00  0.00    +0.135 C 
ATOM      2  C   UNL     1      -0.644   2.019  -1.286  0.00  0.00    +0.251 C 
ATOM      3  O   UNL     1      -1.763   1.828  -1.711  0.00  0.00    -0.272 OA
ATOM      4  N   UNL     1       0.331   2.750  -1.862  0.00  0.00    -0.215 N 
ATOM      5  C   UNL     1       1.447   2.752  -1.124  0.00  0.00    +0.310 C 
ATOM      6  O   UNL     1       2.463   3.342  -1.437  0.00  0.00    -0.252 OA
ATOM      7  N   UNL     1       1.320   2.029   0.003  0.00  0.00    -0.281 N 
ATOM      8  C   UNL     1      -0.833   2.000   1.213  0.00  0.00    +0.047 C 
ATOM      9  H   UNL     1       1.997   1.892   0.683  0.00  0.00    +0.152 HD
ENDROOT
BRANCH   1  14
ATOM     10  C   UNL     1       0.053  -4.291  -0.043  0.00  0.00    +0.044 C 
ATOM     11  C   UNL     1       0.026  -2.785  -0.030  0.00  0.00    -0.050 A 
ATOM     12  C   UNL     1       1.037  -2.080   0.596  0.00  0.00    +0.004 A 
ATOM     13  C   UNL     1       1.012  -0.698   0.607  0.00  0.00    +0.006 A 
ATOM     14  C   UNL     1      -0.023  -0.020  -0.009  0.00  0.00    -0.015 A 
ATOM     15  C   UNL     1      -1.036  -0.725  -0.632  0.00  0.00    +0.006 A 
ATOM     16  C   UNL     1      -1.009  -2.107  -0.647  0.00  0.00    +0.004 A 
ENDBRANCH   1  14
BRANCH   4  17
ATOM     17  C   UNL     1       0.187   3.453  -3.139  0.00  0.00    +0.214 C 
BRANCH  17  18
ATOM     18  C   UNL     1       0.597   2.539  -4.265  0.00  0.00    +0.235 C 
ATOM     19  O   UNL     1       0.971   1.411  -4.025  0.00  0.00    -0.274 OA
ATOM     20  N   UNL     1       0.546   2.975  -5.539  0.00  0.00    -0.282 N 
ATOM     21  H   UNL     1       0.185   3.854  -5.737  0.00  0.00    +0.155 HD
BRANCH  20  22
ATOM     22  C   UNL     1       1.013   2.160  -6.578  0.00  0.00    +0.071 A 
ATOM     23  C   UNL     1       0.856   0.783  -6.505  0.00  0.00    +0.059 A 
ATOM     24  C   UNL     1       1.313  -0.019  -7.534  0.00  0.00    +0.128 A 
ATOM     25  C   UNL     1       1.938   0.548  -8.630  0.00  0.00    +0.035 A 
ATOM     26  C   UNL     1       2.102   1.919  -8.704  0.00  0.00    +0.042 A 
ATOM     27  C   UNL     1       1.641   2.728  -7.681  0.00  0.00    +0.145 A 
ATOM     28  F   UNL     1       1.802   4.067  -7.753  0.00  0.00    -0.204 F 
BRANCH  24  29
ATOM     29  N   UNL     1       1.139  -1.487  -7.459  0.00  0.00    +0.056 N 
ATOM     30  O   UNL     1       1.546  -2.195  -8.363  0.00  0.00    -0.126 OA
ATOM     31  O   UNL     1       0.589  -1.987  -6.495  0.00  0.00    -0.126 OA
ENDBRANCH  24  29
ENDBRANCH  20  22
ENDBRANCH  17  18
ENDBRANCH   4  17
TORSDOF 5
