REMARK  Name = ZINC04389698
REMARK  6 active torsions:
REMARK  status: ('A' for Active; 'I' for Inactive)
REMARK    1  A    between atoms: C_1  and  N_2
REMARK    2  A    between atoms: N_2  and  C_3
REMARK    3  A    between atoms: N_2  and  N_16
REMARK    4  A    between atoms: C_6  and  C_12
REMARK    5  A    between atoms: C_8  and  N_9
REMARK    6  A    between atoms: N_16  and  C_17
REMARK                            x       y       z     vdW  Elec       q    Type
REMARK                         _______ _______ _______ _____ _____    ______ ____
ROOT
ATOM      1  C   UNL     1       0.184   1.452  -0.016  0.00  0.00    +0.150 C 
ATOM      2  N   UNL     1      -0.003  -0.001   0.002  0.00  0.00    -0.265 N 
ENDROOT
BRANCH   2   3
ATOM      3  C   UNL     1      -0.059  -0.683   1.220  0.00  0.00    +0.074 A 
ATOM      4  C   UNL     1       1.113  -1.081   1.850  0.00  0.00    +0.027 A 
ATOM      5  C   UNL     1       1.053  -1.754   3.054  0.00  0.00    +0.014 A 
ATOM      6  C   UNL     1      -0.172  -2.032   3.633  0.00  0.00    +0.057 A 
ATOM      7  C   UNL     1      -1.340  -1.638   3.008  0.00  0.00    +0.047 A 
ATOM      8  C   UNL     1      -1.288  -0.959   1.806  0.00  0.00    +0.149 A 
BRANCH   6   9
ATOM      9  C   UNL     1      -0.233  -2.767   4.947  0.00  0.00    +0.417 C 
ATOM     10  F   UNL     1       1.065  -3.059   5.379  0.00  0.00    -0.166 F 
ATOM     11  F   UNL     1      -0.873  -1.966   5.900  0.00  0.00    -0.166 F 
ATOM     12  F   UNL     1      -0.948  -3.958   4.783  0.00  0.00    -0.166 F 
ENDBRANCH   6   9
BRANCH   8  13
ATOM     13  N   UNL     1      -2.539  -0.532   1.141  0.00  0.00    +0.058 N 
ATOM     14  O   UNL     1      -3.602  -0.690   1.695  0.00  0.00    -0.126 OA
ATOM     15  O   UNL     1      -2.498  -0.024   0.045  0.00  0.00    -0.126 OA
ENDBRANCH   8  13
ENDBRANCH   2   3
BRANCH   2  16
ATOM     16  N   UNL     1      -0.121  -0.690  -1.172  0.00  0.00    -0.198 NA
ATOM     17  H   UNL     1      -0.554  -1.589  -1.022  0.00  0.00    +0.149 HD
BRANCH  16  18
ATOM     18  C   UNL     1       1.184  -0.837  -1.830  0.00  0.00    +0.295 C 
ATOM     19  C   UNL     1       0.995  -1.032  -3.313  0.00  0.00    +0.023 A 
ATOM     20  C   UNL     1       0.429  -0.266  -4.305  0.00  0.00    +0.009 A 
ATOM     21  C   UNL     1       0.406  -0.732  -5.609  0.00  0.00    +0.000 A 
ATOM     22  C   UNL     1       0.950  -1.966  -5.918  0.00  0.00    +0.001 A 
ATOM     23  C   UNL     1       1.520  -2.743  -4.931  0.00  0.00    +0.015 A 
ATOM     24  C   UNL     1       1.547  -2.280  -3.615  0.00  0.00    +0.067 A 
ATOM     25  C   UNL     1       2.068  -2.853  -2.360  0.00  0.00    +0.341 C 
ATOM     26  O   UNL     1       2.615  -3.933  -2.262  0.00  0.00    -0.245 OA
ATOM     27  O   UNL     1       1.849  -2.004  -1.341  0.00  0.00    -0.436 OA
ENDBRANCH  16  18
ENDBRANCH   2  16
TORSDOF 5
