REMARK  Name = ZINC00889545
REMARK  7 active torsions:
REMARK  status: ('A' for Active; 'I' for Inactive)
REMARK    1  A    between atoms: C_1  and  C_2
REMARK    2  A    between atoms: C_7  and  C_15
REMARK    3  A    between atoms: C_13  and  C_14
REMARK    4  A    between atoms: C_15  and  C_17
REMARK    5  A    between atoms: C_15  and  N_63
REMARK    6  A    between atoms: N_21  and  C_22
REMARK    7  A    between atoms: C_29  and  C_32
REMARK                            x       y       z     vdW  Elec       q    Type
REMARK                         _______ _______ _______ _____ _____    ______ ____
ROOT
ATOM      1  C   UNL     1      -4.985   1.048   0.031  0.00  0.00    +0.039 C 
ENDROOT
BRANCH   1   8
ATOM      2  C   UNL     1       2.642   3.311  -0.538  0.00  0.00    +0.044 C 
ATOM      3  C   UNL     1       1.285   2.665  -0.433  0.00  0.00    -0.046 A 
ATOM      4  C   UNL     1       1.181   1.281  -0.427  0.00  0.00    +0.004 A 
ATOM      5  C   UNL     1      -0.040   0.675  -0.333  0.00  0.00    +0.010 A 
ATOM      6  C   UNL     1      -1.197   1.457  -0.246  0.00  0.00    -0.001 A 
ATOM      7  C   UNL     1      -2.521   0.842  -0.150  0.00  0.00    +0.017 A 
ATOM      8  C   UNL     1      -3.607   1.650  -0.070  0.00  0.00    +0.011 A 
ATOM      9  C   UNL     1      -3.451   3.053  -0.079  0.00  0.00    +0.251 A 
ATOM     10  O   UNL     1      -4.440   3.761  -0.006  0.00  0.00    -0.268 OA
ATOM     11  N   UNL     1      -2.238   3.627  -0.158  0.00  0.00    -0.322 N 
ATOM     12  H   UNL     1      -2.163   4.624  -0.151  0.00  0.00    +0.169 HD
ATOM     13  C   UNL     1      -1.095   2.861  -0.247  0.00  0.00    +0.052 A 
ATOM     14  C   UNL     1       0.159   3.455  -0.344  0.00  0.00    -0.024 A 
ATOM     15  C   UNL     1       0.286   4.957  -0.352  0.00  0.00    +0.046 C 
ENDBRANCH   1   8
BRANCH   1  22
ATOM     16  C   UNL     1      -7.214   1.097  -0.913  0.00  0.00    -0.077 C 
ATOM     17  C   UNL     1      -8.108   1.808  -1.931  0.00  0.00    -0.015 C 
ATOM     18  C   UNL     1      -7.563   1.562  -3.341  0.00  0.00    -0.018 C 
ATOM     19  C   UNL     1      -6.117   2.060  -3.415  0.00  0.00    -0.015 C 
ATOM     20  C   UNL     1      -5.281   1.341  -2.354  0.00  0.00    -0.077 C 
ATOM     21  C   UNL     1      -8.418   2.321  -4.359  0.00  0.00    +0.007 C 
ATOM     22  N   UNL     1      -5.842   1.638  -1.019  0.00  0.00    +0.389 N 
ATOM     23  H   UNL     1      -5.875   2.656  -0.890  0.00  0.00    -0.080 HD
ENDBRANCH   1  22
BRANCH   1  24
ATOM     24  C   UNL     1      -5.576   1.368   1.380  0.00  0.00    +0.143 A 
ATOM     25  N   UNL     1      -6.056   2.523   1.770  0.00  0.00    -0.115 NA
ATOM     26  N   UNL     1      -6.467   2.394   2.985  0.00  0.00    -0.023 NA
ATOM     27  N   UNL     1      -6.260   1.186   3.379  0.00  0.00    -0.044 NA
ATOM     28  N   UNL     1      -5.717   0.521   2.417  0.00  0.00    -0.227 N 
BRANCH  28  29
ATOM     29  C   UNL     1      -5.324  -0.890   2.447  0.00  0.00    +0.111 C 
ATOM     30  C   UNL     1      -6.548  -1.772   2.771  0.00  0.00    +0.027 C 
ATOM     31  C   UNL     1      -5.976  -2.897   3.671  0.00  0.00    +0.002 C 
ATOM     32  C   UNL     1      -4.935  -2.146   4.538  0.00  0.00    +0.002 C 
ATOM     33  C   UNL     1      -4.299  -1.128   3.570  0.00  0.00    +0.027 C 
ENDBRANCH  28  29
ENDBRANCH   1  24
TORSDOF 4
