REMARK  Name = ZINC36198291
REMARK  6 active torsions:
REMARK  status: ('A' for Active; 'I' for Inactive)
REMARK    1  A    between atoms: C_1  and  C_2
REMARK    2  A    between atoms: C_4  and  C_7
REMARK    3  A    between atoms: C_7  and  N_8
REMARK    4  A    between atoms: N_8  and  C_9
REMARK    5  A    between atoms: N_8  and  C_10
REMARK    6  A    between atoms: C_15  and  N_16
REMARK                            x       y       z     vdW  Elec       q    Type
REMARK                         _______ _______ _______ _____ _____    ______ ____
ROOT
ATOM      1  C   UNL     1      -2.763  -3.354  -2.139  0.00  0.00    +0.053 A 
ATOM      2  C   UNL     1      -2.607  -2.216  -2.910  0.00  0.00    +0.053 A 
ATOM      3  C   UNL     1      -3.678  -1.738  -3.663  0.00  0.00    +0.080 A 
ATOM      4  C   UNL     1      -4.915  -2.422  -3.628  0.00  0.00    +0.067 A 
ATOM      5  C   UNL     1      -5.061  -3.569  -2.846  0.00  0.00    +0.040 A 
ATOM      6  C   UNL     1      -3.989  -4.033  -2.111  0.00  0.00    +0.047 A 
ATOM      7  C   UNL     1      -6.021  -1.889  -4.433  0.00  0.00    +0.259 A 
ATOM      8  O   UNL     1      -7.111  -2.431  -4.447  0.00  0.00    -0.267 OA
ATOM      9  N   UNL     1      -5.783  -0.772  -5.158  0.00  0.00    -0.313 N 
ATOM     10  H   UNL     1      -6.491  -0.392  -5.701  0.00  0.00    +0.170 HD
ATOM     11  C   UNL     1      -4.561  -0.177  -5.133  0.00  0.00    +0.199 A 
ATOM     12  N   UNL     1      -3.564  -0.625  -4.432  0.00  0.00    -0.237 NA
ENDROOT
BRANCH   6  13
ATOM     13  N   UNL     1      -4.128  -5.186  -1.329  0.00  0.00    -0.357 N 
ATOM     14  H   UNL     1      -3.378  -5.513  -0.808  0.00  0.00    +0.142 HD
ATOM     15  H   UNL     1      -4.976  -5.659  -1.307  0.00  0.00    +0.142 HD
ENDBRANCH   6  13
BRANCH   1  16
ATOM     16  N   UNL     1      -1.691  -3.832  -1.387  0.00  0.00    -0.326 N 
ATOM     17  C   UNL     1      -0.756  -4.794  -1.975  0.00  0.00    +0.129 C 
BRANCH  16  18
ATOM     18  C   UNL     1      -1.500  -3.372  -0.010  0.00  0.00    +0.163 C 
BRANCH  18  22
ATOM     19  C   UNL     1      -0.018   1.503   0.010  0.00  0.00    +0.089 C 
ATOM     20  C   UNL     1       0.002  -0.004   0.002  0.00  0.00    +0.135 A 
ATOM     21  C   UNL     1      -1.077  -0.810   0.003  0.00  0.00    +0.072 A 
ATOM     22  C   UNL     1      -0.627  -2.143  -0.007  0.00  0.00    +0.101 A 
ATOM     23  N   UNL     1       0.676  -2.130  -0.013  0.00  0.00    -0.081 NA
ATOM     24  O   UNL     1       1.098  -0.778  -0.013  0.00  0.00    -0.360 OA
ENDBRANCH  18  22
ENDBRANCH  16  18
ENDBRANCH   1  16
TORSDOF 4
