REMARK  Name = ZINC64031354
REMARK  6 active torsions:
REMARK  status: ('A' for Active; 'I' for Inactive)
REMARK    1  A    between atoms: C_7  and  C_10
REMARK    2  A    between atoms: C_13  and  S_15
REMARK    3  A    between atoms: S_15  and  C_16
REMARK    4  A    between atoms: C_16  and  C_17
REMARK    5  A    between atoms: C_20  and  C_23
REMARK    6  A    between atoms: C_27  and  N_29
REMARK                            x       y       z     vdW  Elec       q    Type
REMARK                         _______ _______ _______ _____ _____    ______ ____
ROOT
ATOM      1  C   UNL     1      -2.099  -7.159  -0.017  0.00  0.00    +0.135 C 
ENDROOT
BRANCH   1   2
ATOM      2  C   UNL     1      -2.386  -8.661  -0.018  0.00  0.00    +0.253 C 
ATOM      3  N   UNL     1      -1.773  -9.297   1.154  0.00  0.00    -0.342 N 
ATOM      4  C   UNL     1      -0.911 -10.177   0.748  0.00  0.00    +0.134 C 
ATOM      5  N   UNL     1      -0.854 -10.226  -0.623  0.00  0.00    -0.247 N 
ATOM      6  O   UNL     1      -1.772  -9.283  -1.157  0.00  0.00    -0.247 OA
ATOM      7  H   UNL     1      -0.279 -10.810  -1.143  0.00  0.00    +0.196 HD
ATOM      8  H   UNL     1      -1.979  -9.093   2.080  0.00  0.00    +0.164 HD
BRANCH   4   9
ATOM      9  C   UNL     1      -0.092 -11.021   1.648  0.00  0.00    +0.019 A 
ATOM     10  C   UNL     1      -0.585 -11.394   2.898  0.00  0.00    +0.011 A 
ATOM     11  C   UNL     1       0.183 -12.180   3.732  0.00  0.00    +0.003 A 
ATOM     12  C   UNL     1       1.439 -12.598   3.331  0.00  0.00    +0.033 A 
ATOM     13  C   UNL     1       1.933 -12.231   2.092  0.00  0.00    +0.127 A 
ATOM     14  C   UNL     1       1.173 -11.450   1.246  0.00  0.00    +0.044 A 
BRANCH  13  15
ATOM     15  N   UNL     1       3.279 -12.682   1.671  0.00  0.00    +0.056 N 
ATOM     16  O   UNL     1       3.944 -13.370   2.409  0.00  0.00    -0.126 OA
ATOM     17  O   UNL     1       3.712 -12.361   0.588  0.00  0.00    -0.126 OA
ENDBRANCH  13  15
ENDBRANCH   4   9
ENDBRANCH   1   2
BRANCH   1  18
ATOM     18  S   UNL     1      -0.305  -6.886  -0.026  0.00  0.00    -0.061 S 
BRANCH  18  22
ATOM     19  C   UNL     1       0.676  -3.130  -0.022  0.00  0.00    +0.248 A 
ATOM     20  N   UNL     1      -0.646  -3.061  -0.014  0.00  0.00    -0.107 NA
ATOM     21  N   UNL     1      -1.132  -4.253  -0.015  0.00  0.00    -0.101 NA
ATOM     22  C   UNL     1      -0.141  -5.131  -0.023  0.00  0.00    +0.278 A 
ATOM     23  O   UNL     1       1.013  -4.441  -0.033  0.00  0.00    -0.411 OA
BRANCH  19  30
ATOM     24  C   UNL     1      -0.016   1.354   0.009  0.00  0.00    +0.001 A 
ATOM     25  C   UNL     1       1.163   2.101   0.002  0.00  0.00    +0.002 A 
ATOM     26  C   UNL     1       2.384   1.511  -0.013  0.00  0.00    +0.026 A 
ATOM     27  C   UNL     1       2.483   0.096  -0.022  0.00  0.00    +0.043 A 
ATOM     28  N   UNL     1       3.531  -0.705  -0.037  0.00  0.00    -0.380 N 
ATOM     29  C   UNL     1       3.075  -2.098  -0.041  0.00  0.00    +0.154 C 
ATOM     30  C   UNL     1       1.563  -2.044  -0.025  0.00  0.00    +0.044 C 
ATOM     31  C   UNL     1       1.237  -0.687  -0.013  0.00  0.00    +0.008 A 
ATOM     32  C   UNL     1       0.002  -0.004   0.002  0.00  0.00    +0.010 A 
ATOM     33  H   UNL     1       4.457  -0.417  -0.045  0.00  0.00    +0.160 HD
ENDBRANCH  19  30
ENDBRANCH  18  22
ENDBRANCH   1  18
TORSDOF 6
