REMARK  Name = ZINC43735356
REMARK  11 active torsions:
REMARK  status: ('A' for Active; 'I' for Inactive)
REMARK    1  A    between atoms: C_1  and  C_2
REMARK    2  A    between atoms: C_4  and  O_37
REMARK    3  A    between atoms: C_14  and  C_15
REMARK    4  A    between atoms: C_14  and  O_26
REMARK    5  A    between atoms: C_15  and  C_17
REMARK    6  A    between atoms: C_17  and  O_18
REMARK    7  A    between atoms: O_18  and  C_19
REMARK    8  A    between atoms: C_19  and  C_21
REMARK    9  A    between atoms: C_21  and  C_22
REMARK   10  A    between atoms: C_22  and  C_23
REMARK   11  A    between atoms: C_35  and  C_36
REMARK                            x       y       z     vdW  Elec       q    Type
REMARK                         _______ _______ _______ _____ _____    ______ ____
ROOT
ATOM      1  C   UNL     1      -0.019   1.528   0.010  0.00  0.00    +0.015 C 
ATOM      2  C   UNL     1       0.002  -0.004   0.002  0.00  0.00    +0.009 C 
ATOM      3  C   UNL     1       0.628  -0.563  -1.274  0.00  0.00    +0.041 C 
ATOM      4  C   UNL     1       2.128  -0.281  -1.317  0.00  0.00    +0.120 C 
ATOM      5  C   UNL     1       2.830  -0.954  -0.146  0.00  0.00    +0.035 C 
ATOM      6  C   UNL     1       2.232  -0.425   1.149  0.00  0.00    -0.000 C 
ATOM      7  C   UNL     1       0.741  -0.568   1.239  0.00  0.00    +0.002 C 
ATOM      8  C   UNL     1       0.233  -2.015   1.320  0.00  0.00    +0.008 C 
ATOM      9  C   UNL     1      -1.270  -1.894   0.968  0.00  0.00    +0.043 C 
ATOM     10  C   UNL     1      -1.424  -0.585   0.169  0.00  0.00    +0.133 C 
ATOM     11  C   UNL     1       2.981  -0.984   2.350  0.00  0.00    +0.008 C 
ATOM     12  C   UNL     1       2.894  -2.496   2.429  0.00  0.00    +0.032 C 
ATOM     13  C   UNL     1       2.784  -3.162   1.086  0.00  0.00    -0.056 C 
ATOM     14  C   UNL     1       2.588  -4.495   1.106  0.00  0.00    +0.051 C 
ATOM     15  C   UNL     1       2.406  -5.220  -0.168  0.00  0.00    +0.179 C 
ATOM     16  O   UNL     1       2.557  -6.434  -0.244  0.00  0.00    -0.288 OA
ATOM     17  C   UNL     1       1.989  -4.425  -1.345  0.00  0.00    +0.047 C 
ATOM     18  C   UNL     1       2.204  -3.100  -1.345  0.00  0.00    -0.012 C 
ATOM     19  C   UNL     1       2.922  -2.446  -0.212  0.00  0.00    +0.013 C 
ATOM     20  C   UNL     1       4.407  -2.676  -0.567  0.00  0.00    +0.020 C 
ENDROOT
BRANCH  10  21
ATOM     21  C   UNL     1      -2.085  -0.854  -1.154  0.00  0.00    +0.202 C 
ATOM     22  O   UNL     1      -1.415  -1.144  -2.116  0.00  0.00    -0.291 OA
BRANCH  21  23
ATOM     23  C   UNL     1      -3.583  -0.759  -1.281  0.00  0.00    +0.309 C 
BRANCH  23  24
ATOM     24  O   UNL     1      -3.967  -1.056  -2.625  0.00  0.00    -0.457 OA
BRANCH  24  25
ATOM     25  C   UNL     1      -5.279  -1.015  -2.907  0.00  0.00    +0.308 C 
ATOM     26  O   UNL     1      -6.075  -0.738  -2.041  0.00  0.00    -0.251 OA
BRANCH  25  27
ATOM     27  C   UNL     1      -5.759  -1.316  -4.303  0.00  0.00    +0.132 C 
BRANCH  27  28
ATOM     28  C   UNL     1      -7.284  -1.202  -4.354  0.00  0.00    +0.136 C 
BRANCH  28  29
ATOM     29  C   UNL     1      -7.764  -1.503  -5.750  0.00  0.00    +0.357 C 
ATOM     30  O   UNL     1      -6.962  -1.783  -6.624  0.00  0.00    -0.246 OA
ATOM     31  O   UNL     1      -8.956  -1.466  -6.006  0.00  0.00    -0.246 OA
ENDBRANCH  28  29
ENDBRANCH  27  28
ENDBRANCH  25  27
ENDBRANCH  24  25
ENDBRANCH  23  24
ENDBRANCH  21  23
ENDBRANCH  10  21
BRANCH  10  32
ATOM     32  O   UNL     1      -2.228   0.335   0.922  0.00  0.00    -0.380 OA
ATOM     33  H   UNL     1      -3.136   0.037   1.067  0.00  0.00    +0.211 HD
ENDBRANCH  10  32
BRANCH   4  34
ATOM     34  O   UNL     1       2.691  -0.668  -2.566  0.00  0.00    -0.391 OA
ATOM     35  H   UNL     1       2.309  -0.210  -3.328  0.00  0.00    +0.210 HD
ENDBRANCH   4  34
TORSDOF 9
