REMARK  Name = ZINC63547607
REMARK  6 active torsions:
REMARK  status: ('A' for Active; 'I' for Inactive)
REMARK    1  A    between atoms: C_3  and  N_23
REMARK    2  A    between atoms: C_5  and  S_7
REMARK    3  A    between atoms: S_7  and  N_10
REMARK    4  A    between atoms: N_10  and  C_11
REMARK    5  A    between atoms: C_11  and  C_12
REMARK    6  A    between atoms: C_12  and  C_13
REMARK                            x       y       z     vdW  Elec       q    Type
REMARK                         _______ _______ _______ _____ _____    ______ ____
ROOT
ATOM      1  N   UNL     1       1.256  -2.939   1.557  0.00  0.00    -0.190 NA
ATOM      2  H   UNL     1       2.027  -3.413   1.905  0.00  0.00    +0.148 HD
ENDROOT
BRANCH   1   3
ATOM      3  S   UNL     1       1.232  -2.441  -0.022  0.00  0.00    +0.058 S 
ATOM      4  O   UNL     1      -0.013  -2.861  -0.562  0.00  0.00    -0.153 OA
ATOM      5  O   UNL     1       2.477  -2.827  -0.588  0.00  0.00    -0.153 OA
BRANCH   3  10
ATOM      6  C   UNL     1      -0.017   1.378   0.010  0.00  0.00    +0.004 A 
ATOM      7  C   UNL     1       1.171   2.085   0.002  0.00  0.00    +0.033 A 
ATOM      8  C   UNL     1       2.377   1.411  -0.013  0.00  0.00    +0.128 A 
ATOM      9  C   UNL     1       2.396   0.028  -0.020  0.00  0.00    +0.061 A 
ATOM     10  C   UNL     1       1.209  -0.679  -0.012  0.00  0.00    +0.107 A 
ATOM     11  C   UNL     1       0.002  -0.004   0.002  0.00  0.00    +0.028 A 
BRANCH   8  12
ATOM     12  N   UNL     1       3.649   2.168  -0.022  0.00  0.00    +0.056 N 
ATOM     13  O   UNL     1       3.633   3.377  -0.016  0.00  0.00    -0.126 OA
ATOM     14  O   UNL     1       4.704   1.578  -0.035  0.00  0.00    -0.126 OA
ENDBRANCH   8  12
ENDBRANCH   3  10
ENDBRANCH   1   3
BRANCH   1  15
ATOM     15  C   UNL     1       0.111  -2.664   2.429  0.00  0.00    +0.110 C 
BRANCH  15  16
ATOM     16  C   UNL     1       0.209  -3.529   3.688  0.00  0.00    +0.050 C 
BRANCH  16  17
ATOM     17  C   UNL     1      -0.968  -3.246   4.585  0.00  0.00    -0.040 C 
ATOM     18  C   UNL     1      -2.129  -3.937   4.644  0.00  0.00    +0.000 A 
ATOM     19  C   UNL     1      -2.625  -5.113   3.919  0.00  0.00    +0.030 A 
ATOM     20  C   UNL     1      -3.860  -5.587   4.204  0.00  0.00    +0.042 A 
ATOM     21  C   UNL     1      -4.676  -4.983   5.172  0.00  0.00    +0.022 A 
ATOM     22  C   UNL     1      -4.290  -3.900   5.878  0.00  0.00    +0.027 A 
ATOM     23  C   UNL     1      -3.010  -3.318   5.661  0.00  0.00    +0.043 A 
ATOM     24  N   UNL     1      -2.417  -2.286   6.208  0.00  0.00    -0.380 N 
ATOM     25  C   UNL     1      -1.088  -2.136   5.605  0.00  0.00    +0.144 C 
ATOM     26 CL   UNL     1      -4.449  -6.978   3.349  0.00  0.00    -0.084 Cl
ATOM     27  H   UNL     1      -2.792  -1.718   6.899  0.00  0.00    +0.160 HD
ENDBRANCH  16  17
ENDBRANCH  15  16
ENDBRANCH   1  15
TORSDOF 6
