REMARK  Name = ZINC20528755
REMARK  5 active torsions:
REMARK  status: ('A' for Active; 'I' for Inactive)
REMARK    1  A    between atoms: C_1  and  N_2
REMARK    2  A    between atoms: C_5  and  C_6
REMARK    3  A    between atoms: C_15  and  C_23
REMARK    4  A    between atoms: C_17  and  C_21
REMARK    5  A    between atoms: C_18  and  N_20
REMARK                            x       y       z     vdW  Elec       q    Type
REMARK                         _______ _______ _______ _____ _____    ______ ____
ROOT
ATOM      1  C   UNL     1       0.333  -4.134   1.174  0.00  0.00    +0.105 C 
ATOM      2  N   UNL     1       0.253  -2.678   0.996  0.00  0.00    -0.297 NA
ATOM      3  C   UNL     1      -1.107  -2.268   0.602  0.00  0.00    +0.123 C 
ATOM      4  C   UNL     1      -1.135  -0.754   0.622  0.00  0.00    +0.009 C 
ATOM      5  C   UNL     1      -2.195  -0.083   1.107  0.00  0.00    +0.016 C 
ATOM      6  C   UNL     1       0.044  -0.042   0.087  0.00  0.00    +0.136 C 
ATOM      7  C   UNL     1       1.158  -0.723  -0.186  0.00  0.00    -0.001 C 
ATOM      8  C   UNL     1       1.237  -2.214   0.017  0.00  0.00    +0.120 C 
ATOM      9  C   UNL     1       2.379  -0.008  -0.714  0.00  0.00    +0.095 C 
ATOM     10  C   UNL     1       2.276   1.468  -0.453  0.00  0.00    +0.098 C 
ATOM     11  C   UNL     1       1.079   2.039  -0.164  0.00  0.00    +0.199 C 
ATOM     12  O   UNL     1      -0.040   1.297  -0.102  0.00  0.00    -0.441 OA
ENDROOT
BRANCH   5  13
ATOM     13  C   UNL     1      -3.421  -0.810   1.477  0.00  0.00    -0.025 A 
ATOM     14  C   UNL     1      -3.800  -1.955   0.770  0.00  0.00    +0.008 A 
ATOM     15  C   UNL     1      -4.946  -2.633   1.125  0.00  0.00    +0.001 A 
ATOM     16  C   UNL     1      -5.728  -2.177   2.172  0.00  0.00    +0.000 A 
ATOM     17  C   UNL     1      -5.362  -1.041   2.874  0.00  0.00    +0.001 A 
ATOM     18  C   UNL     1      -4.216  -0.355   2.533  0.00  0.00    +0.008 A 
ENDBRANCH   5  13
BRANCH   9  19
ATOM     19  C   UNL     1       2.493  -0.245  -2.197  0.00  0.00    -0.035 A 
ATOM     20  C   UNL     1       1.474   0.153  -3.042  0.00  0.00    +0.004 A 
ATOM     21  C   UNL     1       1.581  -0.060  -4.403  0.00  0.00    +0.000 A 
ATOM     22  C   UNL     1       2.703  -0.681  -4.920  0.00  0.00    +0.000 A 
ATOM     23  C   UNL     1       3.720  -1.084  -4.075  0.00  0.00    +0.000 A 
ATOM     24  C   UNL     1       3.615  -0.866  -2.714  0.00  0.00    +0.004 A 
ENDBRANCH   9  19
BRANCH  11  25
ATOM     25  N   UNL     1       1.011   3.390   0.068  0.00  0.00    -0.328 N 
ATOM     26  H   UNL     1       0.045   3.860   0.303  0.00  0.00    +0.145 HD
ATOM     27  H   UNL     1       1.923   4.003   0.019  0.00  0.00    +0.145 HD
ENDBRANCH  11  25
BRANCH  10  28
ATOM     28  C   UNL     1       3.453   2.282  -0.512  0.00  0.00    +0.101 C 
ATOM     29  N   UNL     1       4.386   2.927  -0.559  0.00  0.00    -0.191 NA
ENDBRANCH  10  28
TORSDOF 4
