REMARK  Name = ZINC65409582
REMARK  6 active torsions:
REMARK  status: ('A' for Active; 'I' for Inactive)
REMARK    1  A    between atoms: C_1  and  C_2
REMARK    2  A    between atoms: C_6  and  C_8
REMARK    3  A    between atoms: C_8  and  N_9
REMARK    4  A    between atoms: N_9  and  C_10
REMARK    5  A    between atoms: C_10  and  C_11
REMARK    6  A    between atoms: C_13  and  C_16
REMARK                            x       y       z     vdW  Elec       q    Type
REMARK                         _______ _______ _______ _____ _____    ______ ____
ROOT
ATOM      1  N   UNL     1       1.436  -2.953   2.877  0.00  0.00    +0.390 N 
ATOM      2  H   UNL     1       1.916  -3.502   2.179  0.00  0.00    -0.085 HD
ATOM      3  H   UNL     1       1.901  -2.064   2.983  0.00  0.00    -0.085 HD
ENDROOT
BRANCH   1   4
ATOM      4  C   UNL     1       0.047  -2.732   2.454  0.00  0.00    -0.004 C 
BRANCH   4  10
ATOM      5  C   UNL     1      -0.018   1.503   0.010  0.00  0.00    +0.066 C 
ATOM      6  C   UNL     1       0.002  -0.004   0.002  0.00  0.00    +0.045 A 
ATOM      7  C   UNL     1       0.006  -0.700  -1.201  0.00  0.00    -0.005 A 
ATOM      8  C   UNL     1       0.028  -2.077  -1.163  0.00  0.00    +0.048 A 
ATOM      9  N   UNL     1       0.039  -2.687   0.018  0.00  0.00    -0.239 NA
ATOM     10  C   UNL     1       0.034  -1.996   1.138  0.00  0.00    +0.113 A 
ATOM     11  N   UNL     1       0.022  -0.678   1.139  0.00  0.00    -0.239 NA
ATOM     12  C   UNL     1       0.049  -2.922  -2.408  0.00  0.00    +0.056 C 
ATOM     13  C   UNL     1      -0.395  -2.101  -3.618  0.00  0.00    +0.006 C 
ATOM     14  C   UNL     1       0.422  -0.804  -3.654  0.00  0.00    +0.005 C 
ATOM     15  C   UNL     1      -0.018   0.079  -2.487  0.00  0.00    +0.039 C 
ENDBRANCH   4  10
ENDBRANCH   1   4
BRANCH   1  16
ATOM     16  C   UNL     1       1.449  -3.670   4.159  0.00  0.00    +0.018 C 
BRANCH  16  17
ATOM     17  C   UNL     1       2.874  -3.897   4.593  0.00  0.00    +0.211 A 
ATOM     18  N   UNL     1       3.582  -3.092   5.332  0.00  0.00    -0.190 NA
ATOM     19  C   UNL     1       4.811  -3.605   5.526  0.00  0.00    +0.237 A 
ATOM     20  N   UNL     1       4.888  -4.756   4.901  0.00  0.00    -0.053 NA
ATOM     21  O   UNL     1       3.624  -4.964   4.288  0.00  0.00    -0.340 OA
BRANCH  19  22
ATOM     22  C   UNL     1       5.894  -2.977   6.312  0.00  0.00    +0.175 A 
ATOM     23  C   UNL     1       7.138  -3.489   6.507  0.00  0.00    +0.053 A 
ATOM     24  C   UNL     1       7.835  -2.565   7.310  0.00  0.00    +0.042 A 
ATOM     25  C   UNL     1       6.990  -1.546   7.563  0.00  0.00    +0.196 A 
ATOM     26  O   UNL     1       5.821  -1.795   6.955  0.00  0.00    -0.460 OA
ENDBRANCH  19  22
ENDBRANCH  16  17
ENDBRANCH   1  16
TORSDOF 5
