REMARK  Name = ZINC15202588
REMARK  2 active torsions:
REMARK  status: ('A' for Active; 'I' for Inactive)
REMARK    1  A    between atoms: C_1  and  C_2
REMARK    2  A    between atoms: N_8  and  C_9
REMARK                            x       y       z     vdW  Elec       q    Type
REMARK                         _______ _______ _______ _____ _____    ______ ____
ROOT
ATOM      1  C   UNL     1      -0.955  -0.239   6.945  0.00  0.00    +0.054 C 
ATOM      2  C   UNL     1      -0.956   0.859   5.879  0.00  0.00    +0.195 C 
ATOM      3  C   UNL     1      -2.335   0.956   5.183  0.00  0.00    +0.191 C 
ATOM      4  N   UNL     1      -1.953   1.220   3.781  0.00  0.00    -0.233 NA
ATOM      5  C   UNL     1      -0.692   0.947   3.642  0.00  0.00    +0.278 C 
ATOM      6  O   UNL     1      -0.104   0.501   4.770  0.00  0.00    -0.461 OA
ATOM      7  N   UNL     1      -0.020   1.094   2.454  0.00  0.00    -0.297 N 
ATOM      8  H   UNL     1       0.923   0.876   2.400  0.00  0.00    +0.151 HD
ENDROOT
BRANCH   7   9
ATOM      9  C   UNL     1      -0.729   1.579   1.267  0.00  0.00    +0.075 C 
ATOM     10  C   UNL     1      -0.013   1.086   0.008  0.00  0.00    +0.022 C 
ATOM     11  C   UNL     1      -0.753   1.593  -1.232  0.00  0.00    +0.002 C 
ATOM     12  C   UNL     1      -0.773   3.123  -1.223  0.00  0.00    +0.000 C 
ATOM     13  C   UNL     1      -1.490   3.616   0.036  0.00  0.00    +0.002 C 
ATOM     14  C   UNL     1      -0.750   3.109   1.275  0.00  0.00    +0.022 C 
ENDBRANCH   7   9
TORSDOF 1
