REMARK  Name = ZINC09957478
REMARK  7 active torsions:
REMARK  status: ('A' for Active; 'I' for Inactive)
REMARK    1  A    between atoms: C_1  and  C_2
REMARK    2  A    between atoms: C_2  and  C_4
REMARK    3  A    between atoms: C_2  and  O_24
REMARK    4  A    between atoms: N_6  and  C_7
REMARK    5  A    between atoms: C_10  and  S_13
REMARK    6  A    between atoms: S_13  and  N_16
REMARK    7  A    between atoms: O_24  and  C_25
REMARK                            x       y       z     vdW  Elec       q    Type
REMARK                         _______ _______ _______ _____ _____    ______ ____
ROOT
ATOM      1  C   UNL     1      -3.568  -0.720  -1.659  0.00  0.00    +0.034 A 
ATOM      2  C   UNL     1      -4.382  -1.240  -0.661  0.00  0.00    +0.025 A 
ATOM      3  C   UNL     1      -5.551  -1.895  -0.997  0.00  0.00    +0.031 A 
ATOM      4  C   UNL     1      -5.911  -2.034  -2.325  0.00  0.00    +0.113 A 
ATOM      5  C   UNL     1      -5.102  -1.517  -3.321  0.00  0.00    +0.031 A 
ATOM      6  C   UNL     1      -3.936  -0.856  -2.992  0.00  0.00    +0.025 A 
ENDROOT
BRANCH   1   9
ATOM      7  C   UNL     1      -1.960   0.986  -2.067  0.00  0.00    +0.258 C 
ATOM      8  O   UNL     1      -2.656   1.412  -2.964  0.00  0.00    -0.271 OA
ATOM      9  N   UNL     1      -2.384  -0.055  -1.323  0.00  0.00    -0.282 N 
ATOM     10  H   UNL     1      -1.868  -0.344  -0.554  0.00  0.00    +0.155 HD
BRANCH   7  12
ATOM     11  C   UNL     1       0.491   0.609  -2.068  0.00  0.00    +0.062 C 
ATOM     12  C   UNL     1      -0.623   1.619  -1.783  0.00  0.00    +0.256 C 
BRANCH  12  13
ATOM     13  O   UNL     1      -0.452   2.765  -2.620  0.00  0.00    -0.480 OA
BRANCH  13  14
ATOM     14  C   UNL     1       0.399   3.729  -2.179  0.00  0.00    +0.123 A 
ATOM     15  C   UNL     1       0.522   4.920  -2.880  0.00  0.00    +0.046 A 
ATOM     16  C   UNL     1       1.387   5.899  -2.431  0.00  0.00    +0.005 A 
ATOM     17  C   UNL     1       2.131   5.693  -1.284  0.00  0.00    +0.020 A 
ATOM     18  C   UNL     1       2.011   4.506  -0.583  0.00  0.00    +0.044 A 
ATOM     19  C   UNL     1       1.142   3.526  -1.026  0.00  0.00    +0.065 A 
ATOM     20 CL   UNL     1       2.947   4.250   0.856  0.00  0.00    -0.083 Cl
ENDBRANCH  13  14
ENDBRANCH  12  13
ENDBRANCH   7  12
ENDBRANCH   1   9
BRANCH   4  21
ATOM     21  S   UNL     1      -7.402  -2.870  -2.749  0.00  0.00    +0.100 S 
ATOM     22  O   UNL     1      -7.238  -3.344  -4.079  0.00  0.00    -0.146 OA
ATOM     23  O   UNL     1      -7.704  -3.737  -1.664  0.00  0.00    -0.146 OA
BRANCH  21  24
ATOM     24  N   UNL     1      -8.605  -1.733  -2.796  0.00  0.00    -0.118 NA
ATOM     25  C   UNL     1      -9.816  -2.084  -3.087  0.00  0.00    +0.117 C 
ATOM     26  N   UNL     1     -10.137  -3.422  -3.361  0.00  0.00    -0.331 N 
ATOM     27  C   UNL     1     -10.961  -4.106  -2.407  0.00  0.00    +0.102 C 
ATOM     28  C   UNL     1     -12.479  -3.985  -2.624  0.00  0.00    +0.019 C 
ATOM     29  C   UNL     1     -12.854  -2.537  -3.027  0.00  0.00    +0.002 C 
ATOM     30  C   UNL     1     -12.085  -1.496  -2.263  0.00  0.00    +0.008 C 
ATOM     31  C   UNL     1     -10.886  -1.111  -3.135  0.00  0.00    +0.073 C 
ATOM     32  H   UNL     1      -9.817  -3.866  -4.162  0.00  0.00    +0.147 HD
ENDBRANCH  21  24
ENDBRANCH   4  21
TORSDOF 6
