REMARK  Name = ZINC20757219
REMARK  3 active torsions:
REMARK  status: ('A' for Active; 'I' for Inactive)
REMARK    1  A    between atoms: C_1  and  C_2
REMARK    2  A    between atoms: C_2  and  C_12
REMARK    3  A    between atoms: N_3  and  N_4
REMARK                            x       y       z     vdW  Elec       q    Type
REMARK                         _______ _______ _______ _____ _____    ______ ____
ROOT
ATOM      1  C   UNL     1       3.707  -2.202  -0.058  0.00  0.00    +0.068 C 
ATOM      2  C   UNL     1       3.690  -0.695  -0.048  0.00  0.00    +0.063 C 
ATOM      3  N   UNL     1       4.807  -0.033  -0.058  0.00  0.00    -0.185 NA
ENDROOT
BRANCH   2   4
ATOM      4  C   UNL     1       2.405   0.027  -0.027  0.00  0.00    +0.001 A 
ATOM      5  C   UNL     1       1.202  -0.683  -0.016  0.00  0.00    +0.013 A 
ATOM      6  C   UNL     1       0.002  -0.004   0.002  0.00  0.00    +0.050 A 
ATOM      7  C   UNL     1      -0.017   1.385   0.010  0.00  0.00    +0.162 A 
ATOM      8  C   UNL     1       1.178   2.098   0.002  0.00  0.00    +0.163 A 
ATOM      9  C   UNL     1       2.386   1.424  -0.018  0.00  0.00    +0.059 A 
ATOM     10  O   UNL     1       1.176   3.460   0.018  0.00  0.00    -0.485 OA
ATOM     11  C   UNL     1      -0.050   4.106  -0.338  0.00  0.00    +0.270 C 
ATOM     12  C   UNL     1      -1.196   3.411   0.410  0.00  0.00    +0.270 C 
ATOM     13  O   UNL     1      -1.214   2.033   0.019  0.00  0.00    -0.485 OA
ENDBRANCH   2   4
BRANCH   3  14
ATOM     14  N   UNL     1       6.028  -0.720  -0.078  0.00  0.00    -0.219 N 
ATOM     15  C   UNL     1       7.224  -0.011  -0.088  0.00  0.00    +0.161 A 
ATOM     16  C   UNL     1       8.442  -0.691  -0.108  0.00  0.00    +0.050 A 
ATOM     17  C   UNL     1       9.605   0.061  -0.118  0.00  0.00    +0.045 A 
ATOM     18  C   UNL     1       9.487   1.446  -0.108  0.00  0.00    +0.152 A 
ATOM     19  N   UNL     1       8.293   2.006  -0.089  0.00  0.00    -0.136 NA
ATOM     20  N   UNL     1       7.212   1.314  -0.085  0.00  0.00    -0.131 NA
ATOM     21 CL   UNL     1      10.912   2.438  -0.119  0.00  0.00    -0.060 Cl
ATOM     22  H   UNL     1       6.040  -1.820  -0.085  0.00  0.00    +0.176 HD
ENDBRANCH   3  14
TORSDOF 2
