REMARK  Name = ZINC67268909
REMARK  12 active torsions:
REMARK  status: ('A' for Active; 'I' for Inactive)
REMARK    1  A    between atoms: C_1  and  C_2
REMARK    2  A    between atoms: C_5  and  C_8
REMARK    3  A    between atoms: C_8  and  C_10
REMARK    4  A    between atoms: C_8  and  N_29
REMARK    5  A    between atoms: C_10  and  N_11
REMARK    6  A    between atoms: C_12  and  C_14
REMARK    7  A    between atoms: C_14  and  C_16
REMARK    8  A    between atoms: C_14  and  N_17
REMARK    9  A    between atoms: C_18  and  C_20
REMARK   10  A    between atoms: C_24  and  N_26
REMARK   11  A    between atoms: N_29  and  C_30
REMARK   12  A    between atoms: N_29  and  C_31
REMARK                            x       y       z     vdW  Elec       q    Type
REMARK                         _______ _______ _______ _____ _____    ______ ____
ROOT
ATOM      1  N   UNL     1       0.775  -6.390   0.511  0.00  0.00    -0.315 N 
ATOM      2  C   UNL     1       1.770  -7.242   0.829  0.00  0.00    +0.233 C 
ATOM      3  O   UNL     1       2.914  -6.845   0.885  0.00  0.00    -0.274 OA
ATOM      4  H   UNL     1      -0.141  -6.708   0.467  0.00  0.00    +0.149 HD
ENDROOT
BRANCH   2   5
ATOM      5  C   UNL     1       1.460  -8.689   1.116  0.00  0.00    +0.156 C 
ATOM      6  C   UNL     1       0.808  -9.324  -0.114  0.00  0.00    +0.038 C 
BRANCH   5   7
ATOM      7  N   UNL     1       2.700  -9.400   1.434  0.00  0.00    -0.300 N 
ATOM      8  C   UNL     1       2.663 -10.515   2.190  0.00  0.00    +0.245 C 
ATOM      9  O   UNL     1       1.600 -10.931   2.608  0.00  0.00    -0.270 OA
ATOM     10  H   UNL     1       3.549  -9.069   1.100  0.00  0.00    +0.150 HD
BRANCH   8  11
ATOM     11  C   UNL     1       3.915 -11.233   2.511  0.00  0.00    +0.039 A 
ATOM     12  C   UNL     1       5.138 -10.756   2.037  0.00  0.00    +0.013 A 
ATOM     13  C   UNL     1       6.303 -11.430   2.340  0.00  0.00    +0.003 A 
ATOM     14  C   UNL     1       6.260 -12.578   3.112  0.00  0.00    +0.033 A 
ATOM     15  C   UNL     1       5.051 -13.056   3.584  0.00  0.00    +0.127 A 
ATOM     16  C   UNL     1       3.880 -12.388   3.293  0.00  0.00    +0.045 A 
BRANCH  15  17
ATOM     17  N   UNL     1       5.015 -14.285   4.409  0.00  0.00    +0.056 N 
ATOM     18  O   UNL     1       6.042 -14.869   4.669  0.00  0.00    -0.126 OA
ATOM     19  O   UNL     1       3.960 -14.705   4.822  0.00  0.00    -0.126 OA
ENDBRANCH  15  17
ENDBRANCH   8  11
ENDBRANCH   5   7
ENDBRANCH   2   5
BRANCH   1  20
ATOM     20  C   UNL     1       1.076  -4.984   0.232  0.00  0.00    +0.093 C 
BRANCH  20  21
ATOM     21  C   UNL     1      -0.228  -4.220  -0.006  0.00  0.00    -0.021 C 
BRANCH  21  26
ATOM     22  C   UNL     1      -2.814  -6.252  -4.758  0.00  0.00    +0.044 C 
ATOM     23  C   UNL     1      -2.139  -5.722  -3.518  0.00  0.00    -0.050 A 
ATOM     24  C   UNL     1      -2.566  -6.134  -2.270  0.00  0.00    +0.003 A 
ATOM     25  C   UNL     1      -1.948  -5.648  -1.133  0.00  0.00    +0.002 A 
ATOM     26  C   UNL     1      -0.902  -4.751  -1.245  0.00  0.00    -0.059 A 
ATOM     27  C   UNL     1      -0.475  -4.340  -2.494  0.00  0.00    +0.002 A 
ATOM     28  C   UNL     1      -1.090  -4.829  -3.631  0.00  0.00    +0.003 A 
ENDBRANCH  21  26
BRANCH  21  29
ATOM     29  N   UNL     1       0.065  -2.792  -0.181  0.00  0.00    +0.382 N 
ATOM     30  C   UNL     1      -1.182  -2.065  -0.455  0.00  0.00    -0.096 C 
ATOM     31  C   UNL     1       0.681  -2.264   1.044  0.00  0.00    -0.096 C 
ATOM     32  H   UNL     1       0.701  -2.672  -0.956  0.00  0.00    -0.082 HD
ENDBRANCH  21  29
ENDBRANCH  20  21
ENDBRANCH   1  20
TORSDOF 8
