REMARK  Name = ZINC38688918
REMARK  5 active torsions:
REMARK  status: ('A' for Active; 'I' for Inactive)
REMARK    1  A    between atoms: C_1  and  N_2
REMARK    2  A    between atoms: C_3  and  C_15
REMARK    3  A    between atoms: C_16  and  C_17
REMARK    4  A    between atoms: C_20  and  O_26
REMARK    5  A    between atoms: O_26  and  C_27
REMARK                            x       y       z     vdW  Elec       q    Type
REMARK                         _______ _______ _______ _____ _____    ______ ____
ROOT
ATOM      1  C   UNL     1      -0.018   1.461   0.010  0.00  0.00    +0.134 C 
ATOM      2  N   UNL     1       0.002  -0.004   0.002  0.00  0.00    -0.279 N 
ATOM      3  C   UNL     1      -1.262  -0.739   0.004  0.00  0.00    +0.185 C 
ATOM      4  N   UNL     1      -1.105  -2.020   0.704  0.00  0.00    -0.322 N 
ATOM      5  C   UNL     1       0.022  -2.788   0.438  0.00  0.00    +0.041 A 
ATOM      6  C   UNL     1       0.006  -4.169   0.527  0.00  0.00    +0.025 A 
ATOM      7  C   UNL     1       1.154  -4.886   0.249  0.00  0.00    +0.016 A 
ATOM      8  C   UNL     1       2.321  -4.233  -0.119  0.00  0.00    +0.014 A 
ATOM      9  C   UNL     1       2.354  -2.857  -0.212  0.00  0.00    +0.029 A 
ATOM     10  C   UNL     1       1.204  -2.122   0.068  0.00  0.00    +0.059 A 
ATOM     11  C   UNL     1       1.186  -0.650  -0.013  0.00  0.00    +0.250 C 
ATOM     12  O   UNL     1       2.227  -0.025  -0.088  0.00  0.00    -0.270 OA
ATOM     13  I   UNL     1       4.047  -5.345  -0.538  0.00  0.00    -0.044 I 
ATOM     14  H   UNL     1      -1.774  -2.324   1.338  0.00  0.00    +0.148 HD
ENDROOT
BRANCH   3  15
ATOM     15  C   UNL     1      -1.690  -1.000  -1.417  0.00  0.00    +0.015 C 
ATOM     16  C   UNL     1      -2.860  -0.521  -1.864  0.00  0.00    +0.005 C 
BRANCH  16  17
ATOM     17  C   UNL     1      -3.260  -0.765  -3.194  0.00  0.00    -0.019 C 
ATOM     18  C   UNL     1      -4.429  -0.339  -3.810  0.00  0.00    +0.006 A 
ATOM     19  C   UNL     1      -5.527   0.424  -3.350  0.00  0.00    +0.056 A 
ATOM     20  C   UNL     1      -6.559   0.696  -4.193  0.00  0.00    +0.121 A 
ATOM     21  C   UNL     1      -6.564   0.236  -5.519  0.00  0.00    +0.047 A 
ATOM     22  C   UNL     1      -5.546  -0.499  -6.024  0.00  0.00    +0.029 A 
ATOM     23  C   UNL     1      -4.432  -0.823  -5.203  0.00  0.00    +0.043 A 
ATOM     24  N   UNL     1      -3.339  -1.511  -5.453  0.00  0.00    -0.380 N 
ATOM     25  C   UNL     1      -2.503  -1.541  -4.249  0.00  0.00    +0.149 C 
ATOM     26  H   UNL     1      -3.119  -1.928  -6.300  0.00  0.00    +0.160 HD
BRANCH  20  27
ATOM     27  O   UNL     1      -7.610   1.430  -3.741  0.00  0.00    -0.495 OA
ATOM     28  C   UNL     1      -8.668   1.687  -4.666  0.00  0.00    +0.277 C 
ENDBRANCH  20  27
ENDBRANCH  16  17
ENDBRANCH   3  15
TORSDOF 3
