REMARK  Name = ZINC08983496
REMARK  6 active torsions:
REMARK  status: ('A' for Active; 'I' for Inactive)
REMARK    1  A    between atoms: C_1  and  C_2
REMARK    2  A    between atoms: C_2  and  C_23
REMARK    3  A    between atoms: N_5  and  C_11
REMARK    4  A    between atoms: N_8  and  C_9
REMARK    5  A    between atoms: C_9  and  O_10
REMARK    6  A    between atoms: C_11  and  N_62
REMARK                            x       y       z     vdW  Elec       q    Type
REMARK                         _______ _______ _______ _____ _____    ______ ____
ROOT
ATOM      1  C   UNL     1      -2.419   9.969  -1.956  0.00  0.00    +0.047 C 
ATOM      2  C   UNL     1      -1.886   8.563  -2.241  0.00  0.00    +0.140 C 
ATOM      3  C   UNL     1      -0.948   8.114  -1.139  0.00  0.00    +0.249 C 
ATOM      4  O   UNL     1      -1.213   7.968   0.035  0.00  0.00    -0.272 OA
ATOM      5  N   UNL     1       0.244   7.913  -1.735  0.00  0.00    -0.241 N 
ATOM      6  C   UNL     1       0.191   8.174  -3.046  0.00  0.00    +0.312 C 
ATOM      7  O   UNL     1       1.142   8.069  -3.796  0.00  0.00    -0.252 OA
ATOM      8  N   UNL     1      -1.035   8.562  -3.443  0.00  0.00    -0.244 N 
ENDROOT
BRANCH   2   9
ATOM      9  C   UNL     1      -3.025   7.588  -2.398  0.00  0.00    -0.012 A 
ATOM     10  C   UNL     1      -3.198   6.917  -3.594  0.00  0.00    +0.010 A 
ATOM     11  C   UNL     1      -4.241   6.020  -3.745  0.00  0.00    +0.050 A 
ATOM     12  C   UNL     1      -5.111   5.796  -2.691  0.00  0.00    +0.162 A 
ATOM     13  C   UNL     1      -4.937   6.470  -1.491  0.00  0.00    +0.162 A 
ATOM     14  C   UNL     1      -3.890   7.363  -1.342  0.00  0.00    +0.055 A 
ATOM     15  O   UNL     1      -5.801   6.242  -0.459  0.00  0.00    -0.488 OA
ATOM     16  C   UNL     1      -7.138   6.709  -0.649  0.00  0.00    +0.232 C 
ATOM     17  C   UNL     1      -7.962   5.687  -1.417  0.00  0.00    +0.082 C 
ATOM     18  C   UNL     1      -7.454   5.482  -2.835  0.00  0.00    +0.232 C 
ATOM     19  O   UNL     1      -6.143   4.913  -2.826  0.00  0.00    -0.488 OA
ENDBRANCH   2   9
BRANCH   8  20
ATOM     20  C   UNL     1      -1.442   8.919  -4.805  0.00  0.00    +0.269 C 
BRANCH  20  21
ATOM     21  O   UNL     1      -0.927  10.211  -5.133  0.00  0.00    -0.377 OA
ATOM     22  H   UNL     1      -1.158  10.513  -6.022  0.00  0.00    +0.211 HD
ENDBRANCH  20  21
ENDBRANCH   8  20
BRANCH   5  23
ATOM     23  C   UNL     1       1.451   7.469  -1.033  0.00  0.00    +0.043 C 
BRANCH  23  35
ATOM     24  C   UNL     1       2.304   5.500   0.089  0.00  0.00    -0.057 C 
ATOM     25  C   UNL     1       2.408   3.975   0.000  0.00  0.00    +0.089 C 
ATOM     26  N   UNL     1       1.058   3.394   0.010  0.00  0.00    -0.303 N 
ATOM     27  C   UNL     1       0.264   3.895  -1.121  0.00  0.00    +0.089 C 
ATOM     28  C   UNL     1       0.160   5.420  -1.032  0.00  0.00    -0.057 C 
ATOM     29  C   UNL     1       1.114   2.011   0.002  0.00  0.00    +0.218 A 
ATOM     30  N   UNL     1      -0.016   1.319   0.009  0.00  0.00    -0.223 NA
ATOM     31  C   UNL     1       0.002  -0.004   0.002  0.00  0.00    +0.116 A 
ATOM     32  C   UNL     1       1.221  -0.664  -0.013  0.00  0.00    +0.039 A 
ATOM     33  C   UNL     1       2.383   0.092  -0.020  0.00  0.00    +0.116 A 
ATOM     34  N   UNL     1       2.295   1.411  -0.012  0.00  0.00    -0.223 NA
ATOM     35  N   UNL     1       1.522   5.992  -1.065  0.00  0.00    +0.392 N 
ATOM     36  H   UNL     1       1.987   5.699  -1.932  0.00  0.00    -0.079 HD
ENDBRANCH  23  35
ENDBRANCH   5  23
TORSDOF 5
