REMARK  Name = ZINC06560434
REMARK  4 active torsions:
REMARK  status: ('A' for Active; 'I' for Inactive)
REMARK    1  A    between atoms: C_6  and  N_7
REMARK    2  A    between atoms: N_12  and  C_15
REMARK    3  A    between atoms: C_15  and  C_16
REMARK    4  A    between atoms: N_18  and  C_19
REMARK                            x       y       z     vdW  Elec       q    Type
REMARK                         _______ _______ _______ _____ _____    ______ ____
ROOT
ATOM      1  C   UNL     1       2.865  -6.785  -1.615  0.00  0.00    +0.033 A 
ATOM      2  C   UNL     1       3.097  -5.441  -1.814  0.00  0.00    +0.017 A 
ATOM      3  C   UNL     1       3.187  -4.590  -0.714  0.00  0.00    +0.065 A 
ATOM      4  C   UNL     1       3.041  -5.105   0.593  0.00  0.00    +0.080 A 
ATOM      5  C   UNL     1       2.807  -6.471   0.768  0.00  0.00    +0.061 A 
ATOM      6  C   UNL     1       2.722  -7.295  -0.332  0.00  0.00    +0.128 A 
ATOM      7  N   UNL     1       3.132  -4.258   1.648  0.00  0.00    -0.237 NA
ATOM      8  C   UNL     1       3.354  -2.989   1.485  0.00  0.00    +0.203 A 
ATOM      9  N   UNL     1       3.501  -2.407   0.266  0.00  0.00    -0.290 N 
ATOM     10  C   UNL     1       3.431  -3.148  -0.864  0.00  0.00    +0.262 A 
ATOM     11  O   UNL     1       3.566  -2.640  -1.962  0.00  0.00    -0.267 OA
ENDROOT
BRANCH   6  12
ATOM     12  N   UNL     1       2.474  -8.742  -0.144  0.00  0.00    +0.056 N 
ATOM     13  O   UNL     1       2.347  -9.197   0.979  0.00  0.00    -0.126 OA
ATOM     14  O   UNL     1       2.397  -9.477  -1.111  0.00  0.00    -0.126 OA
ENDBRANCH   6  12
BRANCH   9  15
ATOM     15  C   UNL     1       3.744  -0.965   0.175  0.00  0.00    +0.222 C 
BRANCH  15  16
ATOM     16  C   UNL     1       2.426  -0.239   0.078  0.00  0.00    +0.237 C 
ATOM     17  O   UNL     1       1.387  -0.865   0.085  0.00  0.00    -0.274 OA
ATOM     18  N   UNL     1       2.403   1.105  -0.015  0.00  0.00    -0.283 N 
ATOM     19  H   UNL     1       3.234   1.601  -0.086  0.00  0.00    +0.155 HD
BRANCH  18  20
ATOM     20  C   UNL     1       1.179   1.786  -0.011  0.00  0.00    +0.052 A 
ATOM     21  C   UNL     1       0.064   1.216  -0.608  0.00  0.00    +0.026 A 
ATOM     22  C   UNL     1      -1.141   1.892  -0.608  0.00  0.00    +0.022 A 
ATOM     23  C   UNL     1      -1.239   3.132  -0.002  0.00  0.00    +0.042 A 
ATOM     24  C   UNL     1      -0.129   3.704   0.595  0.00  0.00    +0.041 A 
ATOM     25  C   UNL     1       1.080   3.034   0.592  0.00  0.00    +0.064 A 
ATOM     26 CL   UNL     1       2.473   3.752   1.340  0.00  0.00    -0.082 Cl
ATOM     27 CL   UNL     1      -2.756   3.976   0.003  0.00  0.00    -0.083 Cl
ENDBRANCH  18  20
ENDBRANCH  15  16
ENDBRANCH   9  15
TORSDOF 4
