REMARK  Name = ZINC38547005
REMARK  8 active torsions:
REMARK  status: ('A' for Active; 'I' for Inactive)
REMARK    1  A    between atoms: C_1  and  C_2
REMARK    2  A    between atoms: C_5  and  C_8
REMARK    3  A    between atoms: C_8  and  C_10
REMARK    4  A    between atoms: C_8  and  N_24
REMARK    5  A    between atoms: C_12  and  C_23
REMARK    6  A    between atoms: C_14  and  N_15
REMARK    7  A    between atoms: C_16  and  C_18
REMARK    8  A    between atoms: C_27  and  C_31
REMARK                            x       y       z     vdW  Elec       q    Type
REMARK                         _______ _______ _______ _____ _____    ______ ____
ROOT
ATOM      1  C   UNL     1       0.059  -4.275  -0.021  0.00  0.00    +0.135 C 
ENDROOT
BRANCH   1   2
ATOM      2  N   UNL     1       0.959  -4.758   1.029  0.00  0.00    -0.320 N 
ATOM      3  C   UNL     1       2.322  -4.872   0.779  0.00  0.00    +0.097 A 
ATOM      4  C   UNL     1       2.825  -4.520  -0.470  0.00  0.00    +0.045 A 
ATOM      5  C   UNL     1       4.183  -4.638  -0.705  0.00  0.00    -0.046 A 
ATOM      6  C   UNL     1       4.995  -5.106   0.320  0.00  0.00    +0.021 A 
ATOM      7  C   UNL     1       4.428  -5.436   1.534  0.00  0.00    +0.084 A 
ATOM      8  N   UNL     1       3.130  -5.308   1.732  0.00  0.00    -0.350 N 
ATOM      9  C   UNL     1       4.768  -4.269  -2.044  0.00  0.00    +0.044 C 
ATOM     10  H   UNL     1       0.604  -4.998   1.899  0.00  0.00    +0.148 HD
ATOM     11  H   UNL     1       2.758  -5.544   2.596  0.00  0.00    +0.166 HD
ENDBRANCH   1   2
BRANCH   1  16
ATOM     12  C   UNL     1      -0.018   1.503   0.010  0.00  0.00    +0.044 C 
ATOM     13  C   UNL     1       0.002  -0.004   0.002  0.00  0.00    -0.050 A 
ATOM     14  C   UNL     1       0.006  -0.689  -1.199  0.00  0.00    +0.004 A 
ATOM     15  C   UNL     1       0.025  -2.071  -1.206  0.00  0.00    +0.006 A 
ATOM     16  C   UNL     1       0.040  -2.768  -0.013  0.00  0.00    -0.023 A 
ATOM     17  C   UNL     1       0.037  -2.084   1.188  0.00  0.00    +0.006 A 
ATOM     18  C   UNL     1       0.023  -0.702   1.195  0.00  0.00    +0.004 A 
ENDBRANCH   1  16
BRANCH   1  19
ATOM     19  C   UNL     1      -1.332  -4.797   0.230  0.00  0.00    +0.006 A 
ATOM     20  C   UNL     1      -1.736  -5.136   1.508  0.00  0.00    +0.018 A 
ATOM     21  C   UNL     1      -2.994  -5.602   1.700  0.00  0.00    -0.011 A 
ATOM     22  S   UNL     1      -3.658  -5.574   0.043  0.00  0.00    -0.078 S 
ATOM     23  C   UNL     1      -2.216  -4.938  -0.797  0.00  0.00    +0.078 A 
ATOM     24  C   UNL     1      -3.660  -6.033   2.981  0.00  0.00    +0.051 C 
BRANCH  23  25
ATOM     25  N   UNL     1      -2.040  -4.659  -2.154  0.00  0.00    -0.273 N 
ATOM     26  C   UNL     1      -3.050  -4.868  -3.021  0.00  0.00    +0.284 C 
ATOM     27  O   UNL     1      -4.116  -5.301  -2.622  0.00  0.00    -0.266 OA
ATOM     28  H   UNL     1      -1.191  -4.314  -2.472  0.00  0.00    +0.156 HD
BRANCH  26  29
ATOM     29  C   UNL     1      -2.865  -4.576  -4.446  0.00  0.00    +0.189 A 
ATOM     30  C   UNL     1      -3.802  -4.736  -5.426  0.00  0.00    +0.054 A 
ATOM     31  C   UNL     1      -3.200  -4.336  -6.630  0.00  0.00    +0.042 A 
ATOM     32  C   UNL     1      -1.938  -3.954  -6.335  0.00  0.00    +0.196 A 
ATOM     33  O   UNL     1      -1.741  -4.095  -5.017  0.00  0.00    -0.458 OA
ENDBRANCH  26  29
ENDBRANCH  23  25
ENDBRANCH   1  19
TORSDOF 5
