REMARK  Name = ZINC12228992
REMARK  7 active torsions:
REMARK  status: ('A' for Active; 'I' for Inactive)
REMARK    1  A    between atoms: C_1  and  C_2
REMARK    2  A    between atoms: C_2  and  C_3
REMARK    3  A    between atoms: C_2  and  C_4
REMARK    4  A    between atoms: N_8  and  C_24
REMARK    5  A    between atoms: N_12  and  C_14
REMARK    6  A    between atoms: C_14  and  C_15
REMARK    7  A    between atoms: N_17  and  C_18
REMARK                            x       y       z     vdW  Elec       q    Type
REMARK                         _______ _______ _______ _____ _____    ______ ____
ROOT
ATOM      1  C   UNL     1      -2.570  -0.832  -7.144  0.00  0.00    +0.075 A 
ATOM      2  C   UNL     1      -2.791   0.308  -8.030  0.00  0.00    +0.049 A 
ATOM      3  C   UNL     1      -3.618   0.536  -9.147  0.00  0.00    +0.145 A 
ATOM      4  N   UNL     1      -3.419   1.755  -9.570  0.00  0.00    -0.173 NA
ATOM      5  N   UNL     1      -2.462   2.381  -8.761  0.00  0.00    -0.227 N 
ATOM      6  C   UNL     1      -2.069   1.489  -7.804  0.00  0.00    +0.142 A 
ATOM      7  C   UNL     1      -1.155   1.532  -6.728  0.00  0.00    +0.294 A 
ATOM      8  O   UNL     1      -0.514   2.546  -6.508  0.00  0.00    -0.264 OA
ATOM      9  N   UNL     1      -0.995   0.447  -5.945  0.00  0.00    -0.219 N 
ATOM     10  N   UNL     1      -1.709  -0.732  -6.172  0.00  0.00    -0.172 NA
ENDROOT
BRANCH   5  11
ATOM     11  C   UNL     1      -1.991   3.692  -8.907  0.00  0.00    +0.066 A 
ATOM     12  C   UNL     1      -1.672   4.445  -7.785  0.00  0.00    +0.030 A 
ATOM     13  C   UNL     1      -1.204   5.736  -7.931  0.00  0.00    +0.040 A 
ATOM     14  C   UNL     1      -1.061   6.283  -9.196  0.00  0.00    +0.124 A 
ATOM     15  C   UNL     1      -1.383   5.535 -10.316  0.00  0.00    +0.040 A 
ATOM     16  C   UNL     1      -1.847   4.242 -10.174  0.00  0.00    +0.030 A 
ATOM     17  F   UNL     1      -0.607   7.548  -9.337  0.00  0.00    -0.205 F 
ENDBRANCH   5  11
BRANCH   1  19
ATOM     18  C   UNL     1      -2.819  -3.178  -6.378  0.00  0.00    +0.014 C 
ATOM     19  C   UNL     1      -3.327  -2.117  -7.358  0.00  0.00    +0.034 C 
ATOM     20  C   UNL     1      -4.819  -1.876  -7.118  0.00  0.00    +0.014 C 
ENDBRANCH   1  19
BRANCH   9  21
ATOM     21  C   UNL     1      -0.043   0.503  -4.832  0.00  0.00    +0.243 C 
BRANCH  21  22
ATOM     22  C   UNL     1      -0.749   0.989  -3.592  0.00  0.00    +0.235 C 
ATOM     23  O   UNL     1      -1.930   1.261  -3.634  0.00  0.00    -0.274 OA
ATOM     24  N   UNL     1      -0.067   1.120  -2.437  0.00  0.00    -0.311 N 
ATOM     25  H   UNL     1       0.878   0.902  -2.404  0.00  0.00    +0.149 HD
BRANCH  24  26
ATOM     26  C   UNL     1      -0.753   1.593  -1.232  0.00  0.00    +0.073 C 
ATOM     27  C   UNL     1      -0.013   1.086   0.008  0.00  0.00    +0.022 C 
ATOM     28  C   UNL     1      -0.729   1.579   1.267  0.00  0.00    +0.002 C 
ATOM     29  C   UNL     1      -0.750   3.109   1.275  0.00  0.00    +0.000 C 
ATOM     30  C   UNL     1      -1.490   3.616   0.036  0.00  0.00    +0.002 C 
ATOM     31  C   UNL     1      -0.773   3.123  -1.223  0.00  0.00    +0.022 C 
ENDBRANCH  24  26
ENDBRANCH  21  22
ENDBRANCH   9  21
TORSDOF 5
