REMARK  Name = ZINC21450316
REMARK  6 active torsions:
REMARK  status: ('A' for Active; 'I' for Inactive)
REMARK    1  A    between atoms: C_1  and  C_2
REMARK    2  A    between atoms: C_2  and  C_3
REMARK    3  A    between atoms: C_9  and  C_11
REMARK    4  A    between atoms: C_16  and  N_17
REMARK    5  A    between atoms: C_18  and  C_20
REMARK    6  A    between atoms: N_25  and  C_27
REMARK                            x       y       z     vdW  Elec       q    Type
REMARK                         _______ _______ _______ _____ _____    ______ ____
ROOT
ATOM      1  C   UNL     1       6.448   6.798   4.452  0.00  0.00    +0.058 A 
ATOM      2  C   UNL     1       6.477   7.003   5.833  0.00  0.00    +0.015 A 
ATOM      3  C   UNL     1       5.322   6.872   6.573  0.00  0.00    +0.001 A 
ATOM      4  C   UNL     1       4.128   6.539   5.952  0.00  0.00    +0.002 A 
ATOM      5  C   UNL     1       4.082   6.339   4.588  0.00  0.00    +0.024 A 
ATOM      6  C   UNL     1       5.238   6.460   3.827  0.00  0.00    +0.046 A 
ENDROOT
BRANCH   1  13
ATOM      7  C   UNL     1      12.367   7.849   2.366  0.00  0.00    +0.103 A 
ATOM      8  N   UNL     1      11.327   7.428   1.675  0.00  0.00    -0.145 NA
ATOM      9  N   UNL     1      10.196   7.251   2.204  0.00  0.00    -0.126 NA
ATOM     10  C   UNL     1       9.980   7.489   3.490  0.00  0.00    +0.188 A 
ATOM     11  S   UNL     1      11.618   8.018   3.984  0.00  0.00    -0.035 S 
ATOM     12  N   UNL     1       8.818   7.359   4.241  0.00  0.00    -0.259 N 
ATOM     13  C   UNL     1       7.681   6.936   3.655  0.00  0.00    +0.252 C 
ATOM     14  O   UNL     1       7.671   6.669   2.469  0.00  0.00    -0.270 OA
ATOM     15  H   UNL     1       8.827   7.600   5.314  0.00  0.00    +0.157 HD
BRANCH   7  17
ATOM     16  C   UNL     1      13.914   9.567   1.468  0.00  0.00    +0.011 C 
ATOM     17  C   UNL     1      13.783   8.112   1.923  0.00  0.00    +0.061 C 
ENDBRANCH   7  17
ENDBRANCH   1  13
BRANCH   6  18
ATOM     18  N   UNL     1       5.195   6.254   2.450  0.00  0.00    -0.285 N 
ATOM     19  C   UNL     1       4.106   6.623   1.747  0.00  0.00    +0.222 C 
ATOM     20  O   UNL     1       3.205   7.222   2.295  0.00  0.00    -0.275 OA
ATOM     21  H   UNL     1       6.050   5.789   1.937  0.00  0.00    +0.155 HD
BRANCH  19  22
ATOM     22  C   UNL     1       4.007   6.290   0.281  0.00  0.00    +0.102 C 
ATOM     23  C   UNL     1       4.031   4.760   0.057  0.00  0.00    +0.110 C 
ATOM     24  C   UNL     1       2.570   4.368   0.025  0.00  0.00    +0.221 C 
ATOM     25  O   UNL     1       2.152   3.236   0.149  0.00  0.00    -0.275 OA
ATOM     26  N   UNL     1       1.803   5.456  -0.160  0.00  0.00    -0.271 N 
ATOM     27  C   UNL     1       2.620   6.669  -0.287  0.00  0.00    +0.127 C 
BRANCH  26  28
ATOM     28  C   UNL     1       0.405   5.435  -0.229  0.00  0.00    +0.036 A 
ATOM     29  C   UNL     1      -0.274   4.223  -0.213  0.00  0.00    +0.025 A 
ATOM     30  C   UNL     1      -1.653   4.205  -0.280  0.00  0.00    +0.022 A 
ATOM     31  C   UNL     1      -2.358   5.392  -0.368  0.00  0.00    +0.041 A 
ATOM     32  C   UNL     1      -1.685   6.601  -0.379  0.00  0.00    +0.022 A 
ATOM     33  C   UNL     1      -0.306   6.625  -0.312  0.00  0.00    +0.025 A 
ATOM     34 CL   UNL     1      -4.092   5.365  -0.460  0.00  0.00    -0.084 Cl
ENDBRANCH  26  28
ENDBRANCH  19  22
ENDBRANCH   6  18
TORSDOF 5
