REMARK  Name = ZINC37742617
REMARK  2 active torsions:
REMARK  status: ('A' for Active; 'I' for Inactive)
REMARK    1  A    between atoms: C_3  and  C_9
REMARK    2  A    between atoms: C_4  and  N_8
REMARK                            x       y       z     vdW  Elec       q    Type
REMARK                         _______ _______ _______ _____ _____    ______ ____
ROOT
ATOM      1  C   UNL     1       3.479   2.431  -0.075  0.00  0.00    +0.141 A 
ATOM      2  N   UNL     1       3.434   3.795  -0.185  0.00  0.00    -0.338 N 
ATOM      3  H   UNL     1       2.635   4.341  -0.251  0.00  0.00    +0.167 HD
ATOM      4  C   UNL     1       4.741   4.249  -0.183  0.00  0.00    +0.069 A 
ATOM      5  C   UNL     1       5.321   5.507  -0.266  0.00  0.00    +0.069 A 
ATOM      6  C   UNL     1       6.695   5.633  -0.236  0.00  0.00    +0.160 A 
ATOM      7  C   UNL     1       7.504   4.506  -0.123  0.00  0.00    +0.161 A 
ATOM      8  C   UNL     1       6.944   3.251  -0.040  0.00  0.00    +0.071 A 
ATOM      9  C   UNL     1       5.552   3.107  -0.069  0.00  0.00    +0.092 A 
ATOM     10  N   UNL     1       4.727   2.033  -0.002  0.00  0.00    -0.228 NA
ATOM     11  F   UNL     1       8.847   4.644  -0.096  0.00  0.00    -0.202 F 
ATOM     12  F   UNL     1       7.259   6.858  -0.317  0.00  0.00    -0.202 F 
ENDROOT
BRANCH   1  15
ATOM     13  C   UNL     1      -0.082   1.248   0.038  0.00  0.00    +0.016 A 
ATOM     14  C   UNL     1       1.015   2.083   0.004  0.00  0.00    +0.014 A 
ATOM     15  C   UNL     1       2.301   1.542  -0.039  0.00  0.00    +0.038 A 
ATOM     16  C   UNL     1       2.467   0.149  -0.049  0.00  0.00    +0.036 A 
ATOM     17  C   UNL     1       1.353  -0.677  -0.015  0.00  0.00    +0.038 A 
ATOM     18  C   UNL     1       0.085  -0.127   0.028  0.00  0.00    +0.020 A 
ATOM     19 BR   UNL     1      -1.429  -1.259   0.074  0.00  0.00    -0.050 Br
BRANCH  16  20
ATOM     20  N   UNL     1       3.745  -0.402  -0.093  0.00  0.00    -0.357 N 
ATOM     21  H   UNL     1       4.524   0.173  -0.032  0.00  0.00    +0.142 HD
ATOM     22  H   UNL     1       3.857  -1.361  -0.184  0.00  0.00    +0.142 HD
ENDBRANCH  16  20
ENDBRANCH   1  15
TORSDOF 2
