REMARK  Name = ZINC42013522
REMARK  4 active torsions:
REMARK  status: ('A' for Active; 'I' for Inactive)
REMARK    1  A    between atoms: C_1  and  C_2
REMARK    2  A    between atoms: C_3  and  C_20
REMARK    3  A    between atoms: C_6  and  C_7
REMARK    4  A    between atoms: C_9  and  C_13
REMARK                            x       y       z     vdW  Elec       q    Type
REMARK                         _______ _______ _______ _____ _____    ______ ____
ROOT
ATOM      1  C   UNL     1      -1.114  -0.676  -1.696  0.00  0.00    +0.184 A 
ATOM      2  N   UNL     1      -1.450  -1.677  -2.517  0.00  0.00    -0.207 NA
ATOM      3  C   UNL     1      -1.200  -2.830  -1.935  0.00  0.00    +0.157 A 
ATOM      4  N   UNL     1      -0.689  -2.579  -0.708  0.00  0.00    -0.258 N 
ATOM      5  H   UNL     1      -0.409  -3.234  -0.049  0.00  0.00    +0.191 HD
ATOM      6  N   UNL     1      -0.639  -1.181  -0.578  0.00  0.00    -0.152 NA
ENDROOT
BRANCH   1  12
ATOM      7  C   UNL     1      -3.682   0.443  -2.190  0.00  0.00    +0.041 C 
ATOM      8  C   UNL     1      -2.435   1.288  -2.227  0.00  0.00    -0.046 C 
ATOM      9  C   UNL     1      -2.496   2.773  -2.524  0.00  0.00    +0.076 C 
ATOM     10  S   UNL     1      -0.721   3.245  -2.434  0.00  0.00    -0.098 S 
ATOM     11  C   UNL     1      -0.048   1.636  -2.050  0.00  0.00    +0.099 C 
ATOM     12  C   UNL     1      -1.250   0.770  -1.999  0.00  0.00    +0.052 C 
ATOM     13  N   UNL     1       1.198   1.304  -1.857  0.00  0.00    -0.292 NA
ATOM     14  C   UNL     1      -3.061   3.029  -3.922  0.00  0.00    +0.024 C 
ATOM     15  H   UNL     1       1.429   0.384  -1.654  0.00  0.00    +0.187 HD
ENDBRANCH   1  12
BRANCH   3  16
ATOM     16  C   UNL     1      -1.436  -4.169  -2.521  0.00  0.00    +0.019 A 
ATOM     17  C   UNL     1      -1.130  -5.317  -1.791  0.00  0.00    +0.011 A 
ATOM     18  C   UNL     1      -1.352  -6.562  -2.343  0.00  0.00    +0.001 A 
ATOM     19  C   UNL     1      -1.877  -6.673  -3.618  0.00  0.00    +0.000 A 
ATOM     20  C   UNL     1      -2.182  -5.538  -4.348  0.00  0.00    +0.001 A 
ATOM     21  C   UNL     1      -1.971  -4.287  -3.804  0.00  0.00    +0.011 A 
ENDBRANCH   3  16
TORSDOF 2
