REMARK  Name = ZINC63350891
REMARK  7 active torsions:
REMARK  status: ('A' for Active; 'I' for Inactive)
REMARK    1  A    between atoms: C_1  and  C_2
REMARK    2  A    between atoms: C_6  and  O_8
REMARK    3  A    between atoms: O_8  and  C_9
REMARK    4  A    between atoms: C_9  and  C_10
REMARK    5  A    between atoms: C_25  and  C_27
REMARK    6  A    between atoms: C_27  and  O_29
REMARK    7  A    between atoms: O_29  and  C_30
REMARK                            x       y       z     vdW  Elec       q    Type
REMARK                         _______ _______ _______ _____ _____    ______ ____
ROOT
ATOM      1  C   UNL     1       0.063  -2.891   4.781  0.00  0.00    +0.254 C 
ATOM      2  O   UNL     1       0.079  -4.094   4.623  0.00  0.00    -0.272 OA
ATOM      3  N   UNL     1       0.061  -2.374   6.026  0.00  0.00    -0.283 N 
ATOM      4  C   UNL     1       0.035  -0.915   6.208  0.00  0.00    +0.137 C 
ATOM      5  C   UNL     1       1.291  -0.517   6.991  0.00  0.00    +0.124 C 
ATOM      6  C   UNL     1       1.370  -1.452   8.191  0.00  0.00    -0.035 C 
ATOM      7  C   UNL     1       1.418  -0.676   9.268  0.00  0.00    -0.001 A 
ATOM      8  C   UNL     1       1.569  -0.992  10.697  0.00  0.00    +0.010 A 
ATOM      9  C   UNL     1       1.567   0.067  11.549  0.00  0.00    +0.001 A 
ATOM     10  C   UNL     1       1.431   1.393  11.127  0.00  0.00    +0.002 A 
ATOM     11  C   UNL     1       1.292   1.776   9.833  0.00  0.00    +0.026 A 
ATOM     12  C   UNL     1       1.285   0.751   8.842  0.00  0.00    +0.043 A 
ATOM     13  N   UNL     1       1.191   0.841   7.528  0.00  0.00    -0.376 N 
ATOM     14  C   UNL     1       1.313  -2.953   8.054  0.00  0.00    +0.067 C 
ATOM     15  C   UNL     1       0.078  -3.273   7.185  0.00  0.00    +0.189 C 
ATOM     16  H   UNL     1       1.072   1.650   7.006  0.00  0.00    +0.160 HD
ENDROOT
BRANCH  15  17
ATOM     17  C   UNL     1      -1.177  -3.072   7.995  0.00  0.00    +0.328 C 
ATOM     18  O   UNL     1      -1.817  -2.054   7.875  0.00  0.00    -0.249 OA
BRANCH  17  19
ATOM     19  O   UNL     1      -1.584  -4.023   8.850  0.00  0.00    -0.467 OA
ATOM     20  C   UNL     1      -2.782  -3.766   9.585  0.00  0.00    +0.280 C 
ENDBRANCH  17  19
ENDBRANCH  15  17
BRANCH   1  21
ATOM     21  C   UNL     1       0.045  -1.975   3.584  0.00  0.00    +0.324 C 
BRANCH  21  22
ATOM     22  O   UNL     1       0.051  -2.755   2.387  0.00  0.00    -0.482 OA
BRANCH  22  28
ATOM     23  C   UNL     1      -0.018   1.503   0.010  0.00  0.00    +0.044 C 
ATOM     24  C   UNL     1       0.002  -0.004   0.002  0.00  0.00    -0.043 A 
ATOM     25  C   UNL     1       0.005  -0.680  -1.202  0.00  0.00    +0.050 A 
ATOM     26  C   UNL     1       0.025  -2.067  -1.221  0.00  0.00    +0.143 A 
ATOM     27  C   UNL     1       0.042  -2.776  -0.007  0.00  0.00    +0.063 A 
ATOM     28  C   UNL     1       0.037  -2.079   1.211  0.00  0.00    +0.132 A 
ATOM     29  C   UNL     1       0.023  -0.695   1.202  0.00  0.00    +0.050 A 
ATOM     30  C   UNL     1       0.065  -4.239  -0.038  0.00  0.00    -0.023 A 
ATOM     31  C   UNL     1       0.073  -4.859  -1.245  0.00  0.00    +0.041 A 
ATOM     32  C   UNL     1       0.057  -4.083  -2.426  0.00  0.00    +0.341 A 
ATOM     33  O   UNL     1       0.068  -4.646  -3.505  0.00  0.00    -0.245 OA
ATOM     34  O   UNL     1       0.029  -2.742  -2.391  0.00  0.00    -0.422 OA
ATOM     35  C   UNL     1       0.098  -6.361  -1.056  0.00  0.00    +0.043 C 
ATOM     36  C   UNL     1       0.540  -6.575   0.408  0.00  0.00    +0.010 C 
ATOM     37  C   UNL     1       0.084  -5.259   1.077  0.00  0.00    +0.037 C 
ENDBRANCH  22  28
ENDBRANCH  21  22
ENDBRANCH   1  21
TORSDOF 5
