REMARK  Name = ZINC13045628
REMARK  8 active torsions:
REMARK  status: ('A' for Active; 'I' for Inactive)
REMARK    1  A    between atoms: C_1  and  C_2
REMARK    2  A    between atoms: C_6  and  C_13
REMARK    3  A    between atoms: C_13  and  S_14
REMARK    4  A    between atoms: S_14  and  C_15
REMARK    5  A    between atoms: C_19  and  C_29
REMARK    6  A    between atoms: N_25  and  C_26
REMARK    7  A    between atoms: C_26  and  C_27
REMARK    8  A    between atoms: C_27  and  O_28
REMARK                            x       y       z     vdW  Elec       q    Type
REMARK                         _______ _______ _______ _____ _____    ______ ____
ROOT
ATOM      1  C   UNL     1       2.660  -2.731  -1.452  0.00  0.00    +0.173 A 
ATOM      2  N   UNL     1       2.694  -3.163  -0.216  0.00  0.00    -0.223 NA
ATOM      3  C   UNL     1       2.763  -4.484   0.072  0.00  0.00    +0.080 A 
ATOM      4  C   UNL     1       2.799  -4.943   1.392  0.00  0.00    +0.043 A 
ATOM      5  C   UNL     1       2.869  -6.308   1.639  0.00  0.00    +0.065 A 
ATOM      6  C   UNL     1       2.904  -7.221   0.577  0.00  0.00    +0.016 A 
ATOM      7  C   UNL     1       2.870  -6.785  -0.716  0.00  0.00    +0.016 A 
ATOM      8  C   UNL     1       2.800  -5.419  -0.987  0.00  0.00    +0.065 A 
ATOM      9  C   UNL     1       2.760  -4.906  -2.366  0.00  0.00    +0.262 A 
ATOM     10  O   UNL     1       2.789  -5.660  -3.321  0.00  0.00    -0.267 OA
ATOM     11  N   UNL     1       2.686  -3.565  -2.533  0.00  0.00    -0.285 N 
ENDROOT
BRANCH   5  12
ATOM     12  C   UNL     1       2.906  -6.801   3.034  0.00  0.00    +0.387 C 
ATOM     13  O   UNL     1       2.875  -6.013   3.957  0.00  0.00    -0.241 OA
ATOM     14  O   UNL     1       2.974  -8.124   3.279  0.00  0.00    -0.241 OA
ENDBRANCH   5  12
BRANCH   1  15
ATOM     15  S   UNL     1       2.570  -0.994  -1.733  0.00  0.00    -0.083 S 
BRANCH  15  16
ATOM     16  C   UNL     1       2.557  -0.400  -0.024  0.00  0.00    +0.113 C 
BRANCH  16  22
ATOM     17  C   UNL     1      -2.555   3.853   0.047  0.00  0.00    +0.044 C 
ATOM     18  C   UNL     1      -1.231   3.133   0.031  0.00  0.00    -0.047 A 
ATOM     19  C   UNL     1      -1.204   1.746   0.017  0.00  0.00    +0.004 A 
ATOM     20  C   UNL     1      -0.013   1.076   0.008  0.00  0.00    +0.012 A 
ATOM     21  C   UNL     1       1.187   1.794   0.000  0.00  0.00    +0.022 A 
ATOM     22  C   UNL     1       2.481   1.105  -0.016  0.00  0.00    -0.020 A 
ATOM     23  C   UNL     1       3.609   1.860  -0.024  0.00  0.00    +0.097 A 
ATOM     24  C   UNL     1       3.510   3.269  -0.016  0.00  0.00    +0.338 A 
ATOM     25  O   UNL     1       4.530   3.935  -0.023  0.00  0.00    -0.245 OA
ATOM     26  O   UNL     1       2.322   3.892  -0.001  0.00  0.00    -0.422 OA
ATOM     27  C   UNL     1       1.163   3.200   0.008  0.00  0.00    +0.140 A 
ATOM     28  C   UNL     1      -0.059   3.860   0.023  0.00  0.00    +0.050 A 
ENDBRANCH  16  22
ENDBRANCH  15  16
ENDBRANCH   1  15
BRANCH  11  29
ATOM     29  C   UNL     1       2.639  -3.003  -3.885  0.00  0.00    +0.155 C 
BRANCH  29  30
ATOM     30  C   UNL     1       4.063  -2.736  -4.377  0.00  0.00    +0.177 C 
BRANCH  30  31
ATOM     31  O   UNL     1       4.763  -3.976  -4.506  0.00  0.00    -0.393 OA
ATOM     32  H   UNL     1       5.675  -3.882  -4.815  0.00  0.00    +0.209 HD
ENDBRANCH  30  31
ENDBRANCH  29  30
ENDBRANCH  11  29
TORSDOF 7
