REMARK  Name = ZINC05258657
REMARK  4 active torsions:
REMARK  status: ('A' for Active; 'I' for Inactive)
REMARK    1  A    between atoms: C_8  and  C_10
REMARK    2  A    between atoms: C_10  and  C_19
REMARK    3  A    between atoms: C_11  and  C_12
REMARK    4  A    between atoms: C_15  and  O_18
REMARK                            x       y       z     vdW  Elec       q    Type
REMARK                         _______ _______ _______ _____ _____    ______ ____
ROOT
ATOM      1  C   UNL     1      -1.663   7.231   0.418  0.00  0.00    +0.040 C 
ATOM      2  C   UNL     1      -0.860   8.188  -0.125  0.00  0.00    +0.021 C 
ENDROOT
BRANCH   1  10
ATOM      3  C   UNL     1       1.613   2.028   0.165  0.00  0.00    +0.002 A 
ATOM      4  C   UNL     1       0.606   1.272   0.750  0.00  0.00    +0.001 A 
ATOM      5  C   UNL     1      -0.580   1.885   1.109  0.00  0.00    +0.017 A 
ATOM      6  C   UNL     1      -0.737   3.232   0.891  0.00  0.00    +0.040 A 
ATOM      7  C   UNL     1       0.270   4.029   0.297  0.00  0.00    +0.079 A 
ATOM      8  C   UNL     1       1.466   3.360  -0.060  0.00  0.00    +0.029 A 
ATOM      9  N   UNL     1      -0.032   5.333   0.143  0.00  0.00    -0.239 NA
ATOM     10  C   UNL     1      -1.188   5.840   0.518  0.00  0.00    +0.112 A 
ATOM     11  S   UNL     1      -2.033   4.411   1.181  0.00  0.00    -0.067 S 
ENDBRANCH   1  10
BRANCH   1  12
ATOM     12  C   UNL     1      -3.008   7.588   0.906  0.00  0.00    +0.112 A 
ATOM     13  N   UNL     1      -3.554   8.780   1.024  0.00  0.00    -0.239 NA
ATOM     14  C   UNL     1      -4.806   8.959   1.489  0.00  0.00    +0.079 A 
ATOM     15  C   UNL     1      -5.508  10.176   1.665  0.00  0.00    +0.029 A 
ATOM     16  C   UNL     1      -6.779  10.183   2.148  0.00  0.00    +0.002 A 
ATOM     17  C   UNL     1      -7.436   9.009   2.489  0.00  0.00    +0.001 A 
ATOM     18  C   UNL     1      -6.786   7.799   2.333  0.00  0.00    +0.017 A 
ATOM     19  C   UNL     1      -5.503   7.780   1.845  0.00  0.00    +0.040 A 
ATOM     20  S   UNL     1      -4.314   6.511   1.479  0.00  0.00    -0.067 S 
ENDBRANCH   1  12
BRANCH   2  21
ATOM     21  C   UNL     1      -1.399   9.523  -0.411  0.00  0.00    -0.024 A 
ATOM     22  C   UNL     1      -2.671   9.660  -0.980  0.00  0.00    +0.011 A 
ATOM     23  C   UNL     1      -3.174  10.915  -1.241  0.00  0.00    +0.046 A 
ATOM     24  C   UNL     1      -2.416  12.044  -0.953  0.00  0.00    +0.117 A 
ATOM     25  C   UNL     1      -1.150  11.914  -0.393  0.00  0.00    +0.046 A 
ATOM     26  C   UNL     1      -0.640  10.664  -0.122  0.00  0.00    +0.011 A 
BRANCH  24  27
ATOM     27  O   UNL     1      -2.915  13.279  -1.218  0.00  0.00    -0.507 OA
ATOM     28  H   UNL     1      -2.705  13.606  -2.103  0.00  0.00    +0.292 HD
ENDBRANCH  24  27
ENDBRANCH   2  21
TORSDOF 4
