REMARK  Name = ZINC43594753
REMARK  3 active torsions:
REMARK  status: ('A' for Active; 'I' for Inactive)
REMARK    1  A    between atoms: C_10  and  C_12
REMARK    2  A    between atoms: C_15  and  C_17
REMARK    3  A    between atoms: C_17  and  C_18
REMARK                            x       y       z     vdW  Elec       q    Type
REMARK                         _______ _______ _______ _____ _____    ______ ____
ROOT
ATOM      1  C   UNL     1      -0.017   1.375   0.010  0.00  0.00    +0.000 A 
ATOM      2  C   UNL     1       1.173   2.079   0.002  0.00  0.00    +0.000 A 
ATOM      3  C   UNL     1       2.372   1.396  -0.007  0.00  0.00    +0.006 A 
ATOM      4  C   UNL     1       2.392   0.008  -0.013  0.00  0.00    -0.013 A 
ATOM      5  C   UNL     1       1.208  -0.695  -0.015  0.00  0.00    -0.040 A 
ATOM      6  C   UNL     1       0.002  -0.004   0.002  0.00  0.00    +0.004 A 
ATOM      7  C   UNL     1       1.151  -2.199  -0.052  0.00  0.00    +0.054 C 
ATOM      8  C   UNL     1       2.474  -2.806   0.412  0.00  0.00    +0.113 C 
ATOM      9  N   UNL     1       3.563  -2.106  -0.289  0.00  0.00    -0.284 N 
ATOM     10  C   UNL     1       3.736  -0.677  -0.009  0.00  0.00    +0.220 C 
ATOM     11  C   UNL     1       4.370  -2.753  -1.153  0.00  0.00    +0.215 C 
ATOM     12  O   UNL     1       5.260  -2.153  -1.717  0.00  0.00    -0.276 OA
ENDROOT
BRANCH  10  13
ATOM     13  C   UNL     1       4.382  -0.505   1.342  0.00  0.00    +0.380 C 
ATOM     14  O   UNL     1       4.187  -1.328   2.220  0.00  0.00    -0.244 OA
ATOM     15  O   UNL     1       5.098   0.458   1.557  0.00  0.00    -0.244 OA
ENDBRANCH  10  13
BRANCH  11  16
ATOM     16  C   UNL     1       4.166  -4.222  -1.419  0.00  0.00    +0.080 C 
BRANCH  16  17
ATOM     17  C   UNL     1       5.207  -4.707  -2.430  0.00  0.00    -0.063 C 
ATOM     18  C   UNL     1       5.048  -6.228  -2.679  0.00  0.00    -0.017 C 
ATOM     19  C   UNL     1       5.680  -6.382  -4.088  0.00  0.00    -0.021 C 
ATOM     20  C   UNL     1       5.268  -5.075  -4.798  0.00  0.00    -0.082 C 
ATOM     21  N   UNL     1       4.975  -4.080  -3.748  0.00  0.00    +0.381 N 
ATOM     22  H   UNL     1       4.012  -3.785  -3.819  0.00  0.00    -0.086 HD
ATOM     23  H   UNL     1       5.582  -3.281  -3.856  0.00  0.00    -0.086 HD
ENDBRANCH  16  17
ENDBRANCH  11  16
TORSDOF 3
