REMARK  Name = ZINC20310453
REMARK  13 active torsions:
REMARK  status: ('A' for Active; 'I' for Inactive)
REMARK    1  A    between atoms: C_1  and  C_2
REMARK    2  A    between atoms: C_2  and  O_4
REMARK    3  A    between atoms: O_4  and  C_5
REMARK    4  A    between atoms: C_5  and  C_6
REMARK    5  A    between atoms: C_6  and  C_8
REMARK    6  A    between atoms: C_8  and  O_36
REMARK    7  A    between atoms: C_13  and  C_35
REMARK    8  A    between atoms: C_15  and  C_31
REMARK    9  A    between atoms: C_29  and  C_30
REMARK   10  A    between atoms: C_31  and  O_33
REMARK   11  A    between atoms: O_33  and  C_34
REMARK   12  A    between atoms: O_36  and  C_37
REMARK   13  A    between atoms: C_37  and  C_39
REMARK                            x       y       z     vdW  Elec       q    Type
REMARK                         _______ _______ _______ _____ _____    ______ ____
ROOT
ATOM      1  C   UNL     1      -1.425   2.373  -0.048  0.00  0.00    +0.180 C 
ATOM      2  C   UNL     1      -0.742   0.988  -0.123  0.00  0.00    +0.057 C 
ATOM      3  C   UNL     1      -0.111   0.734   1.270  0.00  0.00    +0.009 C 
ATOM      4  C   UNL     1      -0.940   1.626   2.208  0.00  0.00    +0.003 C 
ATOM      5  C   UNL     1      -1.127   2.908   1.354  0.00  0.00    +0.019 C 
ATOM      6  C   UNL     1      -2.247   3.740   1.956  0.00  0.00    +0.026 C 
ATOM      7  C   UNL     1      -2.165   3.615   3.484  0.00  0.00    +0.103 C 
ATOM      8  C   UNL     1      -0.713   3.389   3.915  0.00  0.00    +0.020 C 
ATOM      9  C   UNL     1      -0.233   2.012   3.488  0.00  0.00    -0.002 C 
ATOM     10  C   UNL     1      -0.519   0.979   4.580  0.00  0.00    +0.008 C 
ATOM     11  C   UNL     1       0.407   1.288   5.761  0.00  0.00    +0.032 C 
ATOM     12  C   UNL     1       0.148   2.698   6.218  0.00  0.00    -0.056 C 
ATOM     13  C   UNL     1       0.535   3.044   7.463  0.00  0.00    +0.051 C 
ATOM     14  C   UNL     1       0.265   4.455   7.848  0.00  0.00    +0.179 C 
ATOM     15  O   UNL     1      -0.117   4.770   8.959  0.00  0.00    -0.288 OA
ATOM     16  C   UNL     1       0.498   5.453   6.770  0.00  0.00    +0.047 C 
ATOM     17  C   UNL     1       0.116   5.077   5.536  0.00  0.00    -0.012 C 
ATOM     18  C   UNL     1      -0.524   3.721   5.367  0.00  0.00    +0.012 C 
ATOM     19  C   UNL     1      -1.932   3.882   5.943  0.00  0.00    +0.020 C 
ATOM     20  C   UNL     1       0.172   3.716   1.339  0.00  0.00    +0.016 C 
ENDROOT
BRANCH   1  21
ATOM     21  C   UNL     1      -0.846   3.295  -1.091  0.00  0.00    +0.214 C 
ATOM     22  O   UNL     1       0.278   3.119  -1.496  0.00  0.00    -0.289 OA
BRANCH  21  23
ATOM     23  C   UNL     1      -1.671   4.436  -1.627  0.00  0.00    +0.310 C 
BRANCH  23  24
ATOM     24  O   UNL     1      -0.941   5.102  -2.692  0.00  0.00    -0.457 OA
BRANCH  24  26
ATOM     25  C   UNL     1      -0.845   6.888  -4.394  0.00  0.00    +0.136 C 
ATOM     26  C   UNL     1      -1.541   6.148  -3.281  0.00  0.00    +0.304 C 
ATOM     27  O   UNL     1      -2.640   6.497  -2.918  0.00  0.00    -0.251 OA
ENDBRANCH  24  26
ENDBRANCH  23  24
ENDBRANCH  21  23
ENDBRANCH   1  21
BRANCH   7  28
ATOM     28  C   UNL     1      -3.008   2.451   3.937  0.00  0.00    +0.310 C 
ATOM     29  O   UNL     1      -2.630   1.320   3.742  0.00  0.00    -0.251 OA
BRANCH  28  30
ATOM     30  O   UNL     1      -4.178   2.671   4.556  0.00  0.00    -0.468 OA
ATOM     31  C   UNL     1      -4.937   1.502   4.964  0.00  0.00    +0.280 C 
ENDBRANCH  28  30
ENDBRANCH   7  28
BRANCH   1  32
ATOM     32  O   UNL     1      -2.857   2.236  -0.241  0.00  0.00    -0.450 OA
BRANCH  32  33
ATOM     33  C   UNL     1      -3.267   1.679  -1.391  0.00  0.00    +0.305 C 
ATOM     34  O   UNL     1      -2.456   1.251  -2.178  0.00  0.00    -0.251 OA
ATOM     35  C   UNL     1      -4.739   1.587  -1.701  0.00  0.00    +0.136 C 
ENDBRANCH  32  33
ENDBRANCH   1  32
TORSDOF 8
