REMARK  Name = ZINC32072569
REMARK  8 active torsions:
REMARK  status: ('A' for Active; 'I' for Inactive)
REMARK    1  A    between atoms: C_1  and  C_2
REMARK    2  A    between atoms: C_3  and  C_26
REMARK    3  A    between atoms: C_8  and  O_25
REMARK    4  A    between atoms: C_10  and  C_12
REMARK    5  A    between atoms: N_14  and  C_15
REMARK    6  A    between atoms: C_20  and  C_21
REMARK    7  A    between atoms: C_29  and  O_32
REMARK    8  A    between atoms: O_32  and  C_33
REMARK                            x       y       z     vdW  Elec       q    Type
REMARK                         _______ _______ _______ _____ _____    ______ ____
ROOT
ATOM      1  C   UNL     1       0.609   1.550   0.399  0.00  0.00    +0.050 C 
ATOM      2  C   UNL     1       0.483   0.061   0.209  0.00  0.00    +0.021 A 
ATOM      3  C   UNL     1       0.456  -0.621  -1.024  0.00  0.00    +0.098 A 
ATOM      4  N   UNL     1       0.337  -1.914  -0.783  0.00  0.00    -0.168 NA
ATOM      5  N   UNL     1       0.287  -2.098   0.594  0.00  0.00    -0.233 N 
ATOM      6  C   UNL     1       0.382  -0.866   1.192  0.00  0.00    +0.159 A 
ATOM      7  N   UNL     1       0.360  -0.721   2.551  0.00  0.00    -0.198 NA
ATOM      8  C   UNL     1       0.580  -1.769   3.290  0.00  0.00    +0.191 C 
ATOM      9  C   UNL     1       0.890  -3.119   2.712  0.00  0.00    +0.131 C 
ATOM     10  C   UNL     1       0.167  -3.333   1.374  0.00  0.00    +0.204 C 
ENDROOT
BRANCH   3  11
ATOM     11  C   UNL     1       0.544   0.008  -2.366  0.00  0.00    +0.003 A 
ATOM     12  C   UNL     1       1.448   1.044  -2.593  0.00  0.00    +0.013 A 
ATOM     13  C   UNL     1       1.529   1.626  -3.841  0.00  0.00    +0.046 A 
ATOM     14  C   UNL     1       0.710   1.181  -4.870  0.00  0.00    +0.120 A 
ATOM     15  C   UNL     1      -0.191   0.149  -4.646  0.00  0.00    +0.046 A 
ATOM     16  C   UNL     1      -0.272  -0.441  -3.402  0.00  0.00    +0.013 A 
BRANCH  14  17
ATOM     17  O   UNL     1       0.791   1.756  -6.098  0.00  0.00    -0.495 OA
ATOM     18  C   UNL     1      -0.080   1.249  -7.111  0.00  0.00    +0.277 C 
ENDBRANCH  14  17
ENDBRANCH   3  11
BRANCH  10  19
ATOM     19  C   UNL     1      -1.288  -3.646   1.610  0.00  0.00    +0.242 C 
ATOM     20  O   UNL     1      -2.146  -2.910   1.171  0.00  0.00    -0.273 OA
ATOM     21  N   UNL     1      -1.636  -4.744   2.310  0.00  0.00    -0.283 N 
ATOM     22  H   UNL     1      -0.951  -5.295   2.720  0.00  0.00    +0.155 HD
BRANCH  21  23
ATOM     23  C   UNL     1      -2.985  -5.088   2.446  0.00  0.00    +0.045 A 
ATOM     24  C   UNL     1      -3.952  -4.095   2.532  0.00  0.00    +0.024 A 
ATOM     25  C   UNL     1      -5.283  -4.439   2.666  0.00  0.00    +0.002 A 
ATOM     26  C   UNL     1      -5.653  -5.771   2.714  0.00  0.00    +0.001 A 
ATOM     27  C   UNL     1      -4.693  -6.762   2.629  0.00  0.00    +0.014 A 
ATOM     28  C   UNL     1      -3.361  -6.425   2.488  0.00  0.00    +0.076 A 
BRANCH  28  29
ATOM     29  C   UNL     1      -2.315  -7.506   2.388  0.00  0.00    +0.419 C 
ATOM     30  F   UNL     1      -2.933  -8.759   2.455  0.00  0.00    -0.166 F 
ATOM     31  F   UNL     1      -1.635  -7.385   1.172  0.00  0.00    -0.166 F 
ATOM     32  F   UNL     1      -1.408  -7.376   3.445  0.00  0.00    -0.166 F 
ENDBRANCH  28  29
ENDBRANCH  21  23
ENDBRANCH  10  19
BRANCH   8  33
ATOM     33  O   UNL     1       0.527  -1.637   4.631  0.00  0.00    -0.495 OA
ATOM     34  H   UNL     1       0.323  -0.741   4.931  0.00  0.00    +0.293 HD
ENDBRANCH   8  33
TORSDOF 6
