REMARK  Name = ZINC01803969
REMARK  8 active torsions:
REMARK  status: ('A' for Active; 'I' for Inactive)
REMARK    1  A    between atoms: C_1  and  C_2
REMARK    2  A    between atoms: C_2  and  C_3
REMARK    3  A    between atoms: C_3  and  C_19
REMARK    4  A    between atoms: C_4  and  C_5
REMARK    5  A    between atoms: N_6  and  C_17
REMARK    6  A    between atoms: C_17  and  C_18
REMARK    7  A    between atoms: N_21  and  C_32
REMARK    8  A    between atoms: C_32  and  C_33
REMARK                            x       y       z     vdW  Elec       q    Type
REMARK                         _______ _______ _______ _____ _____    ______ ____
ROOT
ATOM      1  C   UNL     1       0.709  -0.312   1.111  0.00  0.00    -0.043 C 
ATOM      2  C   UNL     1      -0.239  -0.793   2.001  0.00  0.00    +0.037 C 
ENDROOT
BRANCH   1   3
ATOM      3  C   UNL     1       2.034  -0.702   1.232  0.00  0.00    +0.034 C 
ATOM      4  C   UNL     1       2.629  -1.475   0.232  0.00  0.00    +0.073 C 
ATOM      5  N   UNL     1       3.912  -1.850   0.106  0.00  0.00    -0.294 N 
ATOM      6  C   UNL     1       4.329  -2.615  -0.947  0.00  0.00    +0.050 A 
ATOM      7  C   UNL     1       5.652  -3.078  -1.197  0.00  0.00    +0.027 A 
ATOM      8  C   UNL     1       5.964  -3.830  -2.266  0.00  0.00    +0.032 A 
ATOM      9  C   UNL     1       4.983  -4.213  -3.223  0.00  0.00    +0.101 A 
ATOM     10  C   UNL     1       3.610  -3.761  -3.008  0.00  0.00    +0.115 A 
ATOM     11  C   UNL     1       3.346  -2.974  -1.866  0.00  0.00    +0.063 A 
ATOM     12  S   UNL     1       1.878  -2.226  -1.204  0.00  0.00    -0.070 S 
ATOM     13  N   UNL     1       2.772  -4.174  -3.960  0.00  0.00    -0.190 NA
ATOM     14  S   UNL     1       3.665  -5.032  -4.986  0.00  0.00    +0.117 S 
ATOM     15  N   UNL     1       5.129  -4.946  -4.324  0.00  0.00    -0.191 NA
BRANCH   5  16
ATOM     16  C   UNL     1       4.885  -1.429   1.117  0.00  0.00    +0.108 C 
ATOM     17  C   UNL     1       4.950  -2.478   2.229  0.00  0.00    +0.025 C 
ENDBRANCH   5  16
ENDBRANCH   1   3
BRANCH   2  18
ATOM     18  C   UNL     1       0.157  -1.573   3.090  0.00  0.00    +0.081 A 
ATOM     19  N   UNL     1      -0.584  -2.041   4.107  0.00  0.00    -0.335 N 
ATOM     20  C   UNL     1      -0.029  -2.798   5.101  0.00  0.00    +0.059 A 
ATOM     21  C   UNL     1      -0.699  -3.352   6.229  0.00  0.00    +0.029 A 
ATOM     22  C   UNL     1      -0.063  -4.087   7.156  0.00  0.00    +0.033 A 
ATOM     23  C   UNL     1       1.330  -4.359   7.068  0.00  0.00    +0.101 A 
ATOM     24  C   UNL     1       2.060  -3.811   5.927  0.00  0.00    +0.116 A 
ATOM     25  C   UNL     1       1.335  -3.048   4.987  0.00  0.00    +0.066 A 
ATOM     26  S   UNL     1       1.778  -2.212   3.483  0.00  0.00    -0.067 S 
ATOM     27  N   UNL     1       3.356  -4.125   5.941  0.00  0.00    -0.190 NA
ATOM     28  S   UNL     1       3.578  -5.012   7.264  0.00  0.00    +0.117 S 
ATOM     29  N   UNL     1       2.100  -5.063   7.896  0.00  0.00    -0.191 NA
BRANCH  19  30
ATOM     30  C   UNL     1      -2.015  -1.732   4.154  0.00  0.00    +0.119 C 
ATOM     31  C   UNL     1      -2.796  -2.822   3.415  0.00  0.00    +0.027 C 
ENDBRANCH  19  30
ENDBRANCH   2  18
BRANCH   1  33
ATOM     32  C   UNL     1       0.585   2.073   0.444  0.00  0.00    +0.009 C 
ATOM     33  C   UNL     1       0.300   0.633   0.011  0.00  0.00    +0.032 C 
ENDBRANCH   1  33
TORSDOF 5
