REMARK  Name = ZINC13498894
REMARK  11 active torsions:
REMARK  status: ('A' for Active; 'I' for Inactive)
REMARK    1  A    between atoms: C_1  and  C_2
REMARK    2  A    between atoms: C_6  and  C_15
REMARK    3  A    between atoms: C_13  and  C_14
REMARK    4  A    between atoms: C_15  and  N_75
REMARK    5  A    between atoms: C_16  and  N_75
REMARK    6  A    between atoms: C_21  and  C_23
REMARK    7  A    between atoms: C_21  and  C_34
REMARK    8  A    between atoms: C_21  and  N_75
REMARK    9  A    between atoms: N_27  and  C_28
REMARK   10  A    between atoms: C_34  and  C_35
REMARK   11  A    between atoms: C_34  and  C_36
REMARK                            x       y       z     vdW  Elec       q    Type
REMARK                         _______ _______ _______ _____ _____    ______ ____
ROOT
ATOM      1  N   UNL     1      -5.473   3.728  -0.967  0.00  0.00    +0.391 N 
ATOM      2  H   UNL     1      -5.626   2.712  -0.973  0.00  0.00    -0.080 HD
ENDROOT
BRANCH   1   3
ATOM      3  C   UNL     1      -4.321   4.045  -1.837  0.00  0.00    -0.067 C 
ATOM      4  C   UNL     1      -4.517   3.371  -3.211  0.00  0.00    -0.015 C 
ATOM      5  C   UNL     1      -3.095   2.902  -3.609  0.00  0.00    -0.002 C 
ATOM      6  C   UNL     1      -2.498   2.431  -2.260  0.00  0.00    -0.002 C 
ATOM      7  C   UNL     1      -3.038   3.447  -1.232  0.00  0.00    -0.015 C 
ENDBRANCH   1   3
BRANCH   1   8
ATOM      8  C   UNL     1      -5.194   4.162   0.419  0.00  0.00    -0.036 C 
BRANCH   8  14
ATOM      9  C   UNL     1      -5.768  -1.838   4.811  0.00  0.00    +0.044 C 
ATOM     10  C   UNL     1      -6.359  -0.591   4.205  0.00  0.00    -0.047 A 
ATOM     11  C   UNL     1      -5.609   0.170   3.354  0.00  0.00    +0.013 A 
ATOM     12  C   UNL     1      -6.157   1.327   2.793  0.00  0.00    -0.001 A 
ATOM     13  C   UNL     1      -5.381   2.166   1.877  0.00  0.00    +0.017 A 
ATOM     14  C   UNL     1      -5.965   3.276   1.363  0.00  0.00    +0.001 A 
ATOM     15  C   UNL     1      -7.293   3.607   1.711  0.00  0.00    +0.251 A 
ATOM     16  O   UNL     1      -7.799   4.609   1.237  0.00  0.00    -0.268 OA
ATOM     17  N   UNL     1      -8.013   2.843   2.550  0.00  0.00    -0.322 N 
ATOM     18  H   UNL     1      -8.923   3.099   2.768  0.00  0.00    +0.169 HD
ATOM     19  C   UNL     1      -7.479   1.698   3.102  0.00  0.00    +0.049 A 
ATOM     20  C   UNL     1      -8.222   0.911   3.975  0.00  0.00    +0.030 A 
ATOM     21  C   UNL     1      -7.661  -0.226   4.517  0.00  0.00    -0.046 A 
ATOM     22  C   UNL     1      -8.471  -1.081   5.458  0.00  0.00    +0.044 C 
ENDBRANCH   8  14
ENDBRANCH   1   8
BRANCH   1  23
ATOM     23  C   UNL     1      -6.688   4.401  -1.472  0.00  0.00    +0.006 C 
BRANCH  23  24
ATOM     24  C   UNL     1      -6.359   5.791  -1.952  0.00  0.00    +0.139 A 
ATOM     25  N   UNL     1      -5.461   6.116  -2.850  0.00  0.00    -0.115 NA
ATOM     26  N   UNL     1      -5.480   7.397  -2.986  0.00  0.00    -0.023 NA
ATOM     27  N   UNL     1      -6.366   7.897  -2.197  0.00  0.00    -0.044 NA
ATOM     28  N   UNL     1      -6.933   6.938  -1.547  0.00  0.00    -0.228 N 
BRANCH  28  29
ATOM     29  C   UNL     1      -8.000   7.073  -0.552  0.00  0.00    +0.111 C 
ATOM     30  C   UNL     1      -9.223   7.725  -1.200  0.00  0.00    +0.027 C 
ATOM     31  C   UNL     1     -10.337   7.866  -0.161  0.00  0.00    +0.002 C 
ATOM     32  C   UNL     1      -9.847   8.738   0.997  0.00  0.00    +0.000 C 
ATOM     33  C   UNL     1      -8.624   8.085   1.645  0.00  0.00    +0.002 C 
ATOM     34  C   UNL     1      -7.510   7.945   0.606  0.00  0.00    +0.027 C 
ENDBRANCH  28  29
ENDBRANCH  23  24
BRANCH  23  35
ATOM     35  C   UNL     1      -7.254   3.581  -2.633  0.00  0.00    -0.024 C 
ATOM     36  C   UNL     1      -7.442   2.129  -2.188  0.00  0.00    +0.006 C 
ATOM     37  C   UNL     1      -8.604   4.163  -3.058  0.00  0.00    +0.006 C 
ENDBRANCH  23  35
ENDBRANCH   1  23
TORSDOF 7
