REMARK  Name = ZINC66248377
REMARK  6 active torsions:
REMARK  status: ('A' for Active; 'I' for Inactive)
REMARK    1  A    between atoms: C_1  and  C_2
REMARK    2  A    between atoms: C_2  and  N_3
REMARK    3  A    between atoms: C_5  and  S_8
REMARK    4  A    between atoms: S_8  and  N_11
REMARK    5  A    between atoms: N_11  and  C_12
REMARK    6  A    between atoms: N_16  and  C_17
REMARK                            x       y       z     vdW  Elec       q    Type
REMARK                         _______ _______ _______ _____ _____    ______ ____
ROOT
ATOM      1  N   UNL     1      -4.203  -4.144  -0.684  0.00  0.00    -0.200 N 
ATOM      2  H   UNL     1      -3.878  -4.885  -1.219  0.00  0.00    +0.175 HD
ENDROOT
BRANCH   1   3
ATOM      3  C   UNL     1      -4.554  -4.348   0.648  0.00  0.00    +0.136 A 
ATOM      4  C   UNL     1      -5.027  -3.405   1.509  0.00  0.00    +0.066 A 
ATOM      5  C   UNL     1      -5.253  -4.026   2.741  0.00  0.00    +0.136 A 
ATOM      6  N   UNL     1      -4.931  -5.290   2.630  0.00  0.00    -0.178 NA
ATOM      7  N   UNL     1      -4.492  -5.520   1.320  0.00  0.00    -0.246 N 
BRANCH   7   8
ATOM      8  C   UNL     1      -4.043  -6.804   0.775  0.00  0.00    +0.109 C 
ATOM      9  C   UNL     1      -5.177  -7.825   0.875  0.00  0.00    +0.027 C 
ATOM     10  C   UNL     1      -4.708  -9.166   0.305  0.00  0.00    +0.002 C 
ATOM     11  C   UNL     1      -3.501  -9.664   1.103  0.00  0.00    +0.000 C 
ATOM     12  C   UNL     1      -2.366  -8.642   1.004  0.00  0.00    +0.002 C 
ATOM     13  C   UNL     1      -2.836  -7.302   1.573  0.00  0.00    +0.027 C 
ENDBRANCH   7   8
ENDBRANCH   1   3
BRANCH   1  14
ATOM     14  S   UNL     1      -4.340  -2.636  -1.354  0.00  0.00    +0.076 S 
ATOM     15  O   UNL     1      -5.638  -2.161  -1.024  0.00  0.00    -0.150 OA
ATOM     16  O   UNL     1      -3.887  -2.746  -2.696  0.00  0.00    -0.150 OA
BRANCH  14  19
ATOM     17  N   UNL     1      -1.372  -0.511   0.012  0.00  0.00    -0.270 N 
ATOM     18  C   UNL     1      -1.907  -1.373  -0.878  0.00  0.00    +0.137 A 
ATOM     19  C   UNL     1      -3.194  -1.589  -0.520  0.00  0.00    +0.146 A 
ATOM     20  C   UNL     1      -3.455  -0.834   0.628  0.00  0.00    +0.163 A 
ATOM     21  N   UNL     1      -2.361  -0.192   0.952  0.00  0.00    -0.178 NA
BRANCH  17  23
ATOM     22  C   UNL     1      -0.019   1.526   0.010  0.00  0.00    +0.029 C 
ATOM     23  C   UNL     1       0.002  -0.004   0.002  0.00  0.00    +0.140 C 
ENDBRANCH  17  23
ENDBRANCH  14  19
ENDBRANCH   1  14
TORSDOF 5
