REMARK  Name = ZINC16925354
REMARK  6 active torsions:
REMARK  status: ('A' for Active; 'I' for Inactive)
REMARK    1  A    between atoms: C_6  and  N_7
REMARK    2  A    between atoms: C_10  and  C_15
REMARK    3  A    between atoms: C_15  and  C_16
REMARK    4  A    between atoms: N_18  and  C_19
REMARK    5  A    between atoms: C_22  and  N_26
REMARK    6  A    between atoms: C_24  and  O_25
REMARK                            x       y       z     vdW  Elec       q    Type
REMARK                         _______ _______ _______ _____ _____    ______ ____
ROOT
ATOM      1  C   UNL     1       2.268   5.671   0.300  0.00  0.00    +0.120 C 
ENDROOT
BRANCH   1   5
ATOM      2  N   UNL     1       4.295   8.203   1.531  0.00  0.00    -0.200 N 
ATOM      3  C   UNL     1       3.730   7.719   0.436  0.00  0.00    +0.241 C 
ATOM      4  O   UNL     1       3.265   8.435  -0.425  0.00  0.00    -0.274 OA
ATOM      5  C   UNL     1       3.703   6.201   0.335  0.00  0.00    +0.151 C 
ATOM      6  S   UNL     1       4.538   5.764   1.911  0.00  0.00    -0.054 S 
ATOM      7  C   UNL     1       4.817   7.428   2.499  0.00  0.00    +0.286 C 
ATOM      8  O   UNL     1       5.353   7.778   3.533  0.00  0.00    -0.262 OA
BRANCH   2  14
ATOM      9  C   UNL     1       4.982  10.378   0.730  0.00  0.00    +0.025 A 
ATOM     10  C   UNL     1       5.034  11.750   0.885  0.00  0.00    +0.022 A 
ATOM     11  C   UNL     1       4.470  12.342   2.002  0.00  0.00    +0.041 A 
ATOM     12  C   UNL     1       3.848  11.564   2.962  0.00  0.00    +0.022 A 
ATOM     13  C   UNL     1       3.789  10.192   2.808  0.00  0.00    +0.025 A 
ATOM     14  C   UNL     1       4.354   9.595   1.689  0.00  0.00    +0.045 A 
ATOM     15 CL   UNL     1       4.543  14.066   2.197  0.00  0.00    -0.084 Cl
ENDBRANCH   2  14
ENDBRANCH   1   5
BRANCH   1  16
ATOM     16  C   UNL     1       2.290   4.169   0.175  0.00  0.00    +0.219 C 
ATOM     17  O   UNL     1       3.349   3.581   0.120  0.00  0.00    -0.275 OA
ATOM     18  N   UNL     1       1.133   3.480   0.125  0.00  0.00    -0.283 N 
ATOM     19  H   UNL     1       0.286   3.954   0.116  0.00  0.00    +0.155 HD
BRANCH  18  20
ATOM     20  C   UNL     1       1.152   2.080   0.086  0.00  0.00    +0.075 A 
ATOM     21  C   UNL     1       2.174   1.417  -0.579  0.00  0.00    +0.029 A 
ATOM     22  C   UNL     1       2.190   0.035  -0.616  0.00  0.00    +0.035 A 
ATOM     23  C   UNL     1       1.191  -0.689   0.008  0.00  0.00    +0.130 A 
ATOM     24  C   UNL     1       0.171  -0.035   0.674  0.00  0.00    +0.080 A 
ATOM     25  C   UNL     1       0.147   1.349   0.716  0.00  0.00    +0.140 A 
BRANCH  23  26
ATOM     26  N   UNL     1       1.215  -2.168  -0.036  0.00  0.00    +0.057 N 
ATOM     27  O   UNL     1       0.336  -2.808   0.514  0.00  0.00    -0.126 OA
ATOM     28  O   UNL     1       2.113  -2.746  -0.621  0.00  0.00    -0.126 OA
ENDBRANCH  23  26
BRANCH  25  29
ATOM     29  O   UNL     1      -0.859   1.994   1.364  0.00  0.00    -0.505 OA
ATOM     30  H   UNL     1      -0.678   2.166   2.299  0.00  0.00    +0.292 HD
ENDBRANCH  25  29
ENDBRANCH  18  20
ENDBRANCH   1  16
TORSDOF 6
