REMARK  Name = ZINC50700210
REMARK  4 active torsions:
REMARK  status: ('A' for Active; 'I' for Inactive)
REMARK    1  A    between atoms: C_3  and  N_8
REMARK    2  A    between atoms: C_9  and  C_11
REMARK    3  A    between atoms: C_13  and  N_19
REMARK    4  A    between atoms: C_14  and  N_18
REMARK                            x       y       z     vdW  Elec       q    Type
REMARK                         _______ _______ _______ _____ _____    ______ ____
ROOT
ATOM      1  C   UNL     1       4.882   4.114  -0.297  0.00  0.00    +0.041 A 
ATOM      2  C   UNL     1       4.999   5.503  -0.408  0.00  0.00    +0.047 A 
ATOM      3  C   UNL     1       6.244   6.086  -0.460  0.00  0.00    +0.149 A 
ATOM      4  C   UNL     1       7.388   5.295  -0.403  0.00  0.00    +0.074 A 
ATOM      5  C   UNL     1       7.276   3.911  -0.292  0.00  0.00    +0.065 A 
ATOM      6  C   UNL     1       6.033   3.322  -0.234  0.00  0.00    +0.035 A 
ATOM      7 CL   UNL     1       8.706   2.928  -0.222  0.00  0.00    -0.082 Cl
ENDROOT
BRANCH   1   9
ATOM      8  N   UNL     1       3.438   2.148  -0.128  0.00  0.00    -0.266 N 
ATOM      9  C   UNL     1       3.549   3.486  -0.241  0.00  0.00    +0.249 C 
ATOM     10  O   UNL     1       2.549   4.176  -0.296  0.00  0.00    -0.270 OA
ATOM     11  H   UNL     1       4.233   1.604  -0.011  0.00  0.00    +0.157 HD
BRANCH   8  14
ATOM     12  C   UNL     1       0.831  -0.427  -0.227  0.00  0.00    +0.025 A 
ATOM     13  C   UNL     1       2.084   0.159  -0.174  0.00  0.00    +0.045 A 
ATOM     14  C   UNL     1       2.183   1.545  -0.181  0.00  0.00    +0.125 A 
ATOM     15  N   UNL     1       1.096   2.299  -0.237  0.00  0.00    -0.239 NA
ATOM     16  C   UNL     1      -0.111   1.770  -0.287  0.00  0.00    +0.132 A 
ATOM     17  C   UNL     1      -0.284   0.399  -0.284  0.00  0.00    +0.059 A 
ATOM     18 CL   UNL     1      -1.879  -0.284  -0.351  0.00  0.00    -0.082 Cl
ENDBRANCH   8  14
ENDBRANCH   1   9
BRANCH   4  19
ATOM     19  N   UNL     1       8.645   5.888  -0.456  0.00  0.00    -0.355 N 
ATOM     20  H   UNL     1       8.725   6.844  -0.599  0.00  0.00    +0.142 HD
ATOM     21  H   UNL     1       9.442   5.345  -0.350  0.00  0.00    +0.142 HD
ENDBRANCH   4  19
BRANCH   3  22
ATOM     22  N   UNL     1       6.367   7.556  -0.577  0.00  0.00    +0.058 N 
ATOM     23  O   UNL     1       5.597   8.277   0.013  0.00  0.00    -0.126 OA
ATOM     24  O   UNL     1       7.239   8.037  -1.264  0.00  0.00    -0.126 OA
ENDBRANCH   3  22
TORSDOF 4
