REMARK  Name = ZINC06814995
REMARK  9 active torsions:
REMARK  status: ('A' for Active; 'I' for Inactive)
REMARK    1  A    between atoms: C_1  and  C_2
REMARK    2  A    between atoms: C_5  and  C_8
REMARK    3  A    between atoms: C_14  and  C_16
REMARK    4  A    between atoms: C_16  and  C_18
REMARK    5  A    between atoms: C_16  and  N_21
REMARK    6  A    between atoms: C_18  and  C_19
REMARK    7  A    between atoms: C_18  and  C_20
REMARK    8  A    between atoms: N_24  and  C_25
REMARK    9  A    between atoms: N_24  and  C_26
REMARK                            x       y       z     vdW  Elec       q    Type
REMARK                         _______ _______ _______ _____ _____    ______ ____
ROOT
ATOM      1  C   UNL     1      -2.036   8.043  -0.293  0.00  0.00    +0.134 A 
ATOM      2  N   UNL     1      -1.351   7.626   0.764  0.00  0.00    -0.140 NA
ATOM      3  N   UNL     1      -1.165   6.392   0.958  0.00  0.00    -0.125 NA
ATOM      4  C   UNL     1      -1.626   5.475   0.123  0.00  0.00    +0.188 A 
ATOM      5  S   UNL     1      -2.422   6.473  -1.058  0.00  0.00    -0.030 S 
ATOM      6  N   UNL     1      -1.511   4.091   0.178  0.00  0.00    -0.262 N 
ATOM      7  C   UNL     1      -0.843   3.511   1.194  0.00  0.00    +0.239 C 
ATOM      8  O   UNL     1      -0.342   4.196   2.061  0.00  0.00    -0.273 OA
ATOM      9  H   UNL     1      -1.912   3.543  -0.514  0.00  0.00    +0.157 HD
ENDROOT
BRANCH   1  14
ATOM     10  C   UNL     1      -3.381  13.388  -1.948  0.00  0.00    +0.044 C 
ATOM     11  C   UNL     1      -3.029  11.988  -1.515  0.00  0.00    -0.050 A 
ATOM     12  C   UNL     1      -2.295  11.789  -0.359  0.00  0.00    +0.004 A 
ATOM     13  C   UNL     1      -1.969  10.510   0.043  0.00  0.00    +0.011 A 
ATOM     14  C   UNL     1      -2.381   9.416  -0.719  0.00  0.00    +0.009 A 
ATOM     15  C   UNL     1      -3.116   9.624  -1.887  0.00  0.00    +0.011 A 
ATOM     16  C   UNL     1      -3.440  10.908  -2.275  0.00  0.00    +0.004 A 
ENDBRANCH   1  14
BRANCH   7  17
ATOM     17  C   UNL     1      -0.718   2.010   1.254  0.00  0.00    +0.163 C 
BRANCH  17  18
ATOM     18  N   UNL     1       0.048   1.631   2.445  0.00  0.00    -0.288 N 
ATOM     19  C   UNL     1      -0.121   0.412   2.994  0.00  0.00    +0.302 C 
ATOM     20  O   UNL     1      -0.976  -0.337   2.562  0.00  0.00    -0.253 OA
ATOM     21  N   UNL     1       0.658   0.023   4.022  0.00  0.00    -0.292 N 
ATOM     22  C   UNL     1       0.555  -1.342   4.544  0.00  0.00    +0.133 C 
ATOM     23  C   UNL     1       1.609   0.965   4.619  0.00  0.00    +0.133 C 
ATOM     24  H   UNL     1       0.675   2.257   2.837  0.00  0.00    +0.151 HD
ENDBRANCH  17  18
BRANCH  17  25
ATOM     25  C   UNL     1       0.004   1.508   0.003  0.00  0.00    +0.012 C 
ATOM     26  C   UNL     1       0.021  -0.022   0.003  0.00  0.00    +0.009 C 
ATOM     27  C   UNL     1       1.441   2.034  -0.003  0.00  0.00    +0.009 C 
ENDBRANCH  17  25
ENDBRANCH   7  17
TORSDOF 4
