REMARK  Name = ZINC34802342
REMARK  3 active torsions:
REMARK  status: ('A' for Active; 'I' for Inactive)
REMARK    1  A    between atoms: C_4  and  N_7
REMARK    2  A    between atoms: N_15  and  C_18
REMARK    3  A    between atoms: C_18  and  C_19
REMARK                            x       y       z     vdW  Elec       q    Type
REMARK                         _______ _______ _______ _____ _____    ______ ____
ROOT
ATOM      1  N   UNL     1       4.086  -1.897  -0.780  0.00  0.00    -0.181 N 
ATOM      2  C   UNL     1       3.852  -1.766   0.550  0.00  0.00    +0.242 A 
ATOM      3  N   UNL     1       4.688  -0.857   1.001  0.00  0.00    -0.092 NA
ATOM      4  N   UNL     1       5.427  -0.413   0.049  0.00  0.00    -0.021 NA
ATOM      5  N   UNL     1       5.128  -0.997  -1.061  0.00  0.00    -0.038 NA
ATOM      6  N   UNL     1       2.910  -2.457   1.291  0.00  0.00    -0.302 N 
ATOM      7  C   UNL     1       1.508  -2.014   1.335  0.00  0.00    +0.089 C 
ATOM      8  C   UNL     1       1.069  -1.935   2.801  0.00  0.00    -0.059 C 
ATOM      9  N   UNL     1       1.318  -3.225   3.456  0.00  0.00    +0.386 N 
ATOM     10  C   UNL     1       2.760  -3.499   3.489  0.00  0.00    -0.059 C 
ATOM     11  C   UNL     1       3.281  -3.660   2.053  0.00  0.00    +0.089 C 
ATOM     12  H   UNL     1       0.849  -3.957   2.943  0.00  0.00    -0.081 HD
ENDROOT
BRANCH   1  16
ATOM     13  C   UNL     1       2.146  -4.439  -3.454  0.00  0.00    +0.000 A 
ATOM     14  C   UNL     1       2.442  -3.141  -3.828  0.00  0.00    +0.002 A 
ATOM     15  C   UNL     1       3.085  -2.297  -2.943  0.00  0.00    +0.028 A 
ATOM     16  C   UNL     1       3.433  -2.752  -1.679  0.00  0.00    +0.071 A 
ATOM     17  C   UNL     1       3.134  -4.056  -1.307  0.00  0.00    +0.028 A 
ATOM     18  C   UNL     1       2.491  -4.896  -2.196  0.00  0.00    +0.002 A 
ENDBRANCH   1  16
BRANCH   9  19
ATOM     19  C   UNL     1       0.797  -3.184   4.829  0.00  0.00    -0.003 C 
BRANCH  19  20
ATOM     20  C   UNL     1       0.940  -4.544   5.461  0.00  0.00    +0.095 A 
ATOM     21  N   UNL     1       1.472  -5.512   4.768  0.00  0.00    -0.197 NA
ATOM     22  C   UNL     1       1.631  -6.749   5.263  0.00  0.00    +0.282 A 
ATOM     23  O   UNL     1       2.134  -7.629   4.583  0.00  0.00    -0.265 OA
ATOM     24  C   UNL     1       1.188  -7.029   6.648  0.00  0.00    +0.075 A 
ATOM     25  C   UNL     1       1.255  -8.283   7.397  0.00  0.00    -0.023 A 
ATOM     26  C   UNL     1       0.775  -8.268   8.658  0.00  0.00    -0.004 A 
ATOM     27  S   UNL     1       0.217  -6.605   8.914  0.00  0.00    -0.075 S 
ATOM     28  C   UNL     1       0.630  -5.940   7.323  0.00  0.00    +0.092 A 
ATOM     29  N   UNL     1       0.519  -4.724   6.730  0.00  0.00    -0.339 N 
ATOM     30  C   UNL     1       0.728  -9.410   9.626  0.00  0.00    +0.043 C 
ATOM     31  C   UNL     1       0.967 -10.713   8.849  0.00  0.00    +0.005 C 
ATOM     32  C   UNL     1       2.183 -10.524   7.937  0.00  0.00    +0.005 C 
ATOM     33  C   UNL     1       1.836  -9.562   6.800  0.00  0.00    +0.037 C 
ATOM     34  H   UNL     1       0.132  -3.981   7.219  0.00  0.00    +0.167 HD
ENDBRANCH  19  20
ENDBRANCH   9  19
TORSDOF 3
