REMARK  Name = ZINC01973461
REMARK  12 active torsions:
REMARK  status: ('A' for Active; 'I' for Inactive)
REMARK    1  A    between atoms: C_1  and  C_2
REMARK    2  A    between atoms: C_9  and  N_15
REMARK    3  A    between atoms: C_10  and  C_11
REMARK    4  A    between atoms: C_11  and  O_13
REMARK    5  A    between atoms: O_13  and  C_14
REMARK    6  A    between atoms: C_16  and  C_18
REMARK    7  A    between atoms: C_18  and  O_19
REMARK    8  A    between atoms: O_19  and  C_20
REMARK    9  A    between atoms: C_20  and  C_22
REMARK   10  A    between atoms: N_30  and  C_33
REMARK   11  A    between atoms: C_33  and  C_34
REMARK   12  A    between atoms: C_33  and  C_35
REMARK                            x       y       z     vdW  Elec       q    Type
REMARK                         _______ _______ _______ _____ _____    ______ ____
ROOT
ATOM      1  N   UNL     1       2.825  -2.279  -0.173  0.00  0.00    -0.277 N 
ATOM      2  C   UNL     1       3.750  -3.123  -0.670  0.00  0.00    +0.255 C 
ATOM      3  O   UNL     1       3.623  -4.320  -0.519  0.00  0.00    -0.272 OA
ATOM      4  H   UNL     1       2.927  -1.322  -0.294  0.00  0.00    +0.155 HD
ENDROOT
BRANCH   1  12
ATOM      5  C   UNL     1      -3.170  -5.494   3.690  0.00  0.00    +0.008 C 
ATOM      6  C   UNL     1      -2.051  -4.526   3.298  0.00  0.00    -0.009 C 
ATOM      7  C   UNL     1      -2.648  -3.301   2.600  0.00  0.00    +0.008 C 
ATOM      8  C   UNL     1      -1.576  -2.225   2.429  0.00  0.00    +0.037 C 
ATOM      9  C   UNL     1      -0.360  -2.847   1.753  0.00  0.00    -0.021 A 
ATOM     10  C   UNL     1      -0.184  -4.185   1.734  0.00  0.00    -0.004 A 
ATOM     11  S   UNL     1       1.334  -4.430   0.855  0.00  0.00    -0.077 S 
ATOM     12  C   UNL     1       1.728  -2.778   0.512  0.00  0.00    +0.086 A 
ATOM     13  C   UNL     1       0.680  -2.076   1.092  0.00  0.00    +0.091 A 
ATOM     14  C   UNL     1      -1.083  -5.223   2.331  0.00  0.00    +0.046 C 
BRANCH  13  15
ATOM     15  C   UNL     1       0.621  -0.614   1.034  0.00  0.00    +0.342 C 
ATOM     16  O   UNL     1       1.131   0.051   1.916  0.00  0.00    -0.245 OA
BRANCH  15  17
ATOM     17  O   UNL     1       0.002  -0.004   0.002  0.00  0.00    -0.464 OA
ATOM     18  C   UNL     1      -0.018   1.448   0.010  0.00  0.00    +0.280 C 
ENDBRANCH  15  17
ENDBRANCH  13  15
ENDBRANCH   1  12
BRANCH   2  19
ATOM     19  C   UNL     1       4.943  -2.580  -1.415  0.00  0.00    +0.328 C 
BRANCH  19  20
ATOM     20  O   UNL     1       5.785  -3.681  -1.847  0.00  0.00    -0.452 OA
BRANCH  20  21
ATOM     21  C   UNL     1       6.901  -3.365  -2.532  0.00  0.00    +0.340 C 
ATOM     22  O   UNL     1       7.163  -2.201  -2.761  0.00  0.00    -0.245 OA
BRANCH  21  23
ATOM     23  C   UNL     1       7.808  -4.434  -3.004  0.00  0.00    +0.060 A 
ATOM     24  C   UNL     1       7.508  -5.769  -2.735  0.00  0.00    +0.016 A 
ATOM     25  C   UNL     1       8.348  -6.777  -3.177  0.00  0.00    +0.014 A 
ATOM     26  C   UNL     1       9.498  -6.457  -3.883  0.00  0.00    +0.049 A 
ATOM     27  C   UNL     1       9.809  -5.109  -4.153  0.00  0.00    +0.050 A 
ATOM     28  C   UNL     1       8.966  -4.103  -3.715  0.00  0.00    +0.028 A 
ATOM     29  C   UNL     1      11.080  -5.131  -4.909  0.00  0.00    +0.254 C 
ATOM     30  O   UNL     1      11.674  -4.157  -5.325  0.00  0.00    -0.270 OA
ATOM     31  N   UNL     1      11.468  -6.410  -5.060  0.00  0.00    -0.232 N 
ATOM     32  C   UNL     1      10.592  -7.253  -4.484  0.00  0.00    +0.254 C 
ATOM     33  O   UNL     1      10.683  -8.464  -4.462  0.00  0.00    -0.270 OA
BRANCH  31  34
ATOM     34  C   UNL     1      12.686  -6.830  -5.758  0.00  0.00    +0.079 C 
ATOM     35  C   UNL     1      13.589  -7.598  -4.791  0.00  0.00    +0.028 C 
ATOM     36  C   UNL     1      12.313  -7.733  -6.935  0.00  0.00    +0.028 C 
ENDBRANCH  31  34
ENDBRANCH  21  23
ENDBRANCH  20  21
ENDBRANCH  19  20
ENDBRANCH   2  19
TORSDOF 8
