REMARK  Name = ZINC08716287
REMARK  8 active torsions:
REMARK  status: ('A' for Active; 'I' for Inactive)
REMARK    1  A    between atoms: C_1  and  C_2
REMARK    2  A    between atoms: C_9  and  C_14
REMARK    3  A    between atoms: C_14  and  O_16
REMARK    4  A    between atoms: O_16  and  C_17
REMARK    5  A    between atoms: C_17  and  C_19
REMARK    6  A    between atoms: C_17  and  C_20
REMARK    7  A    between atoms: N_22  and  C_23
REMARK    8  A    between atoms: C_28  and  N_29
REMARK                            x       y       z     vdW  Elec       q    Type
REMARK                         _______ _______ _______ _____ _____    ______ ____
ROOT
ATOM      1  O   UNL     1       1.343   2.005  -0.003  0.00  0.00    -0.449 OA
ENDROOT
BRANCH   1   2
ATOM      2  C   UNL     1       1.557   3.195   0.594  0.00  0.00    +0.340 C 
ATOM      3  O   UNL     1       0.631   3.796   1.102  0.00  0.00    -0.245 OA
BRANCH   2  11
ATOM      4  C   UNL     1       8.002   8.085   1.165  0.00  0.00    +0.029 C 
ATOM      5  C   UNL     1       6.747   7.324   0.730  0.00  0.00    +0.134 C 
ATOM      6  C   UNL     1       5.628   7.603   1.696  0.00  0.00    +0.230 C 
ATOM      7  O   UNL     1       5.654   8.645   2.317  0.00  0.00    -0.274 OA
ATOM      8  N   UNL     1       4.613   6.771   1.908  0.00  0.00    -0.284 N 
ATOM      9  C   UNL     1       4.410   5.542   1.283  0.00  0.00    +0.048 A 
ATOM     10  C   UNL     1       3.135   5.003   1.243  0.00  0.00    +0.039 A 
ATOM     11  C   UNL     1       2.915   3.767   0.630  0.00  0.00    +0.061 A 
ATOM     12  C   UNL     1       3.980   3.074   0.045  0.00  0.00    +0.016 A 
ATOM     13  C   UNL     1       5.247   3.613   0.079  0.00  0.00    +0.017 A 
ATOM     14  C   UNL     1       5.465   4.840   0.691  0.00  0.00    +0.030 A 
ATOM     15  S   UNL     1       7.087   5.538   0.727  0.00  0.00    -0.111 S 
ATOM     16  H   UNL     1       3.949   7.046   2.560  0.00  0.00    +0.155 HD
ENDBRANCH   2  11
ENDBRANCH   1   2
BRANCH   1  17
ATOM     17  C   UNL     1      -0.019   1.503  -0.000  0.00  0.00    +0.259 C 
ATOM     18  C   UNL     1      -0.748   1.999  -1.251  0.00  0.00    +0.062 C 
BRANCH  17  19
ATOM     19  C   UNL     1       0.001  -0.004   0.005  0.00  0.00    +0.258 C 
ATOM     20  O   UNL     1       1.060  -0.596   0.006  0.00  0.00    -0.271 OA
ATOM     21  N   UNL     1      -1.157  -0.694   0.008  0.00  0.00    -0.281 N 
ATOM     22  H   UNL     1      -2.001  -0.223   0.088  0.00  0.00    +0.155 HD
BRANCH  21  23
ATOM     23  C   UNL     1      -1.141  -2.088  -0.105  0.00  0.00    +0.064 A 
ATOM     24  C   UNL     1      -0.073  -2.724  -0.724  0.00  0.00    +0.025 A 
ATOM     25  C   UNL     1      -0.058  -4.101  -0.830  0.00  0.00    +0.002 A 
ATOM     26  C   UNL     1      -1.110  -4.846  -0.328  0.00  0.00    +0.002 A 
ATOM     27  C   UNL     1      -2.176  -4.215   0.285  0.00  0.00    +0.034 A 
ATOM     28  C   UNL     1      -2.195  -2.839   0.398  0.00  0.00    +0.147 A 
BRANCH  28  29
ATOM     29  N   UNL     1      -3.338  -2.165   1.054  0.00  0.00    +0.058 N 
ATOM     30  O   UNL     1      -4.218  -2.826   1.574  0.00  0.00    -0.126 OA
ATOM     31  O   UNL     1      -3.398  -0.949   1.073  0.00  0.00    -0.126 OA
ENDBRANCH  28  29
ENDBRANCH  21  23
ENDBRANCH  17  19
ENDBRANCH   1  17
TORSDOF 6
