REMARK  Name = ZINC23449056
REMARK  12 active torsions:
REMARK  status: ('A' for Active; 'I' for Inactive)
REMARK    1  A    between atoms: C_1  and  C_2
REMARK    2  A    between atoms: C_5  and  C_8
REMARK    3  A    between atoms: C_8  and  O_9
REMARK    4  A    between atoms: O_9  and  C_10
REMARK    5  A    between atoms: C_10  and  C_12
REMARK    6  A    between atoms: C_10  and  C_30
REMARK    7  A    between atoms: C_12  and  N_13
REMARK    8  A    between atoms: N_16  and  S_19
REMARK    9  A    between atoms: S_19  and  C_22
REMARK   10  A    between atoms: C_26  and  C_28
REMARK   11  A    between atoms: C_34  and  O_36
REMARK   12  A    between atoms: O_36  and  C_37
REMARK                            x       y       z     vdW  Elec       q    Type
REMARK                         _______ _______ _______ _____ _____    ______ ____
ROOT
ATOM      1  C   UNL     1      -0.123   0.955   2.423  0.00  0.00    -0.042 C 
ENDROOT
BRANCH   1   2
ATOM      2  N   UNL     1      -0.798   1.480   1.229  0.00  0.00    +0.383 N 
ATOM      3  C   UNL     1      -2.243   1.217   1.282  0.00  0.00    -0.061 C 
ATOM      4  C   UNL     1      -2.933   1.933   0.116  0.00  0.00    +0.091 C 
ATOM      5  N   UNL     1      -2.273   1.532  -1.135  0.00  0.00    -0.180 NA
ATOM      6  C   UNL     1      -0.808   1.639  -1.215  0.00  0.00    +0.091 C 
ATOM      7  C   UNL     1      -0.201   0.934   0.003  0.00  0.00    -0.061 C 
ATOM      8  H   UNL     1      -0.658   2.571   1.212  0.00  0.00    -0.082 HD
BRANCH   5   9
ATOM      9  S   UNL     1      -3.155   0.974  -2.421  0.00  0.00    +0.061 S 
ATOM     10  O   UNL     1      -2.275   0.178  -3.202  0.00  0.00    -0.153 OA
ATOM     11  O   UNL     1      -4.372   0.468  -1.889  0.00  0.00    -0.153 OA
BRANCH   9  12
ATOM     12  C   UNL     1      -3.580   2.371  -3.407  0.00  0.00    +0.107 A 
ATOM     13  C   UNL     1      -4.758   3.055  -3.164  0.00  0.00    +0.028 A 
ATOM     14  C   UNL     1      -5.097   4.155  -3.931  0.00  0.00    +0.003 A 
ATOM     15  C   UNL     1      -4.266   4.573  -4.950  0.00  0.00    +0.019 A 
ATOM     16  C   UNL     1      -3.078   3.885  -5.203  0.00  0.00    +0.054 A 
ATOM     17  C   UNL     1      -2.740   2.778  -4.422  0.00  0.00    +0.047 A 
BRANCH  16  18
ATOM     18  C   UNL     1      -2.211   4.312  -6.260  0.00  0.00    +0.099 C 
ATOM     19  N   UNL     1      -1.523   4.651  -7.097  0.00  0.00    -0.191 NA
ENDBRANCH  16  18
ENDBRANCH   9  12
ENDBRANCH   5   9
ENDBRANCH   1   2
BRANCH   1  20
ATOM     20  C   UNL     1      -0.591   1.730   3.656  0.00  0.00    +0.132 C 
BRANCH  20  21
ATOM     21  C   UNL     1       0.097   1.188   4.882  0.00  0.00    -0.017 A 
ATOM     22  C   UNL     1       1.355   1.646   5.228  0.00  0.00    +0.006 A 
ATOM     23  C   UNL     1       1.987   1.155   6.355  0.00  0.00    +0.004 A 
ATOM     24  C   UNL     1       1.367   0.195   7.133  0.00  0.00    +0.045 A 
ATOM     25  C   UNL     1       0.108  -0.271   6.785  0.00  0.00    +0.120 A 
ATOM     26  C   UNL     1      -0.526   0.229   5.656  0.00  0.00    +0.051 A 
BRANCH  25  27
ATOM     27  O   UNL     1      -0.503  -1.215   7.547  0.00  0.00    -0.495 OA
ATOM     28  C   UNL     1       0.209  -1.683   8.694  0.00  0.00    +0.277 C 
ENDBRANCH  25  27
ENDBRANCH  20  21
BRANCH  20  29
ATOM     29  O   UNL     1      -0.267   3.114   3.501  0.00  0.00    -0.369 OA
BRANCH  29  30
ATOM     30  C   UNL     1      -1.170   4.001   4.163  0.00  0.00    +0.195 C 
BRANCH  30  35
ATOM     31  C   UNL     1       0.500   9.462   3.283  0.00  0.00    +0.044 C 
ATOM     32  C   UNL     1       0.064   8.038   3.512  0.00  0.00    -0.050 A 
ATOM     33  C   UNL     1      -0.811   7.432   2.630  0.00  0.00    +0.004 A 
ATOM     34  C   UNL     1      -1.211   6.126   2.841  0.00  0.00    +0.006 A 
ATOM     35  C   UNL     1      -0.735   5.425   3.933  0.00  0.00    -0.022 A 
ATOM     36  C   UNL     1       0.137   6.032   4.818  0.00  0.00    +0.006 A 
ATOM     37  C   UNL     1       0.540   7.337   4.605  0.00  0.00    +0.004 A 
ENDBRANCH  30  35
ENDBRANCH  29  30
ENDBRANCH  20  29
ENDBRANCH   1  20
TORSDOF 10
