REMARK  Name = ZINC08310528
REMARK  9 active torsions:
REMARK  status: ('A' for Active; 'I' for Inactive)
REMARK    1  A    between atoms: C_1  and  C_2
REMARK    2  A    between atoms: C_2  and  C_3
REMARK    3  A    between atoms: C_5  and  C_28
REMARK    4  A    between atoms: C_6  and  C_11
REMARK    5  A    between atoms: C_11  and  N_62
REMARK    6  A    between atoms: C_15  and  C_17
REMARK    7  A    between atoms: C_28  and  O_30
REMARK    8  A    between atoms: O_30  and  C_31
REMARK    9  A    between atoms: C_31  and  C_32
REMARK                            x       y       z     vdW  Elec       q    Type
REMARK                         _______ _______ _______ _____ _____    ______ ____
ROOT
ATOM      1  C   UNL     1       2.305   0.822  -0.047  0.00  0.00    -0.026 C 
ENDROOT
BRANCH   1   4
ATOM      2  C   UNL     1      -1.421   0.137  -0.759  0.00  0.00    +0.113 C 
ATOM      3  C   UNL     1       0.068  -0.078  -0.576  0.00  0.00    +0.072 C 
ATOM      4  C   UNL     1       0.820   0.991  -0.239  0.00  0.00    +0.007 C 
ATOM      5  N   UNL     1       0.258   2.224  -0.071  0.00  0.00    -0.274 N 
ATOM      6  C   UNL     1      -1.051   2.469  -0.215  0.00  0.00    +0.304 C 
ATOM      7  O   UNL     1      -1.460   3.600  -0.039  0.00  0.00    -0.253 OA
ATOM      8  N   UNL     1      -1.928   1.504  -0.554  0.00  0.00    -0.292 N 
ATOM      9  H   UNL     1       0.838   2.963   0.171  0.00  0.00    +0.156 HD
ATOM     10  H   UNL     1      -2.872   1.705  -0.657  0.00  0.00    +0.151 HD
BRANCH   2  12
ATOM     11  C   UNL     1      -3.662  -0.692  -0.029  0.00  0.00    +0.006 C 
ATOM     12  C   UNL     1      -2.155  -0.789   0.213  0.00  0.00    +0.024 C 
ENDBRANCH   2  12
BRANCH   3  13
ATOM     13  C   UNL     1       0.649  -1.355  -0.751  0.00  0.00    +0.338 C 
ATOM     14  O   UNL     1       1.825  -1.530  -0.492  0.00  0.00    -0.245 OA
BRANCH  13  15
ATOM     15  O   UNL     1      -0.100  -2.381  -1.207  0.00  0.00    -0.462 OA
BRANCH  15  16
ATOM     16  C   UNL     1       0.552  -3.643  -1.360  0.00  0.00    +0.229 C 
ATOM     17  C   UNL     1      -0.449  -4.675  -1.883  0.00  0.00    +0.048 C 
ENDBRANCH  15  16
ENDBRANCH  13  15
ENDBRANCH   3  13
ENDBRANCH   1   4
BRANCH   1  22
ATOM     18  C   UNL     1       2.403   1.474   2.291  0.00  0.00    -0.078 C 
ATOM     19  C   UNL     1       3.455   1.200   3.394  0.00  0.00    -0.020 C 
ATOM     20  C   UNL     1       4.644   0.649   2.563  0.00  0.00    -0.013 C 
ATOM     21  C   UNL     1       3.944  -0.158   1.449  0.00  0.00    -0.037 C 
ATOM     22  N   UNL     1       2.568   0.359   1.341  0.00  0.00    +0.388 N 
ATOM     23  H   UNL     1       1.905  -0.389   1.576  0.00  0.00    -0.080 HD
BRANCH  21  24
ATOM     24  C   UNL     1       4.681   0.017   0.146  0.00  0.00    -0.057 A 
ATOM     25  C   UNL     1       4.954   1.287  -0.326  0.00  0.00    +0.006 A 
ATOM     26  C   UNL     1       5.629   1.455  -1.522  0.00  0.00    +0.049 A 
ATOM     27  C   UNL     1       6.031   0.345  -2.245  0.00  0.00    +0.162 A 
ATOM     28  C   UNL     1       5.757  -0.930  -1.771  0.00  0.00    +0.162 A 
ATOM     29  C   UNL     1       5.086  -1.095  -0.571  0.00  0.00    +0.051 A 
ATOM     30  O   UNL     1       6.157  -2.018  -2.491  0.00  0.00    -0.488 OA
ATOM     31  C   UNL     1       7.568  -2.233  -2.565  0.00  0.00    +0.232 C 
ATOM     32  C   UNL     1       8.183  -1.407  -3.683  0.00  0.00    +0.082 C 
ATOM     33  C   UNL     1       8.066   0.088  -3.429  0.00  0.00    +0.232 C 
ATOM     34  O   UNL     1       6.696   0.497  -3.427  0.00  0.00    -0.488 OA
ENDBRANCH  21  24
ENDBRANCH   1  22
TORSDOF 7
