REMARK  Name = ZINC48870202
REMARK  8 active torsions:
REMARK  status: ('A' for Active; 'I' for Inactive)
REMARK    1  A    between atoms: C_1  and  C_2
REMARK    2  A    between atoms: C_4  and  N_8
REMARK    3  A    between atoms: N_5  and  C_7
REMARK    4  A    between atoms: N_11  and  N_12
REMARK    5  A    between atoms: C_13  and  C_15
REMARK    6  A    between atoms: C_15  and  C_16
REMARK    7  A    between atoms: C_16  and  C_17
REMARK    8  A    between atoms: C_16  and  C_18
REMARK                            x       y       z     vdW  Elec       q    Type
REMARK                         _______ _______ _______ _____ _____    ______ ____
ROOT
ATOM      1  N   UNL     1       0.040  -3.240  -1.543  0.00  0.00    -0.253 N 
ATOM      2  C   UNL     1       0.031  -3.097  -2.884  0.00  0.00    +0.321 C 
ATOM      3  O   UNL     1       0.013  -1.986  -3.376  0.00  0.00    -0.251 OA
ATOM      4  N   UNL     1       0.042  -4.186  -3.677  0.00  0.00    -0.218 N 
ATOM      5  H   UNL     1       0.054  -4.127  -1.150  0.00  0.00    +0.158 HD
ATOM      6  H   UNL     1       0.035  -4.083  -4.642  0.00  0.00    +0.174 HD
ENDROOT
BRANCH   1  10
ATOM      7  C   UNL     1      -0.018   1.503   0.010  0.00  0.00    +0.067 C 
ATOM      8  C   UNL     1       0.002  -0.004   0.002  0.00  0.00    +0.062 A 
ATOM      9  C   UNL     1       0.008  -0.816  -1.135  0.00  0.00    +0.068 A 
ATOM     10  C   UNL     1       0.028  -2.113  -0.722  0.00  0.00    +0.124 A 
ATOM     11  N   UNL     1       0.035  -2.110   0.631  0.00  0.00    -0.253 N 
ATOM     12  N   UNL     1       0.023  -0.776   1.058  0.00  0.00    -0.175 NA
ATOM     13  C   UNL     1       0.055  -3.292   1.495  0.00  0.00    +0.174 C 
ENDBRANCH   1  10
BRANCH   4  14
ATOM     14  N   UNL     1       0.062  -5.467  -3.110  0.00  0.00    -0.233 N 
ATOM     15  C   UNL     1       0.073  -6.556  -3.903  0.00  0.00    +0.229 C 
ATOM     16  O   UNL     1       0.065  -6.427  -5.109  0.00  0.00    -0.274 OA
ATOM     17  H   UNL     1       0.068  -5.570  -2.145  0.00  0.00    +0.173 HD
BRANCH  15  18
ATOM     18  C   UNL     1       0.095  -7.933  -3.292  0.00  0.00    +0.100 C 
BRANCH  18  19
ATOM     19  C   UNL     1       0.103  -8.984  -4.404  0.00  0.00    -0.008 C 
ATOM     20  C   UNL     1       0.251 -10.377  -3.789  0.00  0.00    +0.008 C 
ATOM     21  C   UNL     1      -1.209  -8.909  -5.187  0.00  0.00    +0.008 C 
ENDBRANCH  18  19
ENDBRANCH  15  18
ENDBRANCH   4  14
TORSDOF 4
