REMARK  Name = ZINC08746078
REMARK  9 active torsions:
REMARK  status: ('A' for Active; 'I' for Inactive)
REMARK    1  A    between atoms: C_1  and  C_2
REMARK    2  A    between atoms: C_2  and  C_25
REMARK    3  A    between atoms: N_5  and  N_9
REMARK    4  A    between atoms: C_10  and  C_12
REMARK    5  A    between atoms: C_12  and  N_62
REMARK    6  A    between atoms: C_13  and  N_62
REMARK    7  A    between atoms: C_14  and  N_62
REMARK    8  A    between atoms: C_25  and  C_26
REMARK    9  A    between atoms: C_26  and  C_27
REMARK                            x       y       z     vdW  Elec       q    Type
REMARK                         _______ _______ _______ _____ _____    ______ ____
ROOT
ATOM      1  N   UNL     1       0.674  -1.069   3.419  0.00  0.00    -0.225 N 
ATOM      2  C   UNL     1      -0.023  -0.406   2.475  0.00  0.00    +0.213 C 
ATOM      3  O   UNL     1      -0.803  -1.005   1.765  0.00  0.00    -0.276 OA
ATOM      4  H   UNL     1       1.298  -0.590   3.986  0.00  0.00    +0.173 HD
ENDROOT
BRANCH   1   9
ATOM      5  C   UNL     1       0.590  -5.202   5.527  0.00  0.00    +0.041 C 
ATOM      6  C   UNL     1      -0.115  -4.507   4.360  0.00  0.00    +0.112 C 
ATOM      7  C   UNL     1      -0.187  -3.011   4.595  0.00  0.00    +0.263 C 
ATOM      8  O   UNL     1      -0.746  -2.440   5.507  0.00  0.00    -0.271 OA
ATOM      9  N   UNL     1       0.498  -2.449   3.580  0.00  0.00    -0.137 N 
ATOM     10  C   UNL     1       0.994  -3.372   2.748  0.00  0.00    +0.326 C 
ATOM     11  O   UNL     1       1.652  -3.109   1.761  0.00  0.00    -0.251 OA
ATOM     12  N   UNL     1       0.683  -4.625   3.127  0.00  0.00    -0.284 N 
ATOM     13  H   UNL     1       0.936  -5.446   2.677  0.00  0.00    +0.151 HD
BRANCH   6  14
ATOM     14  C   UNL     1      -1.514  -5.092   4.153  0.00  0.00    +0.040 C 
BRANCH  14  15
ATOM     15  C   UNL     1      -1.400  -6.579   3.813  0.00  0.00    +0.038 C 
BRANCH  15  16
ATOM     16  C   UNL     1      -2.777  -7.155   3.609  0.00  0.00    -0.047 A 
ATOM     17  C   UNL     1      -3.466  -7.695   4.679  0.00  0.00    +0.003 A 
ATOM     18  C   UNL     1      -4.732  -8.218   4.494  0.00  0.00    +0.000 A 
ATOM     19  C   UNL     1      -5.305  -8.211   3.236  0.00  0.00    +0.000 A 
ATOM     20  C   UNL     1      -4.614  -7.676   2.164  0.00  0.00    +0.000 A 
ATOM     21  C   UNL     1      -3.350  -7.148   2.351  0.00  0.00    +0.003 A 
ENDBRANCH  15  16
ENDBRANCH  14  15
ENDBRANCH   6  14
ENDBRANCH   1   9
BRANCH   2  22
ATOM     22  C   UNL     1       0.166   1.079   2.301  0.00  0.00    +0.021 C 
BRANCH  22  24
ATOM     23  C   UNL     1      -0.151   1.196  -0.097  0.00  0.00    -0.095 C 
ATOM     24  N   UNL     1      -0.726   1.547   1.219  0.00  0.00    +0.388 N 
ATOM     25  H   UNL     1      -1.639   1.087   1.318  0.00  0.00    -0.081 HD
BRANCH  24  26
ATOM     26  C   UNL     1      -0.912   3.010   1.316  0.00  0.00    -0.037 C 
ATOM     27  C   UNL     1       0.442   3.716   1.344  0.00  0.00    -0.010 C 
ATOM     28  C   UNL     1       0.208   5.197   1.664  0.00  0.00    +0.003 C 
ATOM     29  C   UNL     1      -0.242   5.310   3.119  0.00  0.00    +0.035 C 
ATOM     30  C   UNL     1      -1.388   4.372   3.393  0.00  0.00    -0.046 A 
ATOM     31  C   UNL     1      -1.694   3.313   2.567  0.00  0.00    -0.058 A 
ATOM     32  C   UNL     1      -2.761   2.482   2.880  0.00  0.00    +0.002 A 
ATOM     33  C   UNL     1      -3.519   2.710   4.011  0.00  0.00    +0.000 A 
ATOM     34  C   UNL     1      -3.214   3.774   4.838  0.00  0.00    +0.000 A 
ATOM     35  C   UNL     1      -2.153   4.601   4.529  0.00  0.00    +0.004 A 
ENDBRANCH  24  26
ENDBRANCH  22  24
ENDBRANCH   2  22
TORSDOF 7
