REMARK  Name = ZINC35934084
REMARK  10 active torsions:
REMARK  status: ('A' for Active; 'I' for Inactive)
REMARK    1  A    between atoms: C_1  and  C_2
REMARK    2  A    between atoms: C_8  and  C_10
REMARK    3  A    between atoms: C_10  and  C_12
REMARK    4  A    between atoms: C_10  and  N_16
REMARK    5  A    between atoms: C_12  and  C_13
REMARK    6  A    between atoms: C_13  and  C_14
REMARK    7  A    between atoms: C_13  and  C_15
REMARK    8  A    between atoms: C_22  and  C_29
REMARK    9  A    between atoms: N_27  and  C_28
REMARK   10  A    between atoms: C_34  and  C_35
REMARK                            x       y       z     vdW  Elec       q    Type
REMARK                         _______ _______ _______ _____ _____    ______ ____
ROOT
ATOM      1  N   UNL     1      -0.752  -4.214   2.401  0.00  0.00    -0.281 N 
ATOM      2  C   UNL     1      -1.238  -4.369   3.780  0.00  0.00    +0.160 C 
ATOM      3  C   UNL     1      -2.084  -5.622   3.757  0.00  0.00    +0.042 C 
ATOM      4  C   UNL     1      -2.047  -6.081   2.490  0.00  0.00    +0.058 C 
ATOM      5  C   UNL     1      -1.256  -5.236   1.685  0.00  0.00    +0.247 C 
ATOM      6  O   UNL     1      -1.053  -5.409   0.497  0.00  0.00    -0.270 OA
ATOM      7  C   UNL     1      -2.821  -7.345   2.175  0.00  0.00    +0.142 C 
ATOM      8  N   UNL     1      -3.554  -7.972   3.288  0.00  0.00    -0.288 N 
ATOM      9  C   UNL     1      -3.494  -7.393   4.503  0.00  0.00    +0.307 C 
ATOM     10  O   UNL     1      -4.096  -7.903   5.428  0.00  0.00    -0.252 OA
ATOM     11  N   UNL     1      -2.794  -6.273   4.725  0.00  0.00    -0.260 N 
ATOM     12  C   UNL     1      -2.788  -5.716   6.080  0.00  0.00    +0.139 C 
ATOM     13  H   UNL     1      -4.068  -8.783   3.150  0.00  0.00    +0.151 HD
ENDROOT
BRANCH   7  14
ATOM     14  C   UNL     1      -1.850  -8.360   1.629  0.00  0.00    -0.011 A 
ATOM     15  C   UNL     1      -0.934  -8.963   2.471  0.00  0.00    +0.006 A 
ATOM     16  C   UNL     1      -0.043  -9.894   1.970  0.00  0.00    +0.000 A 
ATOM     17  C   UNL     1      -0.069 -10.223   0.627  0.00  0.00    +0.001 A 
ATOM     18  C   UNL     1      -0.986  -9.621  -0.214  0.00  0.00    +0.013 A 
ATOM     19  C   UNL     1      -1.879  -8.693   0.288  0.00  0.00    +0.060 A 
BRANCH  19  20
ATOM     20  C   UNL     1      -2.882  -8.040  -0.628  0.00  0.00    +0.418 C 
ATOM     21  F   UNL     1      -2.723  -8.539  -1.925  0.00  0.00    -0.166 F 
ATOM     22  F   UNL     1      -4.177  -8.319  -0.177  0.00  0.00    -0.166 F 
ATOM     23  F   UNL     1      -2.678  -6.656  -0.633  0.00  0.00    -0.166 F 
ENDBRANCH  19  20
ENDBRANCH   7  14
BRANCH   1  24
ATOM     24  C   UNL     1       0.114  -3.145   1.899  0.00  0.00    +0.163 C 
BRANCH  24  32
ATOM     25  C   UNL     1       0.068   3.119   1.122  0.00  0.00    +0.007 C 
ATOM     26  C   UNL     1       0.269   1.704   0.575  0.00  0.00    -0.011 C 
ATOM     27  C   UNL     1      -1.079   1.131   0.133  0.00  0.00    +0.022 C 
ATOM     28  C   UNL     1      -0.869  -0.271  -0.446  0.00  0.00    +0.108 C 
ATOM     29  N   UNL     1      -0.161  -1.091   0.548  0.00  0.00    -0.300 N 
ATOM     30  C   UNL     1       1.102  -0.590   1.107  0.00  0.00    +0.108 C 
ATOM     31  C   UNL     1       0.869   0.816   1.668  0.00  0.00    +0.022 C 
ATOM     32  C   UNL     1      -0.661  -2.280   0.939  0.00  0.00    +0.236 C 
ATOM     33  O   UNL     1      -1.736  -2.654   0.517  0.00  0.00    -0.274 OA
ENDBRANCH  24  32
BRANCH  24  34
ATOM     34  C   UNL     1       1.316  -3.757   1.177  0.00  0.00    +0.035 C 
BRANCH  34  35
ATOM     35  C   UNL     1       2.184  -4.514   2.185  0.00  0.00    -0.015 C 
ATOM     36  C   UNL     1       1.415  -5.727   2.711  0.00  0.00    +0.007 C 
ATOM     37  C   UNL     1       3.469  -4.982   1.500  0.00  0.00    +0.007 C 
ENDBRANCH  34  35
ENDBRANCH  24  34
ENDBRANCH   1  24
TORSDOF 6
