REMARK  Name = ZINC40312666
REMARK  9 active torsions:
REMARK  status: ('A' for Active; 'I' for Inactive)
REMARK    1  A    between atoms: C_1  and  O_2
REMARK    2  A    between atoms: O_2  and  C_3
REMARK    3  A    between atoms: C_6  and  N_9
REMARK    4  A    between atoms: C_11  and  C_30
REMARK    5  A    between atoms: C_14  and  C_20
REMARK    6  A    between atoms: C_24  and  O_28
REMARK    7  A    between atoms: C_25  and  O_26
REMARK    8  A    between atoms: O_26  and  C_27
REMARK    9  A    between atoms: O_28  and  C_29
REMARK                            x       y       z     vdW  Elec       q    Type
REMARK                         _______ _______ _______ _____ _____    ______ ____
ROOT
ATOM      1  N   UNL     1       2.540  -2.504   4.233  0.00  0.00    -0.317 N 
ATOM      2  C   UNL     1       3.776  -2.198   4.679  0.00  0.00    +0.108 A 
ATOM      3  C   UNL     1       4.074  -3.029   5.748  0.00  0.00    +0.102 A 
ATOM      4  C   UNL     1       2.904  -3.882   5.922  0.00  0.00    +0.070 A 
ATOM      5  C   UNL     1       2.004  -3.512   4.975  0.00  0.00    +0.054 A 
ATOM      6  C   UNL     1       0.659  -4.183   4.851  0.00  0.00    +0.080 C 
ATOM      7  C   UNL     1       0.789  -5.626   5.346  0.00  0.00    +0.110 C 
ATOM      8  C   UNL     1       1.582  -5.703   6.619  0.00  0.00    +0.218 C 
ATOM      9  O   UNL     1       1.263  -6.514   7.463  0.00  0.00    -0.275 OA
ATOM     10  N   UNL     1       2.644  -4.902   6.847  0.00  0.00    -0.283 N 
ATOM     11  H   UNL     1       3.202  -5.021   7.631  0.00  0.00    +0.155 HD
ENDROOT
BRANCH   1  15
ATOM     12  C   UNL     1       0.626  -0.619   1.042  0.00  0.00    +0.120 A 
ATOM     13  C   UNL     1       1.202   0.140   2.051  0.00  0.00    +0.047 A 
ATOM     14  C   UNL     1       1.835  -0.484   3.107  0.00  0.00    +0.030 A 
ATOM     15  C   UNL     1       1.896  -1.870   3.160  0.00  0.00    +0.047 A 
ATOM     16  C   UNL     1       1.319  -2.628   2.150  0.00  0.00    +0.030 A 
ATOM     17  C   UNL     1       0.682  -2.004   1.097  0.00  0.00    +0.047 A 
BRANCH  12  19
ATOM     18  C   UNL     1      -0.017   1.425   0.010  0.00  0.00    +0.277 C 
ATOM     19  O   UNL     1       0.002  -0.004   0.002  0.00  0.00    -0.495 OA
ENDBRANCH  12  19
ENDBRANCH   1  15
BRANCH   6  20
ATOM     20  C   UNL     1      -0.354  -3.446   5.688  0.00  0.00    +0.007 A 
ATOM     21  C   UNL     1      -0.165  -3.322   7.053  0.00  0.00    +0.008 A 
ATOM     22  C   UNL     1      -1.092  -2.646   7.824  0.00  0.00    +0.004 A 
ATOM     23  C   UNL     1      -2.213  -2.092   7.234  0.00  0.00    +0.049 A 
ATOM     24  C   UNL     1      -2.409  -2.213   5.868  0.00  0.00    +0.162 A 
ATOM     25  C   UNL     1      -1.472  -2.888   5.091  0.00  0.00    +0.165 A 
BRANCH  25  26
ATOM     26  O   UNL     1      -1.658  -3.004   3.749  0.00  0.00    -0.491 OA
ATOM     27  C   UNL     1      -2.385  -4.146   3.291  0.00  0.00    +0.277 C 
ENDBRANCH  25  26
BRANCH  24  28
ATOM     28  O   UNL     1      -3.512  -1.668   5.287  0.00  0.00    -0.491 OA
ATOM     29  C   UNL     1      -4.427  -0.985   6.146  0.00  0.00    +0.277 C 
ENDBRANCH  24  28
ENDBRANCH   6  20
BRANCH   3  30
ATOM     30  C   UNL     1       5.309  -3.047   6.538  0.00  0.00    +0.390 C 
ATOM     31  O   UNL     1       6.214  -2.267   6.276  0.00  0.00    -0.240 OA
ATOM     32  O   UNL     1       5.434  -3.843   7.460  0.00  0.00    -0.240 OA
ENDBRANCH   3  30
TORSDOF 6
