REMARK  Name = ZINC33811790
REMARK  7 active torsions:
REMARK  status: ('A' for Active; 'I' for Inactive)
REMARK    1  A    between atoms: C_1  and  N_2
REMARK    2  A    between atoms: C_14  and  N_16
REMARK    3  A    between atoms: N_16  and  S_17
REMARK    4  A    between atoms: S_17  and  C_20
REMARK    5  A    between atoms: C_23  and  N_26
REMARK    6  A    between atoms: C_27  and  O_29
REMARK    7  A    between atoms: O_29  and  C_30
REMARK                            x       y       z     vdW  Elec       q    Type
REMARK                         _______ _______ _______ _____ _____    ______ ____
ROOT
ATOM      1  N   UNL     1      -3.034   2.911  -0.876  0.00  0.00    -0.183 NA
ATOM      2  H   UNL     1      -2.944   3.890  -0.383  0.00  0.00    +0.149 HD
ENDROOT
BRANCH   1  15
ATOM      3  C   UNL     1       2.015   1.093  -0.815  0.00  0.00    -0.095 C 
ATOM      4  N   UNL     1       1.230   1.500   0.358  0.00  0.00    +0.383 N 
ATOM      5  C   UNL     1       1.853   1.022   1.600  0.00  0.00    -0.074 C 
ATOM      6  C   UNL     1       1.201   1.548   2.870  0.00  0.00    +0.017 C 
ATOM      7  C   UNL     1      -0.264   1.797   2.709  0.00  0.00    -0.047 A 
ATOM      8  C   UNL     1      -1.101   2.256   3.708  0.00  0.00    +0.004 A 
ATOM      9  C   UNL     1      -2.430   2.536   3.438  0.00  0.00    +0.001 A 
ATOM     10  C   UNL     1      -2.979   2.405   2.166  0.00  0.00    +0.005 A 
ATOM     11  C   UNL     1      -2.146   1.930   1.167  0.00  0.00    -0.027 A 
ATOM     12  C   UNL     1      -0.850   1.560   1.479  0.00  0.00    -0.053 A 
ATOM     13  C   UNL     1      -0.148   0.997   0.270  0.00  0.00    -0.036 C 
ATOM     14  C   UNL     1      -0.934   1.565  -0.923  0.00  0.00    +0.014 C 
ATOM     15  C   UNL     1      -2.364   1.739  -0.306  0.00  0.00    +0.105 C 
ATOM     16  H   UNL     1       1.206   2.599   0.375  0.00  0.00    -0.081 HD
ENDBRANCH   1  15
BRANCH   1  17
ATOM     17  S   UNL     1      -4.121   2.724  -2.111  0.00  0.00    +0.059 S 
ATOM     18  O   UNL     1      -4.606   4.022  -2.425  0.00  0.00    -0.153 OA
ATOM     19  O   UNL     1      -3.498   1.889  -3.078  0.00  0.00    -0.153 OA
BRANCH  17  20
ATOM     20  C   UNL     1      -5.488   1.816  -1.469  0.00  0.00    +0.105 A 
ATOM     21  C   UNL     1      -5.492   0.435  -1.536  0.00  0.00    +0.030 A 
ATOM     22  C   UNL     1      -6.560  -0.279  -1.028  0.00  0.00    +0.025 A 
ATOM     23  C   UNL     1      -7.634   0.392  -0.459  0.00  0.00    +0.037 A 
ATOM     24  C   UNL     1      -7.629   1.779  -0.398  0.00  0.00    +0.025 A 
ATOM     25  C   UNL     1      -6.556   2.487  -0.903  0.00  0.00    +0.030 A 
BRANCH  23  26
ATOM     26  N   UNL     1      -8.720  -0.329   0.051  0.00  0.00    -0.251 N 
ATOM     27  C   UNL     1      -9.968   0.168  -0.055  0.00  0.00    +0.404 C 
ATOM     28  O   UNL     1     -10.143   1.278  -0.516  0.00  0.00    -0.226 OA
ATOM     29  H   UNL     1      -8.555  -1.301   0.539  0.00  0.00    +0.158 HD
BRANCH  27  30
ATOM     30  O   UNL     1     -11.022  -0.566   0.351  0.00  0.00    -0.453 OA
ATOM     31  C   UNL     1     -12.337   0.033   0.207  0.00  0.00    +0.282 C 
ENDBRANCH  27  30
ENDBRANCH  23  26
ENDBRANCH  17  20
ENDBRANCH   1  17
TORSDOF 5
