REMARK  Name = ZINC21927372
REMARK  7 active torsions:
REMARK  status: ('A' for Active; 'I' for Inactive)
REMARK    1  A    between atoms: C_1  and  C_2
REMARK    2  A    between atoms: C_6  and  N_9
REMARK    3  A    between atoms: C_7  and  C_8
REMARK    4  A    between atoms: N_12  and  C_15
REMARK    5  A    between atoms: C_15  and  C_16
REMARK    6  A    between atoms: C_16  and  N_17
REMARK    7  A    between atoms: C_18  and  C_20
REMARK                            x       y       z     vdW  Elec       q    Type
REMARK                         _______ _______ _______ _____ _____    ______ ____
ROOT
ATOM      1  N   UNL     1       0.794  -6.880   7.202  0.00  0.00    -0.313 N 
ATOM      2  C   UNL     1       1.635  -7.886   7.515  0.00  0.00    +0.234 C 
ATOM      3  O   UNL     1       2.418  -8.302   6.687  0.00  0.00    -0.274 OA
ATOM      4  H   UNL     1       0.168  -6.548   7.864  0.00  0.00    +0.149 HD
ENDROOT
BRANCH   2   5
ATOM      5  C   UNL     1       1.603  -8.494   8.893  0.00  0.00    +0.161 C 
ATOM      6  C   UNL     1       0.440  -9.503   8.995  0.00  0.00    +0.033 C 
ATOM      7  C   UNL     1       1.137 -10.865   8.736  0.00  0.00    +0.021 C 
ATOM      8  C   UNL     1       2.511 -10.645   9.417  0.00  0.00    +0.108 C 
ATOM      9  N   UNL     1       2.849  -9.233   9.144  0.00  0.00    -0.297 N 
ATOM     10  C   UNL     1       4.128  -8.692   9.125  0.00  0.00    +0.186 A 
ATOM     11  N   UNL     1       4.507  -7.449   8.895  0.00  0.00    -0.124 NA
ATOM     12  N   UNL     1       5.844  -7.125   8.924  0.00  0.00    -0.124 NA
ATOM     13  C   UNL     1       6.740  -8.057   9.182  0.00  0.00    +0.192 A 
ATOM     14  S   UNL     1       5.699  -9.491   9.412  0.00  0.00    -0.015 S 
ATOM     15  N   UNL     1       8.126  -7.952   9.261  0.00  0.00    -0.249 N 
ATOM     16  C   UNL     1       8.874  -6.705   9.062  0.00  0.00    +0.116 C 
ATOM     17  C   UNL     1      10.274  -6.964   9.661  0.00  0.00    +0.029 C 
ATOM     18  C   UNL     1      10.387  -8.502   9.545  0.00  0.00    +0.098 C 
ATOM     19  C   UNL     1       8.951  -8.977   9.533  0.00  0.00    +0.221 C 
ATOM     20  O   UNL     1       8.596 -10.119   9.738  0.00  0.00    -0.275 OA
ENDBRANCH   2   5
BRANCH   1  21
ATOM     21  C   UNL     1       0.826  -6.290   5.862  0.00  0.00    +0.119 C 
BRANCH  21  22
ATOM     22  C   UNL     1      -0.220  -5.177   5.770  0.00  0.00    +0.103 C 
BRANCH  22  26
ATOM     23  N   UNL     1      -0.030  -2.412   2.578  0.00  0.00    -0.391 NA
ATOM     24  C   UNL     1      -1.292  -3.132   2.793  0.00  0.00    +0.100 C 
ATOM     25  C   UNL     1      -1.329  -3.681   4.221  0.00  0.00    +0.102 C 
ATOM     26  N   UNL     1      -0.188  -4.584   4.426  0.00  0.00    -0.298 NA
ATOM     27  C   UNL     1       1.082  -3.883   4.189  0.00  0.00    +0.102 C 
ATOM     28  C   UNL     1       1.099  -3.333   2.762  0.00  0.00    +0.100 C 
ATOM     29  H   UNL     1       0.042  -1.655   3.241  0.00  0.00    +0.127 HD
BRANCH  23  35
ATOM     30  C   UNL     1       0.074   1.472  -0.425  0.00  0.00    +0.044 C 
ATOM     31  C   UNL     1       0.046  -0.019  -0.206  0.00  0.00    -0.046 A 
ATOM     32  C   UNL     1       0.046  -0.876  -1.290  0.00  0.00    +0.004 A 
ATOM     33  C   UNL     1       0.021  -2.244  -1.090  0.00  0.00    +0.002 A 
ATOM     34  C   UNL     1      -0.004  -2.754   0.195  0.00  0.00    +0.022 A 
ATOM     35  C   UNL     1      -0.004  -1.896   1.279  0.00  0.00    +0.017 A 
ATOM     36  C   UNL     1       0.026  -0.529   1.078  0.00  0.00    -0.028 A 
ATOM     37  C   UNL     1       0.032   0.406   2.260  0.00  0.00    +0.046 C 
ENDBRANCH  23  35
ENDBRANCH  22  26
ENDBRANCH  21  22
ENDBRANCH   1  21
TORSDOF 5
