REMARK  Name = ZINC39210322
REMARK  15 active torsions:
REMARK  status: ('A' for Active; 'I' for Inactive)
REMARK    1  A    between atoms: C_1  and  C_2
REMARK    2  A    between atoms: C_2  and  O_36
REMARK    3  A    between atoms: C_5  and  C_11
REMARK    4  A    between atoms: C_5  and  C_12
REMARK    5  A    between atoms: C_7  and  C_9
REMARK    6  A    between atoms: C_7  and  C_10
REMARK    7  A    between atoms: N_16  and  C_17
REMARK    8  A    between atoms: C_17  and  C_18
REMARK    9  A    between atoms: C_18  and  N_19
REMARK   10  A    between atoms: C_24  and  C_25
REMARK   11  A    between atoms: C_24  and  O_26
REMARK   12  A    between atoms: C_28  and  C_34
REMARK   13  A    between atoms: C_28  and  C_35
REMARK   14  A    between atoms: C_30  and  C_32
REMARK   15  A    between atoms: C_30  and  C_33
REMARK                            x       y       z     vdW  Elec       q    Type
REMARK                         _______ _______ _______ _____ _____    ______ ____
ROOT
ATOM      1  C   UNL     1       0.697  -0.001   2.535  0.00  0.00    +0.133 C 
ENDROOT
BRANCH   1  17
ATOM      2  C   UNL     1      -0.019   1.521   0.010  0.00  0.00    +0.068 C 
ATOM      3  C   UNL     1       0.002  -0.004   0.002  0.00  0.00    +0.175 C 
ATOM      4  C   UNL     1       0.823  -0.590  -1.165  0.00  0.00    +0.158 C 
ATOM      5  C   UNL     1      -0.077  -0.864  -2.359  0.00  0.00    +0.040 C 
ATOM      6  C   UNL     1       0.718  -1.465  -3.518  0.00  0.00    -0.070 C 
ATOM      7  N   UNL     1       1.911  -0.694  -3.834  0.00  0.00    +0.386 N 
ATOM      8  C   UNL     1       2.763  -0.276  -2.734  0.00  0.00    -0.070 C 
ATOM      9  C   UNL     1       1.974   0.311  -1.562  0.00  0.00    +0.040 C 
ATOM     10  C   UNL     1       3.677  -1.404  -2.254  0.00  0.00    -0.010 C 
ATOM     11  C   UNL     1       3.683   0.851  -3.267  0.00  0.00    -0.010 C 
ATOM     12  C   UNL     1      -0.199  -1.422  -4.765  0.00  0.00    -0.010 C 
ATOM     13  C   UNL     1       1.037  -2.935  -3.251  0.00  0.00    -0.010 C 
ATOM     14  O   UNL     1       1.297  -1.813  -0.575  0.00  0.00    -0.439 OA
ATOM     15  C   UNL     1       1.461  -1.586   0.743  0.00  0.00    +0.406 C 
ATOM     16  O   UNL     1       2.175  -2.256   1.460  0.00  0.00    -0.226 OA
ATOM     17  N   UNL     1       0.742  -0.530   1.172  0.00  0.00    -0.234 N 
ATOM     18  H   UNL     1       2.478  -1.238  -4.491  0.00  0.00    -0.084 HD
ATOM     19  H   UNL     1       1.626   0.139  -4.356  0.00  0.00    -0.084 HD
BRANCH   3  20
ATOM     20  O   UNL     1      -1.333  -0.524  -0.010  0.00  0.00    -0.368 OA
ATOM     21  H   UNL     1      -1.868  -0.250   0.747  0.00  0.00    +0.212 HD
ENDBRANCH   3  20
ENDBRANCH   1  17
BRANCH   1  22
ATOM     22  C   UNL     1      -0.423  -0.694   3.314  0.00  0.00    +0.133 C 
BRANCH  22  23
ATOM     23  N   UNL     1      -0.468  -0.165   4.677  0.00  0.00    -0.234 N 
ATOM     24  C   UNL     1       0.200  -0.640   5.747  0.00  0.00    +0.406 C 
ATOM     25  O   UNL     1       0.914  -1.621   5.720  0.00  0.00    -0.226 OA
ATOM     26  O   UNL     1      -0.008   0.102   6.853  0.00  0.00    -0.439 OA
ATOM     27  C   UNL     1      -0.481   1.387   6.417  0.00  0.00    +0.158 C 
ATOM     28  C   UNL     1      -1.263   0.996   5.142  0.00  0.00    +0.175 C 
ATOM     29  C   UNL     1      -2.697   0.572   5.447  0.00  0.00    +0.068 C 
ATOM     30  C   UNL     1      -1.376   2.042   7.446  0.00  0.00    +0.040 C 
ATOM     31  C   UNL     1      -0.590   2.541   8.656  0.00  0.00    -0.070 C 
ATOM     32  N   UNL     1       0.614   3.275   8.317  0.00  0.00    +0.386 N 
ATOM     33  C   UNL     1       1.460   2.762   7.254  0.00  0.00    -0.070 C 
ATOM     34  C   UNL     1       0.672   2.300   6.034  0.00  0.00    +0.040 C 
ATOM     35  C   UNL     1       2.374   1.641   7.754  0.00  0.00    -0.010 C 
ATOM     36  C   UNL     1       2.380   3.920   6.795  0.00  0.00    -0.010 C 
ATOM     37  C   UNL     1      -0.284   1.369   9.596  0.00  0.00    -0.010 C 
ATOM     38  C   UNL     1      -1.519   3.505   9.434  0.00  0.00    -0.010 C 
ATOM     39  H   UNL     1       0.349   4.236   8.081  0.00  0.00    -0.084 HD
ATOM     40  H   UNL     1       1.185   3.365   9.164  0.00  0.00    -0.084 HD
BRANCH  28  41
ATOM     41  O   UNL     1      -1.234   2.048   4.178  0.00  0.00    -0.368 OA
ATOM     42  H   UNL     1      -1.612   1.807   3.321  0.00  0.00    +0.212 HD
ENDBRANCH  28  41
ENDBRANCH  22  23
ENDBRANCH   1  22
TORSDOF 5
