REMARK  Name = ZINC64945879
REMARK  6 active torsions:
REMARK  status: ('A' for Active; 'I' for Inactive)
REMARK    1  A    between atoms: C_1  and  C_2
REMARK    2  A    between atoms: C_2  and  C_3
REMARK    3  A    between atoms: C_6  and  N_9
REMARK    4  A    between atoms: C_10  and  C_12
REMARK    5  A    between atoms: C_12  and  N_13
REMARK    6  A    between atoms: C_27  and  C_31
REMARK                            x       y       z     vdW  Elec       q    Type
REMARK                         _______ _______ _______ _____ _____    ______ ____
ROOT
ATOM      1  N   UNL     1      -7.949  -2.595  -2.470  0.00  0.00    -0.203 N 
ATOM      2  C   UNL     1      -7.930  -3.684  -3.267  0.00  0.00    +0.353 A 
ATOM      3  O   UNL     1      -7.490  -4.781  -2.973  0.00  0.00    -0.244 OA
ATOM      4  N   UNL     1      -8.486  -3.341  -4.448  0.00  0.00    -0.233 N 
ATOM      5  C   UNL     1      -8.716  -4.056  -5.595  0.00  0.00    +0.211 A 
ATOM      6  N   UNL     1      -9.277  -3.514  -6.635  0.00  0.00    -0.229 NA
ATOM      7  C   UNL     1      -9.663  -2.239  -6.656  0.00  0.00    +0.114 A 
ATOM      8  C   UNL     1      -9.495  -1.385  -5.559  0.00  0.00    +0.056 A 
ATOM      9  C   UNL     1      -8.854  -2.011  -4.374  0.00  0.00    +0.173 A 
ATOM     10  N   UNL     1      -8.545  -1.551  -3.194  0.00  0.00    -0.148 NA
ATOM     11  C   UNL     1      -9.947  -0.052  -5.711  0.00  0.00    -0.024 A 
ATOM     12  C   UNL     1     -10.502   0.292  -6.897  0.00  0.00    -0.004 A 
ATOM     13  S   UNL     1     -10.437  -1.192  -7.865  0.00  0.00    -0.073 S 
ATOM     14  C   UNL     1     -11.048   1.627  -7.295  0.00  0.00    +0.046 C 
ATOM     15  C   UNL     1     -11.224   2.476  -6.027  0.00  0.00    -0.009 C 
ATOM     16  C   UNL     1      -9.944   2.378  -5.191  0.00  0.00    +0.008 C 
ATOM     17  C   UNL     1      -9.819   0.978  -4.591  0.00  0.00    +0.037 C 
ATOM     18  C   UNL     1     -11.477   3.934  -6.416  0.00  0.00    +0.008 C 
ENDROOT
BRANCH   1  19
ATOM     19  C   UNL     1      -7.446  -2.518  -1.097  0.00  0.00    +0.244 C 
BRANCH  19  21
ATOM     20  N   UNL     1      -5.320  -1.968   0.042  0.00  0.00    -0.284 N 
ATOM     21  C   UNL     1      -5.997  -2.104  -1.115  0.00  0.00    +0.239 C 
ATOM     22  O   UNL     1      -5.440  -1.894  -2.172  0.00  0.00    -0.273 OA
ATOM     23  H   UNL     1      -5.742  -2.209   0.882  0.00  0.00    +0.155 HD
BRANCH  20  27
ATOM     24  C   UNL     1      -1.419  -0.507   0.015  0.00  0.00    -0.048 A 
ATOM     25  C   UNL     1      -2.333  -0.051  -0.916  0.00  0.00    +0.005 A 
ATOM     26  C   UNL     1      -3.627  -0.533  -0.910  0.00  0.00    +0.023 A 
ATOM     27  C   UNL     1      -4.010  -1.478   0.033  0.00  0.00    +0.033 A 
ATOM     28  C   UNL     1      -3.089  -1.935   0.967  0.00  0.00    +0.023 A 
ATOM     29  C   UNL     1      -1.795  -1.452   0.952  0.00  0.00    +0.005 A 
BRANCH  24  31
ATOM     30  C   UNL     1       0.858  -0.854  -0.904  0.00  0.00    +0.009 C 
ATOM     31  C   UNL     1      -0.007   0.021   0.005  0.00  0.00    +0.032 C 
ENDBRANCH  24  31
ENDBRANCH  20  27
ENDBRANCH  19  21
ENDBRANCH   1  19
TORSDOF 4
