REMARK  Name = ZINC10245096
REMARK  12 active torsions:
REMARK  status: ('A' for Active; 'I' for Inactive)
REMARK    1  A    between atoms: C_1  and  C_2
REMARK    2  A    between atoms: C_2  and  C_3
REMARK    3  A    between atoms: C_3  and  C_4
REMARK    4  A    between atoms: C_4  and  C_5
REMARK    5  A    between atoms: C_5  and  C_7
REMARK    6  A    between atoms: C_5  and  S_9
REMARK    7  A    between atoms: S_9  and  C_10
REMARK    8  A    between atoms: N_24  and  C_25
REMARK    9  A    between atoms: C_28  and  O_33
REMARK   10  A    between atoms: C_29  and  O_31
REMARK   11  A    between atoms: O_31  and  C_32
REMARK   12  A    between atoms: O_33  and  C_34
REMARK                            x       y       z     vdW  Elec       q    Type
REMARK                         _______ _______ _______ _____ _____    ______ ____
ROOT
ATOM      1  C   UNL     1       1.440   5.766   0.518  0.00  0.00    +0.178 A 
ATOM      2  N   UNL     1       0.879   4.578   0.534  0.00  0.00    -0.221 NA
ATOM      3  C   UNL     1       1.520   3.503   0.048  0.00  0.00    +0.104 A 
ATOM      4  C   UNL     1       1.168   2.081  -0.073  0.00  0.00    +0.026 A 
ATOM      5  C   UNL     1       0.040   1.337   0.276  0.00  0.00    +0.012 A 
ATOM      6  C   UNL     1       0.008  -0.007   0.031  0.00  0.00    +0.001 A 
ATOM      7  C   UNL     1       1.091  -0.639  -0.564  0.00  0.00    +0.002 A 
ATOM      8  C   UNL     1       2.214   0.075  -0.916  0.00  0.00    +0.026 A 
ATOM      9  C   UNL     1       2.268   1.447  -0.675  0.00  0.00    +0.049 A 
ATOM     10  N   UNL     1       3.237   2.397  -0.916  0.00  0.00    -0.349 N 
ATOM     11  H   UNL     1       4.098   2.221  -1.326  0.00  0.00    +0.166 HD
ATOM     12  C   UNL     1       2.800   3.640  -0.486  0.00  0.00    +0.132 A 
ATOM     13  C   UNL     1       3.391   4.921  -0.497  0.00  0.00    +0.283 A 
ATOM     14  O   UNL     1       4.510   5.086  -0.955  0.00  0.00    -0.265 OA
ATOM     15  N   UNL     1       2.693   5.960   0.009  0.00  0.00    -0.254 N 
ENDROOT
BRANCH  15  16
ATOM     16  C   UNL     1       3.256   7.244   0.010  0.00  0.00    +0.056 A 
ATOM     17  C   UNL     1       3.063   8.088  -1.075  0.00  0.00    +0.030 A 
ATOM     18  C   UNL     1       3.613   9.355  -1.073  0.00  0.00    +0.051 A 
ATOM     19  C   UNL     1       4.367   9.783   0.007  0.00  0.00    +0.162 A 
ATOM     20  C   UNL     1       4.567   8.937   1.095  0.00  0.00    +0.163 A 
ATOM     21  C   UNL     1       4.011   7.669   1.095  0.00  0.00    +0.075 A 
BRANCH  20  22
ATOM     22  O   UNL     1       5.307   9.356   2.156  0.00  0.00    -0.491 OA
ATOM     23  C   UNL     1       5.470   8.436   3.237  0.00  0.00    +0.277 C 
ENDBRANCH  20  22
BRANCH  19  24
ATOM     24  O   UNL     1       4.913  11.029   0.005  0.00  0.00    -0.491 OA
ATOM     25  C   UNL     1       4.668  11.843  -1.143  0.00  0.00    +0.277 C 
ENDBRANCH  19  24
ENDBRANCH  15  16
BRANCH   1  26
ATOM     26  S   UNL     1       0.556   7.144   1.171  0.00  0.00    -0.072 S 
BRANCH  26  27
ATOM     27  C   UNL     1      -0.974   6.322   1.680  0.00  0.00    +0.167 C 
BRANCH  27  28
ATOM     28  C   UNL     1      -1.690   5.793   0.464  0.00  0.00    +0.369 C 
ATOM     29  O   UNL     1      -1.752   4.603   0.269  0.00  0.00    -0.245 OA
ATOM     30  O   UNL     1      -2.258   6.646  -0.404  0.00  0.00    -0.245 OA
ENDBRANCH  27  28
BRANCH  27  31
ATOM     31  C   UNL     1      -1.874   7.324   2.406  0.00  0.00    +0.026 C 
BRANCH  31  32
ATOM     32  C   UNL     1      -1.200   7.766   3.707  0.00  0.00    +0.001 C 
BRANCH  32  34
ATOM     33  C   UNL     1      -1.426   9.210   5.733  0.00  0.00    +0.004 C 
ATOM     34  C   UNL     1      -2.100   8.768   4.433  0.00  0.00    -0.003 C 
ENDBRANCH  32  34
ENDBRANCH  31  32
ENDBRANCH  27  31
ENDBRANCH  26  27
ENDBRANCH   1  26
TORSDOF 9
