REMARK  Name = ZINC03233336
REMARK  5 active torsions:
REMARK  status: ('A' for Active; 'I' for Inactive)
REMARK    1  A    between atoms: C_1  and  C_2
REMARK    2  A    between atoms: C_12  and  C_14
REMARK    3  A    between atoms: C_14  and  O_15
REMARK    4  A    between atoms: O_15  and  C_16
REMARK    5  A    between atoms: C_16  and  C_18
REMARK                            x       y       z     vdW  Elec       q    Type
REMARK                         _______ _______ _______ _____ _____    ______ ____
ROOT
ATOM      1  C   UNL     1      -1.217   1.905   3.587  0.00  0.00    +0.328 C 
ENDROOT
BRANCH   1  12
ATOM      2  C   UNL     1       1.415   1.635  -0.003  0.00  0.00    +0.029 C 
ATOM      3  C   UNL     1      -0.013   1.086   0.008  0.00  0.00    +0.083 C 
ATOM      4  C   UNL     1      -0.797   1.615  -1.204  0.00  0.00    +0.059 C 
ATOM      5  C   UNL     1      -1.947   2.393  -0.603  0.00  0.00    -0.024 A 
ATOM      6  C   UNL     1      -2.979   3.090  -1.201  0.00  0.00    +0.005 A 
ATOM      7  C   UNL     1      -3.926   3.729  -0.423  0.00  0.00    +0.000 A 
ATOM      8  C   UNL     1      -3.838   3.671   0.956  0.00  0.00    +0.002 A 
ATOM      9  C   UNL     1      -2.810   2.976   1.556  0.00  0.00    +0.024 A 
ATOM     10  C   UNL     1      -1.849   2.327   0.777  0.00  0.00    +0.040 A 
ATOM     11  N   UNL     1      -0.738   1.578   1.182  0.00  0.00    -0.265 N 
ATOM     12  C   UNL     1      -0.387   1.342   2.462  0.00  0.00    +0.258 C 
ATOM     13  O   UNL     1       0.597   0.677   2.708  0.00  0.00    -0.271 OA
ENDBRANCH   1  12
BRANCH   1  14
ATOM     14  O   UNL     1      -0.636   1.514   4.859  0.00  0.00    -0.451 OA
BRANCH  14  15
ATOM     15  C   UNL     1      -1.262   1.939   5.973  0.00  0.00    +0.356 C 
ATOM     16  O   UNL     1      -2.265   2.617   5.885  0.00  0.00    -0.243 OA
BRANCH  15  17
ATOM     17  C   UNL     1      -0.727   1.579   7.308  0.00  0.00    +0.133 A 
ATOM     18  C   UNL     1       0.393   0.816   7.414  0.00  0.00    +0.103 A 
ATOM     19  C   UNL     1       0.889   0.488   8.756  0.00  0.00    +0.255 A 
ATOM     20  O   UNL     1       1.891  -0.188   8.898  0.00  0.00    -0.268 OA
ATOM     21  N   UNL     1       0.213   0.947   9.830  0.00  0.00    -0.275 N 
ATOM     22  H   UNL     1       0.537   0.729  10.751  0.00  0.00    +0.173 HD
ATOM     23  C   UNL     1      -0.893   1.694   9.670  0.00  0.00    +0.327 A 
ATOM     24  O   UNL     1      -1.483   2.095  10.655  0.00  0.00    -0.247 OA
ATOM     25  N   UNL     1      -1.362   2.011   8.452  0.00  0.00    -0.302 N 
ATOM     26  H   UNL     1      -2.188   2.569   8.374  0.00  0.00    +0.171 HD
ENDBRANCH  15  17
ENDBRANCH  14  15
ENDBRANCH   1  14
TORSDOF 4
