REMARK  Name = ZINC61594936
REMARK  9 active torsions:
REMARK  status: ('A' for Active; 'I' for Inactive)
REMARK    1  A    between atoms: C_1  and  C_2
REMARK    2  A    between atoms: C_2  and  C_3
REMARK    3  A    between atoms: C_3  and  N_4
REMARK    4  A    between atoms: C_10  and  S_11
REMARK    5  A    between atoms: S_11  and  C_12
REMARK    6  A    between atoms: C_12  and  C_14
REMARK    7  A    between atoms: C_12  and  C_20
REMARK    8  A    between atoms: C_20  and  C_22
REMARK    9  A    between atoms: C_20  and  N_23
REMARK                            x       y       z     vdW  Elec       q    Type
REMARK                         _______ _______ _______ _____ _____    ______ ____
ROOT
ATOM      1  C   UNL     1      -2.641  -3.709  -3.143  0.00  0.00    +0.076 C 
ENDROOT
BRANCH   1   2
ATOM      2  C   UNL     1      -3.771  -3.448  -4.105  0.00  0.00    +0.003 A 
ATOM      3  C   UNL     1      -3.935  -3.900  -5.372  0.00  0.00    +0.013 A 
ATOM      4  C   UNL     1      -5.065  -3.527  -6.076  0.00  0.00    +0.023 A 
ATOM      5  C   UNL     1      -5.975  -2.720  -5.478  0.00  0.00    +0.055 A 
ATOM      6  S   UNL     1      -5.245  -2.468  -3.868  0.00  0.00    -0.085 S 
ATOM      7 BR   UNL     1      -7.600  -2.041  -6.167  0.00  0.00    -0.043 Br
ENDBRANCH   1   2
BRANCH   1   8
ATOM      8  C   UNL     1      -3.187  -4.396  -1.889  0.00  0.00    -0.060 C 
ATOM      9  C   UNL     1      -2.031  -4.720  -0.941  0.00  0.00    -0.013 C 
BRANCH   8  10
ATOM     10  N   UNL     1      -3.871  -5.638  -2.270  0.00  0.00    +0.381 N 
ATOM     11  H   UNL     1      -3.218  -6.253  -2.733  0.00  0.00    -0.090 HD
ATOM     12  H   UNL     1      -4.231  -6.091  -1.444  0.00  0.00    -0.090 HD
ATOM     13  H   UNL     1      -4.633  -5.425  -2.895  0.00  0.00    -0.090 HD
ENDBRANCH   8  10
ENDBRANCH   1   8
BRANCH   1  14
ATOM     14  S   UNL     1      -1.864  -2.136  -2.681  0.00  0.00    -0.079 S 
BRANCH  14  21
ATOM     15  N   UNL     1      -0.474  -0.371  -4.349  0.00  0.00    -0.271 N 
ATOM     16  C   UNL     1      -0.013  -0.316  -5.614  0.00  0.00    +0.345 A 
ATOM     17  O   UNL     1       0.599   0.610  -6.117  0.00  0.00    -0.245 OA
ATOM     18  N   UNL     1      -0.350  -1.472  -6.222  0.00  0.00    -0.226 N 
ATOM     19  H   UNL     1      -0.151  -1.718  -7.139  0.00  0.00    +0.194 HD
ATOM     20  N   UNL     1      -1.042  -2.252  -5.285  0.00  0.00    -0.145 NA
ATOM     21  C   UNL     1      -1.102  -1.583  -4.170  0.00  0.00    +0.193 A 
BRANCH  15  22
ATOM     22  C   UNL     1      -0.327   0.676  -3.336  0.00  0.00    +0.129 C 
BRANCH  22  24
ATOM     23  C   UNL     1       1.126   1.550  -1.501  0.00  0.00    +0.005 C 
ATOM     24  C   UNL     1       0.973   0.456  -2.559  0.00  0.00    +0.018 C 
ENDBRANCH  22  24
ENDBRANCH  15  22
ENDBRANCH  14  21
ENDBRANCH   1  14
TORSDOF 7
