REMARK  Name = ZINC08816823
REMARK  14 active torsions:
REMARK  status: ('A' for Active; 'I' for Inactive)
REMARK    1  A    between atoms: C_1  and  C_2
REMARK    2  A    between atoms: C_2  and  C_3
REMARK    3  A    between atoms: C_3  and  O_4
REMARK    4  A    between atoms: O_4  and  C_5
REMARK    5  A    between atoms: C_8  and  C_14
REMARK    6  A    between atoms: C_10  and  O_11
REMARK    7  A    between atoms: O_11  and  C_12
REMARK    8  A    between atoms: C_12  and  C_13
REMARK    9  A    between atoms: C_22  and  C_30
REMARK   10  A    between atoms: C_24  and  C_25
REMARK   11  A    between atoms: C_24  and  C_27
REMARK   12  A    between atoms: C_32  and  C_33
REMARK   13  A    between atoms: C_32  and  C_34
REMARK   14  A    between atoms: C_32  and  N_64
REMARK                            x       y       z     vdW  Elec       q    Type
REMARK                         _______ _______ _______ _____ _____    ______ ____
ROOT
ATOM      1  C   UNL     1       1.532   0.033   6.141  0.00  0.00    +0.064 C 
ATOM      2  C   UNL     1       1.441  -1.486   6.300  0.00  0.00    +0.010 C 
ATOM      3  C   UNL     1       0.021  -1.958   6.490  0.00  0.00    -0.070 C 
ATOM      4  C   UNL     1       0.257  -3.644   4.783  0.00  0.00    -0.051 C 
ATOM      5  C   UNL     1       1.630  -3.120   4.440  0.00  0.00    -0.044 C 
ATOM      6  C   UNL     1       2.143  -2.118   5.129  0.00  0.00    -0.051 C 
ATOM      7  C   UNL     1       3.468  -1.562   4.755  0.00  0.00    +0.163 C 
ATOM      8  C   UNL     1       3.845  -0.357   5.254  0.00  0.00    +0.065 C 
ATOM      9  C   UNL     1       3.002   0.451   6.193  0.00  0.00    +0.188 C 
ATOM     10  N   UNL     1       5.058   0.147   4.878  0.00  0.00    -0.304 NA
ATOM     11  H   UNL     1       5.353   1.006   5.219  0.00  0.00    +0.186 HD
ATOM     12  N   UNL     1      -0.544  -2.487   5.238  0.00  0.00    +0.384 N 
ATOM     13  H   UNL     1      -0.513  -1.755   4.520  0.00  0.00    -0.081 HD
ENDROOT
BRANCH   1  17
ATOM     14  C   UNL     1      -0.159   1.182   2.385  0.00  0.00    +0.162 A 
ATOM     15  C   UNL     1      -0.954   1.129   3.518  0.00  0.00    +0.050 A 
ATOM     16  C   UNL     1      -0.405   0.757   4.731  0.00  0.00    +0.008 A 
ATOM     17  C   UNL     1       0.938   0.438   4.816  0.00  0.00    -0.037 A 
ATOM     18  C   UNL     1       1.737   0.490   3.689  0.00  0.00    +0.053 A 
ATOM     19  C   UNL     1       1.191   0.856   2.470  0.00  0.00    +0.162 A 
BRANCH  14  20
ATOM     20  O   UNL     1      -0.698   1.548   1.191  0.00  0.00    -0.488 OA
BRANCH  20  21
ATOM     21  C   UNL     1      -2.091   1.864   1.177  0.00  0.00    +0.229 C 
BRANCH  21  23
ATOM     22  C   UNL     1      -4.006   2.587  -0.256  0.00  0.00    +0.007 C 
ATOM     23  C   UNL     1      -2.514   2.249  -0.242  0.00  0.00    +0.038 C 
ENDBRANCH  21  23
ENDBRANCH  20  21
ENDBRANCH  14  20
BRANCH  19  24
ATOM     24  O   UNL     1       1.975   0.902   1.359  0.00  0.00    -0.489 OA
BRANCH  24  25
ATOM     25  C   UNL     1       3.351   0.554   1.521  0.00  0.00    +0.226 C 
ATOM     26  C   UNL     1       4.067   0.663   0.173  0.00  0.00    +0.048 C 
ENDBRANCH  24  25
ENDBRANCH  19  24
ENDBRANCH   1  17
BRANCH  12  27
ATOM     27  C   UNL     1      -1.952  -2.896   5.451  0.00  0.00    -0.074 C 
ATOM     28  C   UNL     1      -2.019  -4.080   6.418  0.00  0.00    -0.014 C 
ATOM     29  C   UNL     1      -2.734  -1.717   6.034  0.00  0.00    -0.014 C 
ENDBRANCH  12  27
BRANCH   9  30
ATOM     30  C   UNL     1       3.108   1.874   5.831  0.00  0.00    +0.091 C 
ATOM     31  N   UNL     1       3.191   2.971   5.551  0.00  0.00    -0.195 NA
ENDBRANCH   9  30
BRANCH   9  32
ATOM     32  C   UNL     1       3.504   0.269   7.565  0.00  0.00    +0.091 C 
ATOM     33  N   UNL     1       3.891   0.129   8.624  0.00  0.00    -0.195 NA
ENDBRANCH   9  32
BRANCH   7  34
ATOM     34  C   UNL     1       4.338  -2.289   3.881  0.00  0.00    +0.076 C 
ATOM     35  N   UNL     1       5.029  -2.865   3.186  0.00  0.00    -0.196 NA
ENDBRANCH   7  34
TORSDOF 10
