REMARK  Name = ZINC35548916
REMARK  6 active torsions:
REMARK  status: ('A' for Active; 'I' for Inactive)
REMARK    1  A    between atoms: C_1  and  C_2
REMARK    2  A    between atoms: C_7  and  C_8
REMARK    3  A    between atoms: N_10  and  N_11
REMARK    4  A    between atoms: C_12  and  C_14
REMARK    5  A    between atoms: C_20  and  C_23
REMARK    6  A    between atoms: C_20  and  C_24
REMARK                            x       y       z     vdW  Elec       q    Type
REMARK                         _______ _______ _______ _____ _____    ______ ____
ROOT
ATOM      1  N   UNL     1       0.879   0.001   4.908  0.00  0.00    -0.233 N 
ATOM      2  C   UNL     1       1.005  -0.674   6.068  0.00  0.00    +0.239 C 
ATOM      3  O   UNL     1       1.094  -1.883   6.059  0.00  0.00    -0.273 OA
ATOM      4  H   UNL     1       0.807   0.969   4.915  0.00  0.00    +0.173 HD
ENDROOT
BRANCH   2   5
ATOM      5  C   UNL     1       1.036   0.075   7.375  0.00  0.00    +0.070 C 
ATOM      6  C   UNL     1       2.221   1.071   7.561  0.00  0.00    +0.021 C 
ATOM      7  C   UNL     1       2.313   1.286   9.089  0.00  0.00    +0.006 C 
ATOM      8  C   UNL     1       1.168   0.404   9.677  0.00  0.00    +0.000 C 
ATOM      9  C   UNL     1       1.186  -0.800   8.669  0.00  0.00    +0.025 C 
ATOM     10  C   UNL     1      -0.141   1.134   9.245  0.00  0.00    -0.010 C 
ATOM     11  C   UNL     1      -0.227   0.879   7.716  0.00  0.00    -0.056 C 
ATOM     12  C   UNL     1      -1.158   1.284   6.888  0.00  0.00    +0.009 C 
ATOM     13  C   UNL     1      -1.352   0.511   9.942  0.00  0.00    +0.016 C 
ATOM     14  C   UNL     1      -0.049   2.627   9.568  0.00  0.00    +0.016 C 
ENDBRANCH   2   5
BRANCH   1  17
ATOM     15  C   UNL     1       0.724  -0.019   2.532  0.00  0.00    +0.260 C 
ATOM     16  O   UNL     1       0.635   1.193   2.541  0.00  0.00    -0.269 OA
ATOM     17  N   UNL     1       0.850  -0.694   3.692  0.00  0.00    -0.230 N 
ATOM     18  H   UNL     1       0.921  -1.662   3.685  0.00  0.00    +0.173 HD
BRANCH  15  25
ATOM     19  C   UNL     1       0.163   1.409   0.080  0.00  0.00    +0.044 C 
ATOM     20  C   UNL     1       0.424  -0.075   0.060  0.00  0.00    -0.038 A 
ATOM     21  C   UNL     1       0.402  -0.765  -1.135  0.00  0.00    +0.004 A 
ATOM     22  C   UNL     1       0.642  -2.128  -1.154  0.00  0.00    +0.000 A 
ATOM     23  C   UNL     1       0.905  -2.807   0.022  0.00  0.00    +0.001 A 
ATOM     24  C   UNL     1       0.930  -2.129   1.223  0.00  0.00    +0.013 A 
ATOM     25  C   UNL     1       0.694  -0.753   1.249  0.00  0.00    +0.041 A 
ENDBRANCH  15  25
ENDBRANCH   1  17
TORSDOF 3
