REMARK  Name = ZINC12469288
REMARK  4 active torsions:
REMARK  status: ('A' for Active; 'I' for Inactive)
REMARK    1  A    between atoms: C_1  and  C_2
REMARK    2  A    between atoms: C_5  and  C_8
REMARK    3  A    between atoms: C_11  and  C_20
REMARK    4  A    between atoms: C_25  and  C_26
REMARK                            x       y       z     vdW  Elec       q    Type
REMARK                         _______ _______ _______ _____ _____    ______ ____
ROOT
ATOM      1  C   UNL     1      -0.404  -4.327  -0.752  0.00  0.00    +0.106 C 
ATOM      2  C   UNL     1      -1.752  -4.849  -0.242  0.00  0.00    +0.058 C 
ATOM      3  C   UNL     1      -2.029  -4.287   1.157  0.00  0.00    +0.143 C 
ATOM      4  N   UNL     1      -0.845  -4.493   1.992  0.00  0.00    -0.224 N 
ATOM      5  C   UNL     1       0.396  -4.740   1.508  0.00  0.00    +0.216 A 
ATOM      6  N   UNL     1       1.208  -4.876   2.521  0.00  0.00    -0.180 NA
ATOM      7  C   UNL     1       0.526  -4.721   3.665  0.00  0.00    +0.233 A 
ATOM      8  N   UNL     1      -0.736  -4.485   3.383  0.00  0.00    -0.132 NA
ATOM      9  N   UNL     1       1.068  -4.799   4.949  0.00  0.00    -0.326 N 
ATOM     10  N   UNL     1       0.663  -4.814   0.143  0.00  0.00    -0.307 N 
ATOM     11  H   UNL     1       2.014  -4.977   5.066  0.00  0.00    +0.145 HD
ATOM     12  H   UNL     1       0.498  -4.674   5.724  0.00  0.00    +0.145 HD
ATOM     13  H   UNL     1       1.498  -5.167  -0.200  0.00  0.00    +0.149 HD
ENDROOT
BRANCH   1  18
ATOM     14  C   UNL     1      -0.442   1.452  -0.763  0.00  0.00    +0.044 C 
ATOM     15  C   UNL     1      -0.432  -0.056  -0.760  0.00  0.00    -0.050 A 
ATOM     16  C   UNL     1      -0.640  -0.750  -1.937  0.00  0.00    +0.004 A 
ATOM     17  C   UNL     1      -0.631  -2.132  -1.934  0.00  0.00    +0.006 A 
ATOM     18  C   UNL     1      -0.413  -2.820  -0.755  0.00  0.00    -0.027 A 
ATOM     19  C   UNL     1      -0.204  -2.126   0.421  0.00  0.00    +0.006 A 
ATOM     20  C   UNL     1      -0.208  -0.743   0.418  0.00  0.00    +0.004 A 
ENDBRANCH   1  18
BRANCH   3  21
ATOM     21  C   UNL     1      -3.209  -5.001   1.764  0.00  0.00    -0.020 A 
ATOM     22  C   UNL     1      -3.212  -6.381   1.851  0.00  0.00    +0.006 A 
ATOM     23  C   UNL     1      -4.294  -7.036   2.408  0.00  0.00    +0.000 A 
ATOM     24  C   UNL     1      -5.373  -6.311   2.878  0.00  0.00    +0.000 A 
ATOM     25  C   UNL     1      -5.370  -4.932   2.793  0.00  0.00    +0.004 A 
ATOM     26  C   UNL     1      -4.286  -4.276   2.240  0.00  0.00    -0.045 A 
ATOM     27  C   UNL     1      -4.279  -2.772   2.151  0.00  0.00    +0.044 C 
ENDBRANCH   3  21
TORSDOF 2
