REMARK  Name = ZINC55334292
REMARK  3 active torsions:
REMARK  status: ('A' for Active; 'I' for Inactive)
REMARK    1  A    between atoms: C_5  and  C_7
REMARK    2  A    between atoms: C_8  and  C_13
REMARK    3  A    between atoms: C_11  and  N_12
REMARK                            x       y       z     vdW  Elec       q    Type
REMARK                         _______ _______ _______ _____ _____    ______ ____
ROOT
ATOM      1  C   UNL     1       1.248  -2.163  -0.022  0.00  0.00    +0.075 A 
ATOM      2  C   UNL     1       1.270  -3.046   1.149  0.00  0.00    +0.158 A 
ATOM      3  N   UNL     1       1.289  -4.281   0.702  0.00  0.00    -0.072 NA
ATOM      4  O   UNL     1       1.282  -4.254  -0.712  0.00  0.00    -0.339 OA
ATOM      5  C   UNL     1       1.251  -2.981  -1.133  0.00  0.00    +0.224 A 
ENDROOT
BRANCH   1  10
ATOM      6  C   UNL     1      -0.017   1.375   0.010  0.00  0.00    +0.001 A 
ATOM      7  C   UNL     1       1.170   2.087   0.002  0.00  0.00    +0.001 A 
ATOM      8  C   UNL     1       2.382   1.421  -0.013  0.00  0.00    +0.016 A 
ATOM      9  C   UNL     1       2.414   0.040  -0.021  0.00  0.00    +0.026 A 
ATOM     10  C   UNL     1       1.221  -0.682  -0.013  0.00  0.00    +0.003 A 
ATOM     11  C   UNL     1       0.002  -0.004   0.002  0.00  0.00    +0.010 A 
ATOM     12 BR   UNL     1       4.072  -0.869  -0.043  0.00  0.00    -0.050 Br
ENDBRANCH   1  10
BRANCH   2  13
ATOM     13  C   UNL     1       1.270  -2.625   2.565  0.00  0.00    +0.157 A 
ATOM     14  C   UNL     1       0.660  -3.276   3.591  0.00  0.00    +0.051 A 
ATOM     15  C   UNL     1       0.917  -2.528   4.756  0.00  0.00    +0.042 A 
ATOM     16  C   UNL     1       1.664  -1.468   4.388  0.00  0.00    +0.196 A 
ATOM     17  O   UNL     1       1.880  -1.533   3.065  0.00  0.00    -0.461 OA
ENDBRANCH   2  13
BRANCH   5  18
ATOM     18  N   UNL     1       1.230  -2.562  -2.448  0.00  0.00    -0.327 N 
ATOM     19  H   UNL     1       1.211  -1.615  -2.655  0.00  0.00    +0.145 HD
ATOM     20  H   UNL     1       1.234  -3.216  -3.165  0.00  0.00    +0.145 HD
ENDBRANCH   5  18
TORSDOF 3
