REMARK  Name = ZINC50705384
REMARK  6 active torsions:
REMARK  status: ('A' for Active; 'I' for Inactive)
REMARK    1  A    between atoms: C_1  and  O_2
REMARK    2  A    between atoms: O_2  and  C_3
REMARK    3  A    between atoms: C_8  and  N_10
REMARK    4  A    between atoms: C_11  and  C_13
REMARK    5  A    between atoms: C_15  and  N_22
REMARK    6  A    between atoms: C_18  and  N_19
REMARK                            x       y       z     vdW  Elec       q    Type
REMARK                         _______ _______ _______ _____ _____    ______ ____
ROOT
ATOM      1  C   UNL     1      -2.872  -3.034  -4.087  0.00  0.00    +0.069 A 
ATOM      2  C   UNL     1      -4.191  -3.445  -3.896  0.00  0.00    +0.038 A 
ATOM      3  C   UNL     1      -5.133  -3.219  -4.887  0.00  0.00    +0.025 A 
ATOM      4  C   UNL     1      -4.762  -2.585  -6.067  0.00  0.00    +0.025 A 
ATOM      5  C   UNL     1      -3.455  -2.177  -6.257  0.00  0.00    +0.035 A 
ATOM      6  C   UNL     1      -2.511  -2.392  -5.273  0.00  0.00    +0.138 A 
ENDROOT
BRANCH   1   8
ATOM      7  N   UNL     1      -2.075  -2.823  -1.782  0.00  0.00    -0.306 N 
ATOM      8  C   UNL     1      -1.861  -3.271  -3.035  0.00  0.00    +0.247 C 
ATOM      9  O   UNL     1      -0.837  -3.869  -3.300  0.00  0.00    -0.270 OA
ATOM     10  H   UNL     1      -2.893  -2.346  -1.570  0.00  0.00    +0.149 HD
BRANCH   7  15
ATOM     11  C   UNL     1      -1.199  -1.991   0.363  0.00  0.00    +0.138 C 
ATOM     12  C   UNL     1      -1.522  -2.742   1.671  0.00  0.00    +0.033 C 
ATOM     13  C   UNL     1      -2.159  -4.072   1.197  0.00  0.00    +0.004 C 
ATOM     14  C   UNL     1      -1.325  -4.422  -0.060  0.00  0.00    +0.025 C 
ATOM     15  C   UNL     1      -1.073  -3.058  -0.739  0.00  0.00    +0.102 C 
BRANCH  11  17
ATOM     16  C   UNL     1      -0.119   0.068   0.947  0.00  0.00    +0.194 C 
ATOM     17  O   UNL     1       0.034  -1.281   0.498  0.00  0.00    -0.378 OA
ENDBRANCH  11  17
ENDBRANCH   7  15
ENDBRANCH   1   8
BRANCH   6  18
ATOM     18  N   UNL     1      -1.114  -1.948  -5.479  0.00  0.00    +0.057 N 
ATOM     19  O   UNL     1      -0.772  -1.505  -6.550  0.00  0.00    -0.126 OA
ATOM     20  O   UNL     1      -0.315  -2.028  -4.575  0.00  0.00    -0.126 OA
ENDBRANCH   6  18
BRANCH   3  21
ATOM     21  N   UNL     1      -6.456  -3.630  -4.701  0.00  0.00    -0.358 N 
ATOM     22  H   UNL     1      -6.715  -4.073  -3.878  0.00  0.00    +0.142 HD
ATOM     23  H   UNL     1      -7.115  -3.472  -5.395  0.00  0.00    +0.142 HD
ENDBRANCH   3  21
TORSDOF 5
