REMARK  Name = ZINC15087330
REMARK  9 active torsions:
REMARK  status: ('A' for Active; 'I' for Inactive)
REMARK    1  A    between atoms: C_1  and  C_2
REMARK    2  A    between atoms: C_2  and  O_3
REMARK    3  A    between atoms: O_3  and  C_4
REMARK    4  A    between atoms: C_4  and  C_6
REMARK    5  A    between atoms: C_6  and  N_7
REMARK    6  A    between atoms: C_13  and  C_31
REMARK    7  A    between atoms: N_22  and  C_25
REMARK    8  A    between atoms: C_34  and  O_37
REMARK    9  A    between atoms: O_37  and  C_38
REMARK                            x       y       z     vdW  Elec       q    Type
REMARK                         _______ _______ _______ _____ _____    ______ ____
ROOT
ATOM      1  N   UNL     1       1.421  -3.788   2.463  0.00  0.00    -0.286 N 
ATOM      2  C   UNL     1       0.407  -4.522   3.025  0.00  0.00    +0.091 A 
ATOM      3  C   UNL     1       0.521  -5.861   2.878  0.00  0.00    +0.033 A 
ATOM      4  S   UNL     1       2.025  -6.040   1.957  0.00  0.00    -0.030 S 
ATOM      5  C   UNL     1       2.425  -4.412   1.817  0.00  0.00    +0.292 A 
ATOM      6  O   UNL     1       3.391  -3.916   1.264  0.00  0.00    -0.259 OA
ATOM      7  C   UNL     1      -0.381  -6.956   3.373  0.00  0.00    +0.072 C 
ATOM      8  C   UNL     1      -1.218  -6.413   4.505  0.00  0.00    +0.110 C 
ATOM      9  C   UNL     1      -2.088  -5.240   3.961  0.00  0.00    +0.152 C 
ATOM     10  S   UNL     1      -0.987  -3.804   3.883  0.00  0.00    -0.093 S 
ATOM     11  C   UNL     1      -3.132  -5.174   5.042  0.00  0.00    +0.240 C 
ATOM     12  O   UNL     1      -3.737  -4.190   5.411  0.00  0.00    -0.274 OA
ATOM     13  N   UNL     1      -3.261  -6.438   5.522  0.00  0.00    -0.209 N 
ATOM     14  C   UNL     1      -2.290  -7.270   5.098  0.00  0.00    +0.232 C 
ATOM     15  O   UNL     1      -2.288  -8.479   5.193  0.00  0.00    -0.274 OA
ENDROOT
BRANCH  13  16
ATOM     16  C   UNL     1      -4.312  -6.837   6.360  0.00  0.00    +0.044 A 
ATOM     17  C   UNL     1      -4.378  -8.146   6.818  0.00  0.00    +0.024 A 
ATOM     18  C   UNL     1      -5.414  -8.536   7.643  0.00  0.00    +0.002 A 
ATOM     19  C   UNL     1      -6.386  -7.625   8.013  0.00  0.00    +0.000 A 
ATOM     20  C   UNL     1      -6.324  -6.320   7.558  0.00  0.00    +0.002 A 
ATOM     21  C   UNL     1      -5.287  -5.923   6.737  0.00  0.00    +0.024 A 
ENDBRANCH  13  16
BRANCH   7  22
ATOM     22  C   UNL     1      -1.277  -7.420   2.253  0.00  0.00    -0.038 A 
ATOM     23  C   UNL     1      -1.706  -6.520   1.296  0.00  0.00    +0.008 A 
ATOM     24  C   UNL     1      -2.528  -6.942   0.268  0.00  0.00    +0.046 A 
ATOM     25  C   UNL     1      -2.921  -8.271   0.198  0.00  0.00    +0.120 A 
ATOM     26  C   UNL     1      -2.488  -9.172   1.160  0.00  0.00    +0.046 A 
ATOM     27  C   UNL     1      -1.663  -8.745   2.182  0.00  0.00    +0.008 A 
BRANCH  25  28
ATOM     28  O   UNL     1      -3.729  -8.688  -0.812  0.00  0.00    -0.495 OA
ATOM     29  C   UNL     1      -4.094 -10.070  -0.821  0.00  0.00    +0.277 C 
ENDBRANCH  25  28
ENDBRANCH   7  22
BRANCH   1  30
ATOM     30  C   UNL     1       1.410  -2.327   2.563  0.00  0.00    +0.246 C 
BRANCH  30  31
ATOM     31  C   UNL     1       0.672  -1.749   1.383  0.00  0.00    +0.327 C 
ATOM     32  O   UNL     1       0.203  -2.483   0.545  0.00  0.00    -0.249 OA
BRANCH  31  33
ATOM     33  O   UNL     1       0.534  -0.419   1.262  0.00  0.00    -0.464 OA
BRANCH  33  35
ATOM     34  C   UNL     1      -0.230   1.588   0.154  0.00  0.00    +0.048 C 
ATOM     35  C   UNL     1      -0.177   0.059   0.119  0.00  0.00    +0.229 C 
ENDBRANCH  33  35
ENDBRANCH  31  33
ENDBRANCH  30  31
ENDBRANCH   1  30
TORSDOF 7
