REMARK  Name = ZINC35926885
REMARK  8 active torsions:
REMARK  status: ('A' for Active; 'I' for Inactive)
REMARK    1  A    between atoms: C_1  and  C_2
REMARK    2  A    between atoms: C_2  and  C_3
REMARK    3  A    between atoms: C_2  and  C_4
REMARK    4  A    between atoms: C_4  and  C_5
REMARK    5  A    between atoms: C_5  and  N_6
REMARK    6  A    between atoms: C_18  and  C_20
REMARK    7  A    between atoms: C_20  and  N_21
REMARK    8  A    between atoms: C_24  and  N_27
REMARK                            x       y       z     vdW  Elec       q    Type
REMARK                         _______ _______ _______ _____ _____    ______ ____
ROOT
ATOM      1  N   UNL     1       0.827  -0.594   3.613  0.00  0.00    +0.382 N 
ATOM      2  C   UNL     1       2.202  -0.108   3.782  0.00  0.00    -0.060 C 
ATOM      3  C   UNL     1       2.809  -0.724   5.046  0.00  0.00    +0.089 C 
ATOM      4  N   UNL     1       1.919  -0.433   6.181  0.00  0.00    -0.305 N 
ATOM      5  C   UNL     1       0.488  -0.740   6.035  0.00  0.00    +0.089 C 
ATOM      6  C   UNL     1      -0.010  -0.123   4.723  0.00  0.00    -0.060 C 
ATOM      7  C   UNL     1       2.408   0.107   7.339  0.00  0.00    +0.198 A 
ATOM      8  N   UNL     1       1.582   0.253   8.410  0.00  0.00    -0.295 N 
ATOM      9  H   UNL     1       0.654  -0.024   8.351  0.00  0.00    +0.172 HD
ATOM     10  C   UNL     1       2.058   0.786   9.556  0.00  0.00    +0.253 A 
ATOM     11  O   UNL     1       1.331   0.923  10.526  0.00  0.00    -0.268 OA
ATOM     12  C   UNL     1       3.407   1.178   9.611  0.00  0.00    +0.091 A 
ATOM     13  C   UNL     1       4.188   1.007   8.505  0.00  0.00    +0.034 A 
ATOM     14  N   UNL     1       3.674   0.473   7.399  0.00  0.00    -0.223 NA
ATOM     15  H   UNL     1       0.829  -1.603   3.600  0.00  0.00    -0.082 HD
ENDROOT
BRANCH   1  16
ATOM     16  C   UNL     1       0.284  -0.091   2.345  0.00  0.00    -0.078 C 
BRANCH  16  17
ATOM     17  C   UNL     1       1.079  -0.681   1.179  0.00  0.00    -0.016 C 
BRANCH  17  19
ATOM     18  C   UNL     1       0.733   1.355  -0.227  0.00  0.00    +0.007 C 
ATOM     19  C   UNL     1       0.513  -0.157  -0.142  0.00  0.00    -0.019 C 
ATOM     20  C   UNL     1       1.226  -0.842  -1.310  0.00  0.00    +0.007 C 
ENDBRANCH  17  19
ENDBRANCH  16  17
ENDBRANCH   1  16
BRANCH  13  21
ATOM     21  C   UNL     1       5.637   1.419   8.537  0.00  0.00    -0.022 C 
BRANCH  21  22
ATOM     22  N   UNL     1       6.488   0.230   8.394  0.00  0.00    +0.383 N 
ATOM     23  C   UNL     1       6.274  -0.366   7.069  0.00  0.00    -0.077 C 
ATOM     24  C   UNL     1       7.096  -1.651   6.945  0.00  0.00    +0.000 C 
ATOM     25  C   UNL     1       8.581  -1.319   7.124  0.00  0.00    +0.053 C 
ATOM     26  C   UNL     1       8.781  -0.631   8.477  0.00  0.00    +0.000 C 
ATOM     27  C   UNL     1       7.896   0.616   8.544  0.00  0.00    -0.077 C 
ATOM     28  H   UNL     1       6.246  -0.443   9.106  0.00  0.00    -0.081 HD
BRANCH  25  29
ATOM     29  N   UNL     1       9.369  -2.558   7.082  0.00  0.00    -0.300 NA
ATOM     30  C   UNL     1       8.974  -3.470   8.162  0.00  0.00    +0.084 C 
ATOM     31  C   UNL     1       9.709  -4.803   8.001  0.00  0.00    +0.015 C 
ATOM     32  C   UNL     1      11.219  -4.555   8.044  0.00  0.00    +0.002 C 
ATOM     33  C   UNL     1      11.598  -3.565   6.939  0.00  0.00    +0.015 C 
ATOM     34  C   UNL     1      10.808  -2.268   7.131  0.00  0.00    +0.084 C 
ENDBRANCH  25  29
ENDBRANCH  21  22
ENDBRANCH  13  21
TORSDOF 6
