REMARK  Name = ZINC66577459
REMARK  5 active torsions:
REMARK  status: ('A' for Active; 'I' for Inactive)
REMARK    1  A    between atoms: C_1  and  C_2
REMARK    2  A    between atoms: C_3  and  C_11
REMARK    3  A    between atoms: N_13  and  N_14
REMARK    4  A    between atoms: N_14  and  S_15
REMARK    5  A    between atoms: S_15  and  C_18
REMARK                            x       y       z     vdW  Elec       q    Type
REMARK                         _______ _______ _______ _____ _____    ______ ____
ROOT
ATOM      1  C   UNL     1       0.156  -0.359  -2.861  0.00  0.00    +0.277 C 
ATOM      2  O   UNL     1       0.778   0.634  -3.192  0.00  0.00    -0.267 OA
ATOM      3  N   UNL     1      -0.333  -1.192  -3.801  0.00  0.00    -0.227 N 
ATOM      4  H   UNL     1      -0.892  -1.941  -3.542  0.00  0.00    +0.171 HD
ENDROOT
BRANCH   1   7
ATOM      5  C   UNL     1       2.106  -1.973  -1.038  0.00  0.00    +0.068 C 
ATOM      6  C   UNL     1       0.790  -1.351  -0.648  0.00  0.00    +0.069 A 
ATOM      7  C   UNL     1      -0.053  -0.640  -1.487  0.00  0.00    +0.132 A 
ATOM      8  N   UNL     1      -1.137  -0.257  -0.719  0.00  0.00    -0.295 N 
ATOM      9  C   UNL     1      -2.260   0.452  -1.008  0.00  0.00    +0.093 A 
ATOM     10  C   UNL     1      -3.188   0.694  -0.054  0.00  0.00    +0.018 A 
ATOM     11  C   UNL     1      -2.998   0.213   1.249  0.00  0.00    +0.005 A 
ATOM     12  C   UNL     1      -1.875  -0.499   1.547  0.00  0.00    +0.047 A 
ATOM     13  C   UNL     1      -0.923  -0.740   0.541  0.00  0.00    +0.138 A 
ATOM     14  N   UNL     1       0.236  -1.395   0.553  0.00  0.00    -0.232 NA
ENDBRANCH   1   7
BRANCH   3  15
ATOM     15  N   UNL     1      -0.034  -0.976  -5.152  0.00  0.00    -0.112 NA
ATOM     16  H   UNL     1      -0.643  -0.464  -5.708  0.00  0.00    +0.171 HD
BRANCH  15  17
ATOM     17  S   UNL     1       1.358  -1.594  -5.802  0.00  0.00    +0.047 S 
ATOM     18  O   UNL     1       1.319  -1.216  -7.171  0.00  0.00    -0.157 OA
ATOM     19  O   UNL     1       2.395  -1.125  -4.950  0.00  0.00    -0.157 OA
BRANCH  17  20
ATOM     20  C   UNL     1       1.187  -3.393  -5.646  0.00  0.00    +0.149 C 
ATOM     21  C   UNL     1       1.122  -3.773  -4.165  0.00  0.00    +0.028 C 
ATOM     22  C   UNL     1       0.977  -5.290  -4.033  0.00  0.00    +0.002 C 
ATOM     23  C   UNL     1       2.181  -5.976  -4.683  0.00  0.00    +0.000 C 
ATOM     24  C   UNL     1       2.245  -5.596  -6.164  0.00  0.00    +0.002 C 
ATOM     25  C   UNL     1       2.390  -4.079  -6.296  0.00  0.00    +0.028 C 
ENDBRANCH  17  20
ENDBRANCH  15  17
ENDBRANCH   3  15
TORSDOF 4
