REMARK  Name = ZINC14001104
REMARK  3 active torsions:
REMARK  status: ('A' for Active; 'I' for Inactive)
REMARK    1  A    between atoms: N_13  and  C_16
REMARK    2  A    between atoms: C_16  and  C_17
REMARK    3  A    between atoms: C_22  and  N_56
REMARK                            x       y       z     vdW  Elec       q    Type
REMARK                         _______ _______ _______ _____ _____    ______ ____
ROOT
ATOM      1  C   UNL     1      -2.451   0.943   0.019  0.00  0.00    +0.222 C 
ENDROOT
BRANCH   1  14
ATOM      2  C   UNL     1       4.388   5.097  -0.015  0.00  0.00    +0.001 A 
ATOM      3  C   UNL     1       3.787   6.348  -0.004  0.00  0.00    +0.002 A 
ATOM      4  C   UNL     1       2.416   6.466   0.010  0.00  0.00    +0.026 A 
ATOM      5  C   UNL     1       1.620   5.323   0.013  0.00  0.00    +0.049 A 
ATOM      6  C   UNL     1       2.235   4.059   0.002  0.00  0.00    +0.026 A 
ATOM      7  C   UNL     1       3.627   3.962  -0.013  0.00  0.00    +0.012 A 
ATOM      8  C   UNL     1       1.150   3.068   0.007  0.00  0.00    +0.103 A 
ATOM      9  C   UNL     1      -0.042   3.788   0.022  0.00  0.00    +0.131 A 
ATOM     10  N   UNL     1       0.254   5.137   0.025  0.00  0.00    -0.349 N 
ATOM     11  H   UNL     1      -0.403   5.851   0.035  0.00  0.00    +0.166 HD
ATOM     12  C   UNL     1      -1.259   3.068   0.030  0.00  0.00    +0.278 A 
ATOM     13  O   UNL     1      -2.330   3.652   0.043  0.00  0.00    -0.265 OA
ATOM     14  N   UNL     1      -1.208   1.718   0.017  0.00  0.00    -0.289 N 
ATOM     15  C   UNL     1      -0.013   1.076   0.008  0.00  0.00    +0.203 A 
ATOM     16  N   UNL     1       1.118   1.724   0.001  0.00  0.00    -0.235 NA
ENDBRANCH   1  14
BRANCH   1  17
ATOM     17  C   UNL     1      -2.870   0.669   1.440  0.00  0.00    +0.235 C 
ATOM     18  O   UNL     1      -2.197   1.081   2.361  0.00  0.00    -0.274 OA
ATOM     19  N   UNL     1      -3.993  -0.034   1.688  0.00  0.00    -0.300 N 
ATOM     20  C   UNL     1      -4.822  -0.534   0.583  0.00  0.00    +0.106 C 
ATOM     21  C   UNL     1      -5.026  -2.045   0.771  0.00  0.00    +0.004 C 
ATOM     22  C   UNL     1      -5.608  -2.307   2.162  0.00  0.00    -0.066 C 
ATOM     23  C   UNL     1      -4.626  -1.817   3.228  0.00  0.00    +0.004 C 
ATOM     24  C   UNL     1      -4.415  -0.308   3.069  0.00  0.00    +0.106 C 
BRANCH  22  30
ATOM     25  C   UNL     1      -4.588  -4.502   2.181  0.00  0.00    -0.078 C 
ATOM     26  C   UNL     1      -4.837  -5.976   2.508  0.00  0.00    -0.019 C 
ATOM     27  C   UNL     1      -5.907  -6.530   1.563  0.00  0.00    -0.004 C 
ATOM     28  C   UNL     1      -7.184  -5.696   1.706  0.00  0.00    -0.019 C 
ATOM     29  C   UNL     1      -6.866  -4.231   1.402  0.00  0.00    -0.078 C 
ATOM     30  N   UNL     1      -5.848  -3.751   2.361  0.00  0.00    +0.382 N 
ATOM     31  H   UNL     1      -6.193  -3.903   3.316  0.00  0.00    -0.081 HD
ENDBRANCH  22  30
ENDBRANCH   1  17
TORSDOF 3
