REMARK  Name = ZINC36301097
REMARK  6 active torsions:
REMARK  status: ('A' for Active; 'I' for Inactive)
REMARK    1  A    between atoms: C_1  and  C_2
REMARK    2  A    between atoms: C_5  and  C_8
REMARK    3  A    between atoms: C_10  and  C_13
REMARK    4  A    between atoms: C_13  and  N_14
REMARK    5  A    between atoms: N_14  and  C_15
REMARK    6  A    between atoms: N_14  and  C_16
REMARK                            x       y       z     vdW  Elec       q    Type
REMARK                         _______ _______ _______ _____ _____    ______ ____
ROOT
ATOM      1  C   UNL     1       0.059  -4.256  -0.021  0.00  0.00    +0.202 A 
ATOM      2  N   UNL     1       0.070  -5.047   1.067  0.00  0.00    -0.193 NA
ATOM      3  C   UNL     1       0.086  -6.299   0.708  0.00  0.00    +0.211 A 
ATOM      4  O   UNL     1       0.086  -6.357  -0.630  0.00  0.00    -0.340 OA
ATOM      5  N   UNL     1       0.064  -5.015  -1.090  0.00  0.00    -0.056 NA
ENDROOT
BRANCH   1  10
ATOM      6  C   UNL     1      -0.018   1.503   0.010  0.00  0.00    +0.044 C 
ATOM      7  C   UNL     1       0.002  -0.004   0.002  0.00  0.00    -0.050 A 
ATOM      8  C   UNL     1       0.006  -0.686  -1.201  0.00  0.00    +0.004 A 
ATOM      9  C   UNL     1       0.024  -2.067  -1.214  0.00  0.00    +0.012 A 
ATOM     10  C   UNL     1       0.040  -2.772  -0.013  0.00  0.00    +0.022 A 
ATOM     11  C   UNL     1       0.036  -2.080   1.196  0.00  0.00    +0.012 A 
ATOM     12  C   UNL     1       0.023  -0.700   1.198  0.00  0.00    +0.004 A 
ENDBRANCH   1  10
BRANCH   3  13
ATOM     13  C   UNL     1       0.102  -7.482   1.642  0.00  0.00    +0.022 C 
BRANCH  13  14
ATOM     14  N   UNL     1      -1.278  -7.884   1.946  0.00  0.00    +0.386 N 
ATOM     15  C   UNL     1      -1.948  -6.810   2.692  0.00  0.00    -0.095 C 
ATOM     16  H   UNL     1      -1.776  -8.057   1.086  0.00  0.00    -0.081 HD
BRANCH  14  17
ATOM     17  C   UNL     1      -1.263  -9.108   2.758  0.00  0.00    -0.066 C 
ATOM     18  C   UNL     1      -2.701  -9.533   3.070  0.00  0.00    -0.000 C 
ATOM     19  C   UNL     1      -2.681 -10.841   3.864  0.00  0.00    +0.079 C 
ATOM     20  N   UNL     1      -2.003 -11.881   3.079  0.00  0.00    -0.316 NA
ATOM     21  C   UNL     1      -0.607 -11.517   2.808  0.00  0.00    +0.079 C 
ATOM     22  C   UNL     1      -0.565 -10.229   1.982  0.00  0.00    -0.000 C 
ATOM     23  H   UNL     1      -2.060 -12.777   3.540  0.00  0.00    +0.122 HD
ENDBRANCH  14  17
ENDBRANCH  13  14
ENDBRANCH   3  13
TORSDOF 4
