REMARK  Name = ZINC04795907
REMARK  3 active torsions:
REMARK  status: ('A' for Active; 'I' for Inactive)
REMARK    1  A    between atoms: C_4  and  N_7
REMARK    2  A    between atoms: N_12  and  C_15
REMARK    3  A    between atoms: C_19  and  N_21
REMARK                            x       y       z     vdW  Elec       q    Type
REMARK                         _______ _______ _______ _____ _____    ______ ____
ROOT
ATOM      1  N   UNL     1       3.623  -0.652  -0.037  0.00  0.00    -0.214 N 
ATOM      2  C   UNL     1       4.836  -0.070  -0.137  0.00  0.00    +0.127 C 
ATOM      3  S   UNL     1       5.171   1.604  -0.264  0.00  0.00    -0.031 S 
ATOM      4  C   UNL     1       5.823  -1.181  -0.113  0.00  0.00    +0.155 C 
ATOM      5  N   UNL     1       7.117  -1.091  -0.184  0.00  0.00    -0.283 NA
ATOM      6  N   UNL     1       5.062  -2.339   0.002  0.00  0.00    -0.206 N 
ATOM      7  C   UNL     1       3.767  -1.983   0.050  0.00  0.00    +0.324 C 
ATOM      8  O   UNL     1       2.844  -2.767   0.155  0.00  0.00    -0.251 OA
ATOM      9  H   UNL     1       7.538  -0.221  -0.263  0.00  0.00    +0.188 HD
ENDROOT
BRANCH   1  13
ATOM     10  C   UNL     1      -0.016   1.380   0.011  0.00  0.00    +0.000 A 
ATOM     11  C   UNL     1       0.419   0.717   1.144  0.00  0.00    +0.002 A 
ATOM     12  C   UNL     1       1.625   0.043   1.131  0.00  0.00    +0.024 A 
ATOM     13  C   UNL     1       2.400   0.031  -0.021  0.00  0.00    +0.043 A 
ATOM     14  C   UNL     1       1.959   0.697  -1.157  0.00  0.00    +0.024 A 
ATOM     15  C   UNL     1       0.753   1.370  -1.138  0.00  0.00    +0.002 A 
ENDBRANCH   1  13
BRANCH   6  16
ATOM     16  C   UNL     1       5.559  -3.647   0.063  0.00  0.00    +0.046 A 
ATOM     17  C   UNL     1       4.683  -4.720   0.172  0.00  0.00    +0.024 A 
ATOM     18  C   UNL     1       5.176  -6.008   0.233  0.00  0.00    +0.004 A 
ATOM     19  C   UNL     1       6.540  -6.232   0.185  0.00  0.00    +0.033 A 
ATOM     20  C   UNL     1       7.414  -5.166   0.077  0.00  0.00    +0.128 A 
ATOM     21  C   UNL     1       6.927  -3.875   0.010  0.00  0.00    +0.056 A 
BRANCH  20  22
ATOM     22  N   UNL     1       8.873  -5.410   0.027  0.00  0.00    +0.056 N 
ATOM     23  O   UNL     1       9.300  -6.540   0.081  0.00  0.00    -0.126 OA
ATOM     24  O   UNL     1       9.638  -4.478  -0.068  0.00  0.00    -0.126 OA
ENDBRANCH  20  22
ENDBRANCH   6  16
TORSDOF 3
