REMARK  Name = ZINC33058036
REMARK  9 active torsions:
REMARK  status: ('A' for Active; 'I' for Inactive)
REMARK    1  A    between atoms: C_1  and  C_2
REMARK    2  A    between atoms: C_5  and  C_8
REMARK    3  A    between atoms: C_8  and  N_9
REMARK    4  A    between atoms: C_10  and  C_12
REMARK    5  A    between atoms: C_12  and  N_13
REMARK    6  A    between atoms: C_18  and  C_20
REMARK    7  A    between atoms: N_22  and  C_29
REMARK    8  A    between atoms: C_23  and  N_24
REMARK    9  A    between atoms: C_32  and  C_35
REMARK                            x       y       z     vdW  Elec       q    Type
REMARK                         _______ _______ _______ _____ _____    ______ ____
ROOT
ATOM      1  N   UNL     1      -0.590  -2.350  -0.004  0.00  0.00    -0.220 N 
ATOM      2  C   UNL     1      -1.003  -1.066   0.006  0.00  0.00    +0.281 A 
ATOM      3  O   UNL     1      -2.191  -0.796   0.019  0.00  0.00    -0.265 OA
ATOM      4  C   UNL     1       0.002  -0.004   0.002  0.00  0.00    +0.112 A 
ATOM      5  C   UNL     1       1.421  -0.403  -0.014  0.00  0.00    +0.123 A 
ATOM      6  C   UNL     1       1.725  -1.838  -0.023  0.00  0.00    +0.086 A 
ATOM      7  N   UNL     1       0.758  -2.703  -0.018  0.00  0.00    -0.171 NA
ATOM      8  C   UNL     1       3.157  -2.306  -0.040  0.00  0.00    +0.070 C 
ATOM      9  N   UNL     1       2.128   0.701  -0.015  0.00  0.00    -0.162 NA
ATOM     10  N   UNL     1       1.264   1.802  -0.000  0.00  0.00    -0.215 N 
ATOM     11  C   UNL     1      -0.017   1.378   0.010  0.00  0.00    +0.154 A 
ENDROOT
BRANCH  10  12
ATOM     12  C   UNL     1       1.669   3.143   0.003  0.00  0.00    +0.068 A 
ATOM     13  C   UNL     1       0.924   4.096  -0.680  0.00  0.00    +0.028 A 
ATOM     14  C   UNL     1       1.323   5.418  -0.671  0.00  0.00    +0.005 A 
ATOM     15  C   UNL     1       2.468   5.792   0.008  0.00  0.00    -0.050 A 
ATOM     16  C   UNL     1       3.215   4.845   0.684  0.00  0.00    +0.005 A 
ATOM     17  C   UNL     1       2.819   3.522   0.683  0.00  0.00    +0.028 A 
ATOM     18  C   UNL     1       2.904   7.235   0.010  0.00  0.00    +0.044 C 
ENDBRANCH  10  12
BRANCH  11  19
ATOM     19  N   UNL     1      -1.149   2.184   0.020  0.00  0.00    -0.307 N 
ATOM     20  C   UNL     1      -2.256   2.015  -0.765  0.00  0.00    +0.092 A 
ATOM     21  C   UNL     1      -3.138   2.989  -0.465  0.00  0.00    +0.019 A 
ATOM     22  C   UNL     1      -2.555   3.796   0.534  0.00  0.00    +0.019 A 
ATOM     23  C   UNL     1      -1.340   3.282   0.812  0.00  0.00    +0.092 A 
ENDBRANCH  11  19
BRANCH   1  24
ATOM     24  C   UNL     1      -1.597  -3.414   0.000  0.00  0.00    +0.243 C 
BRANCH  24  26
ATOM     25  N   UNL     1      -2.869  -4.733  -1.661  0.00  0.00    -0.310 N 
ATOM     26  C   UNL     1      -1.956  -3.772  -1.419  0.00  0.00    +0.235 C 
ATOM     27  O   UNL     1      -1.423  -3.195  -2.343  0.00  0.00    -0.274 OA
ATOM     28  H   UNL     1      -3.352  -5.256  -0.823  0.00  0.00    +0.149 HD
BRANCH  25  29
ATOM     29  C   UNL     1      -3.218  -5.080  -3.041  0.00  0.00    +0.139 C 
BRANCH  29  34
ATOM     30  C   UNL     1      -7.190  -9.277  -3.025  0.00  0.00    +0.044 C 
ATOM     31  C   UNL     1      -6.154  -8.183  -3.029  0.00  0.00    -0.050 A 
ATOM     32  C   UNL     1      -6.549  -6.858  -3.018  0.00  0.00    +0.003 A 
ATOM     33  C   UNL     1      -5.598  -5.854  -3.022  0.00  0.00    +0.005 A 
ATOM     34  C   UNL     1      -4.254  -6.175  -3.037  0.00  0.00    -0.030 A 
ATOM     35  C   UNL     1      -3.860  -7.500  -3.053  0.00  0.00    +0.005 A 
ATOM     36  C   UNL     1      -4.810  -8.504  -3.044  0.00  0.00    +0.003 A 
ENDBRANCH  29  34
ENDBRANCH  25  29
ENDBRANCH  24  26
ENDBRANCH   1  24
TORSDOF 6
