REMARK  Name = ZINC40774387
REMARK  9 active torsions:
REMARK  status: ('A' for Active; 'I' for Inactive)
REMARK    1  A    between atoms: CD1_1  and  CG_2
REMARK    2  A    between atoms: CG_2  and  CD2_3
REMARK    3  A    between atoms: CG_2  and  CB_4
REMARK    4  A    between atoms: CB_4  and  CA_5
REMARK    5  A    between atoms: CA_5  and  C_7
REMARK    6  A    between atoms: CA_5  and  N_9
REMARK    7  A    between atoms: C_7  and  O_8
REMARK    8  A    between atoms: N_9  and  C_10
REMARK    9  A    between atoms: C_15  and  N_16
REMARK                            x       y       z     vdW  Elec       q    Type
REMARK                         _______ _______ _______ _____ _____    ______ ____
ROOT
ATOM      1  C   UNK A   0      -2.243   1.645  -2.850  0.00  0.00    +0.050 A 
ATOM      2  C   UNK A   0      -2.202   0.811  -3.957  0.00  0.00    +0.051 A 
ATOM      3  C   UNK A   0      -2.271   1.352  -5.231  0.00  0.00    +0.078 A 
ATOM      4  C   UNK A   0      -2.382   2.731  -5.401  0.00  0.00    +0.144 A 
ATOM      5  C   UNK A   0      -2.423   3.563  -4.296  0.00  0.00    +0.072 A 
ATOM      6  C   UNK A   0      -2.360   3.023  -3.020  0.00  0.00    +0.049 A 
ATOM      7  O   UNK A   0      -2.447   3.246  -6.659  0.00  0.00    -0.481 OA
ATOM      8  C   UNK A   0      -1.718   2.554  -7.676  0.00  0.00    +0.325 C 
ATOM      9  C   UNK A   0      -1.984   1.074  -7.571  0.00  0.00    +0.255 C 
ATOM     10  O   UNK A   0      -1.974   0.382  -8.567  0.00  0.00    -0.272 OA
ATOM     11  N   UNK A   0      -2.232   0.522  -6.364  0.00  0.00    -0.280 N 
ATOM     12  H   UNK A   0      -2.381  -0.433  -6.280  0.00  0.00    +0.155 HD
ENDROOT
BRANCH   6  13
ATOM     13  N   UNK A   0      -2.408   3.866  -1.900  0.00  0.00    -0.356 N 
ATOM     14  H   UNK A   0      -2.359   3.489  -1.007  0.00  0.00    +0.142 HD
ATOM     15  H   UNK A   0      -2.489   4.825  -2.017  0.00  0.00    +0.142 HD
ENDBRANCH   6  13
BRANCH   1  16
ATOM     16  N   LEU A   1      -2.173   1.101  -1.559  0.00  0.00    -0.337 N 
ATOM     17  H   LEU A   1      -2.206   1.684  -0.784  0.00  0.00    +0.146 HD
BRANCH  16  18
ATOM     18  CA  LEU A   1      -2.050  -0.348  -1.381  0.00  0.00    +0.096 C 
BRANCH  18  19
ATOM     19  CB  LEU A   1      -1.388  -0.642  -0.033  0.00  0.00    +0.027 C 
BRANCH  19  21
ATOM     20  CD1 LEU A   1       0.655  -0.265   1.354  0.00  0.00    +0.007 C 
ATOM     21  CG  LEU A   1       0.040  -0.094  -0.036  0.00  0.00    -0.015 C 
ATOM     22  CD2 LEU A   1       0.878  -0.861  -1.062  0.00  0.00    +0.007 C 
ENDBRANCH  19  21
ENDBRANCH  18  19
BRANCH  18  23
ATOM     23  C   LEU A   1      -3.441  -0.986  -1.415  0.00  0.00    +0.178 C 
BRANCH  23  24
ATOM     24  O   LEU A   1      -4.202  -0.530  -0.295  0.00  0.00    -0.393 OA
ATOM     25  H   LEU A   1      -5.096  -0.895  -0.253  0.00  0.00    +0.209 HD
ENDBRANCH  23  24
ENDBRANCH  18  23
ENDBRANCH  16  18
ENDBRANCH   1  16
TORSDOF 7
