REMARK  Name = ZINC66567424
REMARK  13 active torsions:
REMARK  status: ('A' for Active; 'I' for Inactive)
REMARK    1  A    between atoms: C_1  and  C_2
REMARK    2  A    between atoms: C_2  and  N_3
REMARK    3  A    between atoms: C_6  and  N_9
REMARK    4  A    between atoms: C_10  and  C_12
REMARK    5  A    between atoms: C_12  and  N_13
REMARK    6  A    between atoms: C_16  and  C_19
REMARK    7  A    between atoms: C_16  and  N_20
REMARK    8  A    between atoms: N_20  and  C_21
REMARK    9  A    between atoms: C_22  and  O_24
REMARK   10  A    between atoms: O_24  and  C_25
REMARK   11  A    between atoms: C_25  and  C_26
REMARK   12  A    between atoms: C_25  and  C_27
REMARK   13  A    between atoms: C_25  and  C_28
REMARK                            x       y       z     vdW  Elec       q    Type
REMARK                         _______ _______ _______ _____ _____    ______ ____
ROOT
ATOM      1  N   UNL     1       4.929  -5.461  -5.135  0.00  0.00    +0.386 N 
ATOM      2  C   UNL     1       6.023  -5.579  -4.164  0.00  0.00    -0.076 C 
ATOM      3  C   UNL     1       6.457  -7.042  -4.054  0.00  0.00    +0.007 C 
ATOM      4  C   UNL     1       6.933  -7.532  -5.424  0.00  0.00    +0.034 C 
ATOM      5  C   UNL     1       5.809  -7.336  -6.445  0.00  0.00    +0.007 C 
ATOM      6  C   UNL     1       5.399  -5.861  -6.467  0.00  0.00    -0.076 C 
ATOM      7  C   UNL     1       7.293  -9.017  -5.340  0.00  0.00    +0.032 C 
ATOM      8  H   UNL     1       4.167  -6.060  -4.854  0.00  0.00    -0.081 HD
ENDROOT
BRANCH   4   9
ATOM      9  N   UNL     1       8.110  -6.764  -5.838  0.00  0.00    -0.265 N 
ATOM     10  C   UNL     1       8.133  -6.108  -7.147  0.00  0.00    +0.136 C 
ATOM     11  C   UNL     1       9.171  -6.660  -5.013  0.00  0.00    +0.404 C 
ATOM     12  O   UNL     1       9.152  -7.204  -3.927  0.00  0.00    -0.226 OA
BRANCH  11  13
ATOM     13  O   UNL     1      10.252  -5.954  -5.393  0.00  0.00    -0.445 OA
BRANCH  13  14
ATOM     14  C   UNL     1      11.341  -5.886  -4.470  0.00  0.00    +0.107 C 
ATOM     15  C   UNL     1      11.853  -7.298  -4.181  0.00  0.00    +0.055 C 
ATOM     16  C   UNL     1      12.470  -5.047  -5.072  0.00  0.00    +0.055 C 
ATOM     17  C   UNL     1      10.864  -5.240  -3.167  0.00  0.00    +0.055 C 
ENDBRANCH  13  14
ENDBRANCH  11  13
ENDBRANCH   4   9
BRANCH   1  18
ATOM     18  C   UNL     1       4.464  -4.068  -5.180  0.00  0.00    +0.019 C 
BRANCH  18  20
ATOM     19  N   UNL     1       3.373  -2.455  -3.655  0.00  0.00    -0.314 N 
ATOM     20  C   UNL     1       3.868  -3.694  -3.848  0.00  0.00    +0.197 C 
ATOM     21  O   UNL     1       3.834  -4.507  -2.949  0.00  0.00    -0.278 OA
ATOM     22  H   UNL     1       3.400  -1.805  -4.373  0.00  0.00    +0.149 HD
BRANCH  19  26
ATOM     23  N   UNL     1       0.796  -0.602  -0.882  0.00  0.00    +0.380 N 
ATOM     24  C   UNL     1       2.205  -0.194  -0.848  0.00  0.00    -0.077 C 
ATOM     25  C   UNL     1       2.883  -0.575  -2.166  0.00  0.00    +0.003 C 
ATOM     26  C   UNL     1       2.794  -2.092  -2.359  0.00  0.00    +0.069 C 
ATOM     27  C   UNL     1       1.323  -2.516  -2.318  0.00  0.00    +0.003 C 
ATOM     28  C   UNL     1       0.704  -2.063  -0.995  0.00  0.00    -0.077 C 
ATOM     29  H   UNL     1       0.343  -0.175  -1.676  0.00  0.00    -0.082 HD
BRANCH  23  31
ATOM     30  C   UNL     1       0.117   1.364   0.411  0.00  0.00    -0.017 C 
ATOM     31  C   UNL     1       0.131  -0.165   0.353  0.00  0.00    -0.082 C 
ENDBRANCH  23  31
ENDBRANCH  19  26
ENDBRANCH  18  20
ENDBRANCH   1  18
TORSDOF 7
