REMARK  Name = ZINC13567719
REMARK  7 active torsions:
REMARK  status: ('A' for Active; 'I' for Inactive)
REMARK    1  A    between atoms: C_1  and  C_2
REMARK    2  A    between atoms: C_2  and  C_3
REMARK    3  A    between atoms: C_6  and  N_9
REMARK    4  A    between atoms: N_24  and  C_27
REMARK    5  A    between atoms: C_27  and  C_28
REMARK    6  A    between atoms: C_30  and  C_33
REMARK    7  A    between atoms: C_31  and  N_32
REMARK                            x       y       z     vdW  Elec       q    Type
REMARK                         _______ _______ _______ _____ _____    ______ ____
ROOT
ATOM      1  N   UNL     1       2.027   6.813  -0.120  0.00  0.00    -0.260 N 
ATOM      2  C   UNL     1       1.173   7.184  -1.125  0.00  0.00    +0.025 C 
ATOM      3  C   UNL     1      -0.051   6.624  -1.229  0.00  0.00    +0.037 C 
ATOM      4  C   UNL     1      -0.939   7.005  -2.250  0.00  0.00    +0.162 C 
ATOM      5  O   UNL     1      -2.029   6.473  -2.322  0.00  0.00    -0.292 OA
ATOM      6  C   UNL     1      -0.564   8.059  -3.255  0.00  0.00    +0.080 C 
ATOM      7  C   UNL     1       0.432   9.030  -2.612  0.00  0.00    +0.014 C 
ATOM      8  C   UNL     1       1.635   8.228  -2.111  0.00  0.00    +0.052 C 
ATOM      9  C   UNL     1      -0.502   5.571  -0.250  0.00  0.00    +0.141 C 
ATOM     10  C   UNL     1      -0.499   4.218  -0.893  0.00  0.00    -0.001 A 
ATOM     11  C   UNL     1       0.524   3.466  -1.429  0.00  0.00    +0.007 A 
ATOM     12  C   UNL     1       0.186   2.224  -1.955  0.00  0.00    +0.000 A 
ATOM     13  C   UNL     1      -1.117   1.769  -1.940  0.00  0.00    +0.002 A 
ATOM     14  C   UNL     1      -2.152   2.522  -1.409  0.00  0.00    +0.024 A 
ATOM     15  C   UNL     1      -1.824   3.769  -0.873  0.00  0.00    +0.042 A 
ATOM     16  N   UNL     1      -2.644   4.715  -0.283  0.00  0.00    -0.258 N 
ATOM     17  C   UNL     1      -1.956   5.805   0.112  0.00  0.00    +0.241 C 
ATOM     18  O   UNL     1      -2.414   6.788   0.655  0.00  0.00    -0.273 OA
ATOM     19  C   UNL     1       0.339   5.575   0.991  0.00  0.00    +0.089 C 
ATOM     20  C   UNL     1       1.554   6.183   1.008  0.00  0.00    +0.108 C 
ENDROOT
BRANCH   1  24
ATOM     21  C   UNL     1       6.103   7.600  -0.484  0.00  0.00    -0.048 A 
ATOM     22  C   UNL     1       5.279   8.511   0.151  0.00  0.00    +0.005 A 
ATOM     23  C   UNL     1       3.927   8.253   0.273  0.00  0.00    +0.024 A 
ATOM     24  C   UNL     1       3.397   7.078  -0.243  0.00  0.00    +0.040 A 
ATOM     25  C   UNL     1       4.228   6.163  -0.876  0.00  0.00    +0.024 A 
ATOM     26  C   UNL     1       5.577   6.429  -1.000  0.00  0.00    +0.005 A 
BRANCH  21  28
ATOM     27  C   UNL     1       8.316   7.320   0.599  0.00  0.00    +0.009 C 
ATOM     28  C   UNL     1       7.577   7.885  -0.616  0.00  0.00    +0.032 C 
ENDBRANCH  21  28
ENDBRANCH   1  24
BRANCH  20  29
ATOM     29  N   UNL     1       2.312   6.170   2.155  0.00  0.00    -0.345 N 
ATOM     30  H   UNL     1       2.023   5.648   2.921  0.00  0.00    +0.144 HD
ATOM     31  H   UNL     1       3.134   6.682   2.199  0.00  0.00    +0.144 HD
ENDBRANCH  20  29
BRANCH  19  32
ATOM     32  C   UNL     1      -0.144   4.929   2.174  0.00  0.00    +0.100 C 
ATOM     33  N   UNL     1      -0.528   4.417   3.112  0.00  0.00    -0.191 NA
ENDBRANCH  19  32
BRANCH  16  34
ATOM     34  C   UNL     1      -4.089   4.550  -0.108  0.00  0.00    +0.202 C 
BRANCH  34  35
ATOM     35  C   UNL     1      -4.356   3.910   1.190  0.00  0.00    -0.086 C 
ATOM     36  C   UNL     1      -4.570   3.400   2.225  0.00  0.00    +0.005 C 
ENDBRANCH  34  35
ENDBRANCH  16  34
TORSDOF 6
