REMARK  Name = ZINC52094965
REMARK  3 active torsions:
REMARK  status: ('A' for Active; 'I' for Inactive)
REMARK    1  A    between atoms: C_2  and  C_9
REMARK    2  A    between atoms: C_9  and  C_11
REMARK    3  A    between atoms: C_9  and  O_24
REMARK                            x       y       z     vdW  Elec       q    Type
REMARK                         _______ _______ _______ _____ _____    ______ ____
ROOT
ATOM      1  C   UNL     1       1.401   4.094   1.409  0.00  0.00    +0.001 A 
ATOM      2  C   UNL     1       2.681   4.444   1.794  0.00  0.00    +0.035 A 
ATOM      3  C   UNL     1       2.913   4.902   3.082  0.00  0.00    +0.067 A 
ATOM      4  C   UNL     1       1.853   5.010   3.984  0.00  0.00    +0.068 A 
ATOM      5  C   UNL     1       0.572   4.657   3.589  0.00  0.00    +0.043 A 
ATOM      6  C   UNL     1       0.348   4.205   2.302  0.00  0.00    +0.026 A 
ATOM      7 BR   UNL     1      -1.400   3.732   1.760  0.00  0.00    -0.050 Br
ATOM      8  N   UNL     1       2.386   5.491   5.177  0.00  0.00    -0.306 N 
ATOM      9  H   UNL     1       1.889   5.668   5.991  0.00  0.00    +0.170 HD
ATOM     10  C   UNL     1       3.710   5.668   5.009  0.00  0.00    +0.325 A 
ATOM     11  O   UNL     1       4.476   6.079   5.861  0.00  0.00    -0.247 OA
ATOM     12  N   UNL     1       4.058   5.322   3.755  0.00  0.00    -0.306 N 
ATOM     13  H   UNL     1       4.954   5.358   3.384  0.00  0.00    +0.170 HD
ENDROOT
BRANCH   1  14
ATOM     14  C   UNL     1       1.149   3.595   0.010  0.00  0.00    +0.176 C 
BRANCH  14  16
ATOM     15  C   UNL     1      -0.017   1.381   0.010  0.00  0.00    +0.045 A 
ATOM     16  C   UNL     1       1.170   2.088   0.002  0.00  0.00    -0.009 A 
ATOM     17  C   UNL     1       2.377   1.415  -0.013  0.00  0.00    +0.045 A 
ATOM     18  C   UNL     1       2.399   0.031  -0.021  0.00  0.00    +0.126 A 
ATOM     19  C   UNL     1       1.210  -0.679  -0.013  0.00  0.00    +0.076 A 
ATOM     20  C   UNL     1       0.002  -0.004   0.002  0.00  0.00    +0.126 A 
ATOM     21  F   UNL     1      -1.158  -0.696   0.010  0.00  0.00    -0.205 F 
ATOM     22  F   UNL     1       3.579  -0.627  -0.036  0.00  0.00    -0.205 F 
ENDBRANCH  14  16
BRANCH  14  23
ATOM     23  O   UNL     1       2.166   4.091  -0.863  0.00  0.00    -0.382 OA
ATOM     24  H   UNL     1       3.061   3.817  -0.620  0.00  0.00    +0.211 HD
ENDBRANCH  14  23
ENDBRANCH   1  14
TORSDOF 3
