REMARK  Name = ZINC16622874
REMARK  11 active torsions:
REMARK  status: ('A' for Active; 'I' for Inactive)
REMARK    1  A    between atoms: C_1  and  C_2
REMARK    2  A    between atoms: C_3  and  C_34
REMARK    3  A    between atoms: N_4  and  C_27
REMARK    4  A    between atoms: C_5  and  N_9
REMARK    5  A    between atoms: C_6  and  C_7
REMARK    6  A    between atoms: C_10  and  C_12
REMARK    7  A    between atoms: C_12  and  S_13
REMARK    8  A    between atoms: S_13  and  C_14
REMARK    9  A    between atoms: C_17  and  C_20
REMARK   10  A    between atoms: N_18  and  C_19
REMARK   11  A    between atoms: C_27  and  C_28
REMARK                            x       y       z     vdW  Elec       q    Type
REMARK                         _______ _______ _______ _____ _____    ______ ____
ROOT
ATOM      1  N   UNL     1       2.267   3.389  -0.537  0.00  0.00    -0.270 N 
ATOM      2  C   UNL     1       1.454   4.288   0.054  0.00  0.00    +0.229 C 
ATOM      3  O   UNL     1       0.409   3.925   0.551  0.00  0.00    -0.275 OA
ATOM      4  H   UNL     1       3.116   3.675  -0.908  0.00  0.00    +0.156 HD
ENDROOT
BRANCH   1   9
ATOM      5  C   UNL     1      -0.279  -0.875  -1.472  0.00  0.00    +0.047 C 
ATOM      6  C   UNL     1       0.765   0.114  -1.022  0.00  0.00    -0.011 A 
ATOM      7  C   UNL     1       1.922  -0.168  -0.401  0.00  0.00    +0.022 A 
ATOM      8  N   UNL     1       2.599   0.996  -0.154  0.00  0.00    -0.327 N 
ATOM      9  C   UNL     1       1.888   2.058  -0.615  0.00  0.00    +0.124 A 
ATOM     10  C   UNL     1       0.715   1.573  -1.177  0.00  0.00    +0.095 A 
ATOM     11  C   UNL     1       2.400  -1.549  -0.033  0.00  0.00    +0.064 C 
BRANCH  10  12
ATOM     12  C   UNL     1      -0.329   2.340  -1.788  0.00  0.00    +0.103 C 
ATOM     13  N   UNL     1      -1.157   2.948  -2.273  0.00  0.00    -0.191 NA
ENDBRANCH  10  12
BRANCH   8  14
ATOM     14  C   UNL     1       3.902   1.084   0.510  0.00  0.00    +0.158 C 
BRANCH  14  15
ATOM     15  C   UNL     1       4.998   0.930  -0.512  0.00  0.00    -0.028 A 
ATOM     16  C   UNL     1       5.448  -0.331  -0.859  0.00  0.00    +0.005 A 
ATOM     17  C   UNL     1       6.450  -0.472  -1.800  0.00  0.00    +0.000 A 
ATOM     18  C   UNL     1       7.011   0.647  -2.387  0.00  0.00    +0.000 A 
ATOM     19  C   UNL     1       6.565   1.907  -2.037  0.00  0.00    +0.000 A 
ATOM     20  C   UNL     1       5.559   2.049  -1.100  0.00  0.00    +0.005 A 
ENDBRANCH  14  15
ENDBRANCH   8  14
ENDBRANCH   1   9
BRANCH   2  21
ATOM     21  C   UNL     1       1.844   5.743   0.098  0.00  0.00    +0.173 C 
BRANCH  21  22
ATOM     22  S   UNL     1       0.558   6.687   0.951  0.00  0.00    -0.077 S 
BRANCH  22  23
ATOM     23  C   UNL     1       1.253   8.303   0.860  0.00  0.00    +0.192 A 
ATOM     24  N   UNL     1       2.401   8.628   0.308  0.00  0.00    -0.122 NA
ATOM     25  N   UNL     1       2.600   9.893   0.416  0.00  0.00    -0.128 NA
ATOM     26  C   UNL     1       1.596  10.453   1.051  0.00  0.00    +0.165 A 
ATOM     27  N   UNL     1       0.702   9.451   1.355  0.00  0.00    -0.305 N 
ATOM     28  C   UNL     1      -0.574   9.588   2.061  0.00  0.00    +0.153 C 
BRANCH  26  29
ATOM     29  C   UNL     1       1.453  11.887   1.377  0.00  0.00    +0.019 A 
ATOM     30  C   UNL     1       2.232  12.838   0.715  0.00  0.00    +0.013 A 
ATOM     31  C   UNL     1       2.089  14.175   1.020  0.00  0.00    +0.021 A 
ATOM     32  C   UNL     1       1.184  14.575   1.989  0.00  0.00    +0.041 A 
ATOM     33  C   UNL     1       0.412  13.636   2.653  0.00  0.00    +0.021 A 
ATOM     34  C   UNL     1       0.542  12.296   2.353  0.00  0.00    +0.013 A 
ATOM     35 CL   UNL     1       1.016  16.260   2.373  0.00  0.00    -0.084 Cl
ENDBRANCH  26  29
ENDBRANCH  22  23
ENDBRANCH  21  22
ENDBRANCH   2  21
TORSDOF 8
