REMARK  Name = ZINC12761706
REMARK  3 active torsions:
REMARK  status: ('A' for Active; 'I' for Inactive)
REMARK    1  A    between atoms: C_3  and  C_6
REMARK    2  A    between atoms: N_15  and  S_16
REMARK    3  A    between atoms: S_16  and  C_19
REMARK                            x       y       z     vdW  Elec       q    Type
REMARK                         _______ _______ _______ _____ _____    ______ ____
ROOT
ATOM      1  S   UNL     1       5.091   1.588  -2.377  0.00  0.00    +0.062 S 
ATOM      2  O   UNL     1       5.343   0.454  -3.195  0.00  0.00    -0.153 OA
ATOM      3  O   UNL     1       4.176   2.609  -2.750  0.00  0.00    -0.153 OA
ENDROOT
BRANCH   1   4
ATOM      4  C   UNL     1       6.645   2.376  -2.115  0.00  0.00    +0.108 A 
ATOM      5  C   UNL     1       6.690   3.722  -1.793  0.00  0.00    +0.030 A 
ATOM      6  C   UNL     1       7.904   4.348  -1.587  0.00  0.00    +0.030 A 
ATOM      7  C   UNL     1       9.082   3.626  -1.703  0.00  0.00    +0.067 A 
ATOM      8  C   UNL     1       9.036   2.269  -2.028  0.00  0.00    +0.069 A 
ATOM      9  C   UNL     1       7.813   1.647  -2.228  0.00  0.00    +0.056 A 
ATOM     10  N   UNL     1      10.354   1.821  -2.071  0.00  0.00    -0.306 N 
ATOM     11  H   UNL     1      10.640   0.916  -2.273  0.00  0.00    +0.170 HD
ATOM     12  C   UNL     1      11.164   2.857  -1.786  0.00  0.00    +0.325 A 
ATOM     13  O   UNL     1      12.379   2.806  -1.740  0.00  0.00    -0.247 OA
ATOM     14  N   UNL     1      10.426   3.960  -1.559  0.00  0.00    -0.306 N 
ATOM     15  H   UNL     1      10.772   4.838  -1.333  0.00  0.00    +0.170 HD
ENDBRANCH   1   4
BRANCH   1  24
ATOM     16  C   UNL     1       3.761   1.845  -0.024  0.00  0.00    +0.147 C 
ATOM     17  C   UNL     1       4.352   1.760   1.381  0.00  0.00    -0.014 A 
ATOM     18  C   UNL     1       3.992   2.622   2.416  0.00  0.00    +0.013 A 
ATOM     19  C   UNL     1       4.554   2.485   3.638  0.00  0.00    +0.046 A 
ATOM     20  S   UNL     1       5.650   1.097   3.385  0.00  0.00    -0.101 S 
ATOM     21  C   UNL     1       5.279   0.808   1.675  0.00  0.00    -0.004 A 
ATOM     22  C   UNL     1       5.849  -0.231   0.765  0.00  0.00    +0.060 C 
ATOM     23  C   UNL     1       4.948  -0.347  -0.475  0.00  0.00    +0.116 C 
ATOM     24  N   UNL     1       4.583   1.010  -0.910  0.00  0.00    -0.164 NA
BRANCH  16  27
ATOM     25  C   UNL     1      -0.016   1.351   0.009  0.00  0.00    +0.008 A 
ATOM     26  C   UNL     1       1.183   2.038   0.002  0.00  0.00    +0.013 A 
ATOM     27  C   UNL     1       2.343   1.336  -0.013  0.00  0.00    +0.013 A 
ATOM     28  S   UNL     1       1.754  -0.349  -0.017  0.00  0.00    -0.100 S 
ATOM     29  C   UNL     1       0.002  -0.004   0.002  0.00  0.00    +0.045 A 
ENDBRANCH  16  27
ENDBRANCH   1  24
TORSDOF 3
