REMARK  Name = ZINC34786964
REMARK  10 active torsions:
REMARK  status: ('A' for Active; 'I' for Inactive)
REMARK    1  A    between atoms: C_1  and  C_2
REMARK    2  A    between atoms: C_7  and  N_8
REMARK    3  A    between atoms: N_8  and  N_9
REMARK    4  A    between atoms: N_9  and  N_28
REMARK    5  A    between atoms: C_12  and  C_27
REMARK    6  A    between atoms: C_13  and  C_26
REMARK    7  A    between atoms: C_20  and  C_25
REMARK    8  A    between atoms: C_22  and  C_24
REMARK    9  A    between atoms: N_28  and  C_29
REMARK   10  A    between atoms: N_28  and  C_30
REMARK                            x       y       z     vdW  Elec       q    Type
REMARK                         _______ _______ _______ _____ _____    ______ ____
ROOT
ATOM      1  N   UNL     1       0.398  -1.050   3.518  0.00  0.00    -0.164 N 
ATOM      2  C   UNL     1       1.685  -1.394   3.894  0.00  0.00    +0.167 A 
ATOM      3  C   UNL     1       2.798  -0.967   3.117  0.00  0.00    +0.054 A 
ATOM      4  C   UNL     1       2.832  -0.172   1.902  0.00  0.00    -0.028 A 
ATOM      5  C   UNL     1       4.015   0.111   1.338  0.00  0.00    -0.008 A 
ATOM      6  S   UNL     1       5.192  -0.685   2.415  0.00  0.00    -0.073 S 
ATOM      7  C   UNL     1       4.063  -1.376   3.595  0.00  0.00    +0.116 A 
ATOM      8  N   UNL     1       4.184  -2.102   4.688  0.00  0.00    -0.203 NA
ATOM      9  C   UNL     1       3.111  -2.470   5.370  0.00  0.00    +0.254 A 
ATOM     10  N   UNL     1       1.893  -2.117   4.981  0.00  0.00    -0.192 NA
ATOM     11  N   UNL     1       3.263  -3.239   6.524  0.00  0.00    -0.202 N 
ATOM     12  C   UNL     1       4.441  -3.667   7.051  0.00  0.00    +0.045 A 
ATOM     13  C   UNL     1       4.155  -4.380   8.165  0.00  0.00    +0.048 A 
ATOM     14  C   UNL     1       2.765  -4.390   8.326  0.00  0.00    +0.061 A 
ATOM     15  N   UNL     1       2.231  -3.703   7.349  0.00  0.00    -0.169 NA
ATOM     16  C   UNL     1       2.011  -5.071   9.440  0.00  0.00    +0.067 C 
ATOM     17  C   UNL     1       5.815  -3.397   6.495  0.00  0.00    +0.066 C 
ATOM     18  C   UNL     1       4.286   0.910   0.089  0.00  0.00    +0.052 C 
ATOM     19  C   UNL     1       1.553   0.330   1.284  0.00  0.00    +0.045 C 
ENDROOT
BRANCH   1  20
ATOM     20  N   UNL     1      -0.279  -0.084   4.206  0.00  0.00    -0.214 NA
ATOM     21  C   UNL     1      -0.435  -0.454   5.619  0.00  0.00    +0.129 C 
ATOM     22  C   UNL     1       0.386   1.220   4.074  0.00  0.00    +0.129 C 
ENDBRANCH   1  20
BRANCH   1  23
ATOM     23  N   UNL     1      -0.210  -1.694   2.433  0.00  0.00    -0.248 N 
ATOM     24  H   UNL     1      -0.251  -1.254   1.569  0.00  0.00    +0.172 HD
BRANCH  23  31
ATOM     25  C   UNL     1      -1.550  -2.869   0.215  0.00  0.00    +0.046 C 
ATOM     26  C   UNL     1      -1.420  -3.580   1.538  0.00  0.00    -0.028 A 
ATOM     27  C   UNL     1      -1.954  -4.844   1.698  0.00  0.00    +0.005 A 
ATOM     28  C   UNL     1      -1.835  -5.497   2.911  0.00  0.00    +0.000 A 
ATOM     29  C   UNL     1      -1.180  -4.889   3.966  0.00  0.00    +0.002 A 
ATOM     30  C   UNL     1      -0.643  -3.626   3.812  0.00  0.00    +0.025 A 
ATOM     31  C   UNL     1      -0.757  -2.969   2.594  0.00  0.00    +0.049 A 
ENDBRANCH  23  31
ENDBRANCH   1  23
TORSDOF 3
