REMARK  Name = ZINC64788301
REMARK  8 active torsions:
REMARK  status: ('A' for Active; 'I' for Inactive)
REMARK    1  A    between atoms: C_1  and  C_2
REMARK    2  A    between atoms: C_2  and  N_3
REMARK    3  A    between atoms: N_3  and  C_4
REMARK    4  A    between atoms: N_3  and  C_6
REMARK    5  A    between atoms: C_4  and  C_5
REMARK    6  A    between atoms: C_9  and  C_12
REMARK    7  A    between atoms: N_20  and  C_27
REMARK    8  A    between atoms: N_23  and  C_26
REMARK                            x       y       z     vdW  Elec       q    Type
REMARK                         _______ _______ _______ _____ _____    ______ ____
ROOT
ATOM      1  C   UNL     1      -0.117  -6.138  -1.717  0.00  0.00    +0.108 C 
ATOM      2  C   UNL     1       0.911  -6.752  -2.698  0.00  0.00    +0.077 C 
ATOM      3  C   UNL     1       0.076  -7.784  -3.434  0.00  0.00    +0.038 C 
ATOM      4  N   UNL     1      -1.221  -7.520  -3.187  0.00  0.00    -0.283 N 
ATOM      5  N   UNL     1      -1.400  -6.419  -2.402  0.00  0.00    -0.235 NA
ATOM      6  C   UNL     1       0.561  -8.812  -4.221  0.00  0.00    +0.117 C 
ATOM      7  C   UNL     1       2.007  -9.011  -4.420  0.00  0.00    +0.260 C 
ATOM      8  N   UNL     1       2.408 -10.036  -5.201  0.00  0.00    -0.224 N 
ATOM      9  C   UNL     1       1.526 -10.858  -5.786  0.00  0.00    +0.317 C 
ATOM     10  O   UNL     1       1.953 -11.762  -6.477  0.00  0.00    -0.252 OA
ATOM     11  N   UNL     1       0.198 -10.736  -5.648  0.00  0.00    -0.224 N 
ATOM     12  C   UNL     1      -0.346  -9.761  -4.892  0.00  0.00    +0.260 C 
ATOM     13  O   UNL     1      -1.552  -9.664  -4.771  0.00  0.00    -0.269 OA
ATOM     14  C   UNL     1      -0.682 -11.688  -6.331  0.00  0.00    +0.143 C 
ATOM     15  C   UNL     1       3.841 -10.254  -5.415  0.00  0.00    +0.143 C 
ATOM     16  O   UNL     1       2.818  -8.271  -3.895  0.00  0.00    -0.269 OA
ATOM     17  H   UNL     1      -2.141  -6.567  -1.734  0.00  0.00    +0.145 HD
ATOM     18  H   UNL     1      -1.952  -8.057  -3.530  0.00  0.00    +0.166 HD
ENDROOT
BRANCH   1  22
ATOM     19  C   UNL     1       0.501  -1.932  -1.297  0.00  0.00    +0.013 A 
ATOM     20  C   UNL     1       0.924  -2.795  -0.304  0.00  0.00    +0.022 A 
ATOM     21  C   UNL     1       0.724  -4.156  -0.440  0.00  0.00    +0.007 A 
ATOM     22  C   UNL     1       0.101  -4.654  -1.568  0.00  0.00    -0.028 A 
ATOM     23  C   UNL     1      -0.324  -3.790  -2.561  0.00  0.00    +0.007 A 
ATOM     24  C   UNL     1      -0.128  -2.429  -2.424  0.00  0.00    +0.022 A 
BRANCH  19  25
ATOM     25  N   UNL     1       0.703  -0.555  -1.160  0.00  0.00    -0.394 NA
ATOM     26  H   UNL     1       0.332  -0.078  -1.968  0.00  0.00    +0.126 HD
BRANCH  25  28
ATOM     27  C   UNL     1      -1.495  -0.229  -0.130  0.00  0.00    +0.022 C 
ATOM     28  C   UNL     1       0.017  -0.078   0.048  0.00  0.00    +0.081 C 
ENDBRANCH  25  28
BRANCH  25  29
ATOM     29  C   UNL     1       2.142  -0.280  -1.047  0.00  0.00    +0.081 C 
ATOM     30  C   UNL     1       2.837  -0.660  -2.356  0.00  0.00    +0.022 C 
ENDBRANCH  25  29
ENDBRANCH  19  25
ENDBRANCH   1  22
TORSDOF 4
