REMARK  Name = ZINC36263929
REMARK  5 active torsions:
REMARK  status: ('A' for Active; 'I' for Inactive)
REMARK    1  A    between atoms: C_3  and  S_11
REMARK    2  A    between atoms: C_4  and  N_8
REMARK    3  A    between atoms: S_11  and  N_14
REMARK    4  A    between atoms: N_14  and  C_15
REMARK    5  A    between atoms: C_18  and  N_20
REMARK                            x       y       z     vdW  Elec       q    Type
REMARK                         _______ _______ _______ _____ _____    ______ ____
ROOT
ATOM      1  S   UNL     1       3.952   2.193  -0.207  0.00  0.00    -0.058 S 
ATOM      2  O   UNL     1       4.731   1.477  -1.156  0.00  0.00    -0.191 OA
ATOM      3  O   UNL     1       3.658   3.576  -0.351  0.00  0.00    -0.191 OA
ENDROOT
BRANCH   1   6
ATOM      4  C   UNL     1       0.011   1.425  -0.054  0.00  0.00    +0.022 A 
ATOM      5  C   UNL     1       1.226   2.079  -0.142  0.00  0.00    +0.028 A 
ATOM      6  C   UNL     1       2.404   1.359  -0.094  0.00  0.00    +0.096 A 
ATOM      7  C   UNL     1       2.369  -0.017   0.042  0.00  0.00    +0.150 A 
ATOM      8  C   UNL     1       1.155  -0.672   0.131  0.00  0.00    +0.054 A 
ATOM      9  C   UNL     1      -0.025   0.049   0.083  0.00  0.00    +0.043 A 
ATOM     10 CL   UNL     1      -1.550  -0.773   0.194  0.00  0.00    -0.083 Cl
BRANCH   7  11
ATOM     11  N   UNL     1       3.631  -0.788   0.093  0.00  0.00    +0.058 N 
ATOM     12  O   UNL     1       3.705  -1.863  -0.456  0.00  0.00    -0.126 OA
ATOM     13  O   UNL     1       4.588  -0.343   0.682  0.00  0.00    -0.126 OA
ENDBRANCH   7  11
ENDBRANCH   1   6
BRANCH   1  14
ATOM     14  N   UNL     1       4.710   2.019   1.255  0.00  0.00    +0.469 NA
BRANCH  14  15
ATOM     15  C   UNL     1       6.032   2.613   1.469  0.00  0.00    -0.116 C 
ATOM     16  C   UNL     1       6.128   3.790   2.442  0.00  0.00    -0.041 C 
ATOM     17  C   UNL     1       6.679   2.419   2.842  0.00  0.00    -0.097 C 
BRANCH  17  18
ATOM     18  N   UNL     1       8.139   2.261   2.888  0.00  0.00    +0.379 N 
ATOM     19  H   UNL     1       8.578   3.082   2.500  0.00  0.00    -0.090 HD
ATOM     20  H   UNL     1       8.434   2.142   3.846  0.00  0.00    -0.090 HD
ATOM     21  H   UNL     1       8.406   1.450   2.351  0.00  0.00    -0.090 HD
ENDBRANCH  17  18
ENDBRANCH  14  15
ENDBRANCH   1  14
TORSDOF 5
