REMARK  Name = ZINC50122927
REMARK  3 active torsions:
REMARK  status: ('A' for Active; 'I' for Inactive)
REMARK    1  A    between atoms: C_4  and  C_7
REMARK    2  A    between atoms: C_7  and  N_8
REMARK    3  A    between atoms: C_11  and  C_14
REMARK                            x       y       z     vdW  Elec       q    Type
REMARK                         _______ _______ _______ _____ _____    ______ ____
ROOT
ATOM      1  N   UNL     1       4.152  -0.952   1.338  0.00  0.00    -0.277 N 
ATOM      2  C   UNL     1       3.841  -2.061   2.074  0.00  0.00    +0.160 C 
ATOM      3  N   UNL     1       4.346  -2.046   3.256  0.00  0.00    -0.366 N 
ATOM      4  C   UNL     1       5.110  -0.799   3.413  0.00  0.00    +0.175 C 
ATOM      5  C   UNL     1       4.945  -0.101   2.076  0.00  0.00    +0.101 C 
ATOM      6  N   UNL     1       5.437   1.037   1.713  0.00  0.00    -0.388 N 
ATOM      7  H   UNL     1       5.257   1.381   0.824  0.00  0.00    +0.157 HD
ATOM      8  H   UNL     1       5.986   1.548   2.328  0.00  0.00    +0.157 HD
ATOM      9  H   UNL     1       4.241  -2.738   3.928  0.00  0.00    +0.161 HD
ENDROOT
BRANCH   4  10
ATOM     10  C   UNL     1       4.533   0.038   4.527  0.00  0.00    +0.018 A 
ATOM     11  C   UNL     1       3.248  -0.201   4.976  0.00  0.00    +0.024 A 
ATOM     12  C   UNL     1       2.719   0.566   5.998  0.00  0.00    +0.018 A 
ATOM     13  C   UNL     1       3.475   1.574   6.570  0.00  0.00    +0.018 A 
ATOM     14  C   UNL     1       4.759   1.814   6.121  0.00  0.00    +0.040 A 
ATOM     15  C   UNL     1       5.292   1.042   5.102  0.00  0.00    +0.129 A 
ATOM     16  F   UNL     1       6.550   1.273   4.667  0.00  0.00    -0.205 F 
ATOM     17 BR   UNL     1       0.961   0.239   6.612  0.00  0.00    -0.050 Br
ENDBRANCH   4  10
BRANCH   1  18
ATOM     18  C   UNL     1       3.711  -0.707  -0.038  0.00  0.00    +0.148 C 
BRANCH  18  22
ATOM     19  C   UNL     1      -0.017   1.378   0.010  0.00  0.00    +0.000 A 
ATOM     20  C   UNL     1       1.171   2.086   0.002  0.00  0.00    +0.000 A 
ATOM     21  C   UNL     1       2.377   1.411  -0.013  0.00  0.00    +0.005 A 
ATOM     22  C   UNL     1       2.396   0.029  -0.020  0.00  0.00    -0.030 A 
ATOM     23  C   UNL     1       1.208  -0.679  -0.012  0.00  0.00    +0.005 A 
ATOM     24  C   UNL     1       0.002  -0.004   0.002  0.00  0.00    +0.000 A 
ENDBRANCH  18  22
ENDBRANCH   1  18
TORSDOF 3
