REMARK  Name = ZINC20205882
REMARK  9 active torsions:
REMARK  status: ('A' for Active; 'I' for Inactive)
REMARK    1  A    between atoms: C_1  and  C_2
REMARK    2  A    between atoms: C_6  and  C_36
REMARK    3  A    between atoms: C_7  and  O_8
REMARK    4  A    between atoms: O_8  and  C_9
REMARK    5  A    between atoms: C_9  and  C_10
REMARK    6  A    between atoms: C_10  and  N_11
REMARK    7  A    between atoms: C_13  and  C_20
REMARK    8  A    between atoms: C_31  and  S_32
REMARK    9  A    between atoms: S_32  and  C_35
REMARK                            x       y       z     vdW  Elec       q    Type
REMARK                         _______ _______ _______ _____ _____    ______ ____
ROOT
ATOM      1  N   UNL     1      -2.429   1.039   4.359  0.00  0.00    -0.343 N 
ATOM      2  C   UNL     1      -3.167   2.165   4.306  0.00  0.00    +0.095 A 
ATOM      3  C   UNL     1      -4.161   2.112   5.265  0.00  0.00    +0.001 A 
ATOM      4  C   UNL     1      -3.994   0.819   5.959  0.00  0.00    +0.007 A 
ATOM      5  C   UNL     1      -2.899   0.193   5.343  0.00  0.00    +0.050 A 
ATOM      6  C   UNL     1      -2.497  -1.064   5.785  0.00  0.00    +0.026 A 
ATOM      7  C   UNL     1      -3.176  -1.681   6.813  0.00  0.00    +0.002 A 
ATOM      8  C   UNL     1      -4.260  -1.062   7.417  0.00  0.00    +0.001 A 
ATOM      9  C   UNL     1      -4.667   0.188   7.000  0.00  0.00    +0.010 A 
ENDROOT
BRANCH   3  10
ATOM     10  C   UNL     1      -5.140   3.097   5.529  0.00  0.00    +0.026 C 
ATOM     11  C   UNL     1      -4.805   4.438   5.470  0.00  0.00    +0.078 C 
ATOM     12  C   UNL     1      -5.835   5.509   5.564  0.00  0.00    +0.117 C 
ATOM     13  N   UNL     1      -6.926   5.399   6.274  0.00  0.00    -0.386 N 
ATOM     14  N   UNL     1      -5.514   6.655   4.809  0.00  0.00    -0.203 N 
ATOM     15  C   UNL     1      -4.189   6.889   4.503  0.00  0.00    +0.183 C 
ATOM     16  N   UNL     1      -3.175   6.094   4.758  0.00  0.00    -0.152 NA
ATOM     17  C   UNL     1      -3.402   4.887   5.315  0.00  0.00    +0.273 C 
ATOM     18  O   UNL     1      -2.476   4.180   5.680  0.00  0.00    -0.268 OA
ATOM     19  S   UNL     1      -4.230   8.372   3.742  0.00  0.00    +0.049 S 
ATOM     20  N   UNL     1      -5.888   8.622   3.722  0.00  0.00    -0.174 NA
ATOM     21  C   UNL     1      -6.373   7.590   4.339  0.00  0.00    +0.257 C 
ATOM     22  H   UNL     1      -7.146   4.553   6.697  0.00  0.00    +0.157 HD
ATOM     23  H   UNL     1      -7.516   6.161   6.380  0.00  0.00    +0.157 HD
BRANCH  21  24
ATOM     24  S   UNL     1      -8.112   7.408   4.561  0.00  0.00    +0.026 S 
ATOM     25  O   UNL     1      -8.693   8.232   3.561  0.00  0.00    -0.167 OA
ATOM     26  O   UNL     1      -8.333   6.004   4.562  0.00  0.00    -0.167 OA
ATOM     27  C   UNL     1      -8.446   8.093   6.207  0.00  0.00    +0.203 C 
ENDBRANCH  21  24
ENDBRANCH   3  10
BRANCH   1  28
ATOM     28  C   UNL     1      -1.287   0.750   3.488  0.00  0.00    +0.163 C 
BRANCH  28  29
ATOM     29  C   UNL     1      -1.757  -0.077   2.290  0.00  0.00    +0.250 C 
BRANCH  29  30
ATOM     30  O   UNL     1      -0.643  -0.359   1.440  0.00  0.00    -0.490 OA
BRANCH  30  37
ATOM     31  C   UNL     1      -1.326   1.048  -0.913  0.00  0.00    +0.047 C 
ATOM     32  C   UNL     1      -1.230  -0.456  -0.864  0.00  0.00    -0.009 A 
ATOM     33  C   UNL     1      -1.475  -1.202  -2.001  0.00  0.00    +0.007 A 
ATOM     34  C   UNL     1      -1.387  -2.581  -1.956  0.00  0.00    +0.001 A 
ATOM     35  C   UNL     1      -1.054  -3.217  -0.774  0.00  0.00    +0.007 A 
ATOM     36  C   UNL     1      -0.809  -2.475   0.365  0.00  0.00    -0.009 A 
ATOM     37  C   UNL     1      -0.890  -1.091   0.322  0.00  0.00    +0.126 A 
ATOM     38  C   UNL     1      -0.446  -3.169   1.653  0.00  0.00    +0.047 C 
ENDBRANCH  30  37
ENDBRANCH  29  30
ENDBRANCH  28  29
ENDBRANCH   1  28
TORSDOF 6
