REMARK  Name = ZINC39710823
REMARK  9 active torsions:
REMARK  status: ('A' for Active; 'I' for Inactive)
REMARK    1  A    between atoms: C_1  and  C_2
REMARK    2  A    between atoms: C_8  and  C_14
REMARK    3  A    between atoms: C_14  and  C_16
REMARK    4  A    between atoms: C_14  and  N_26
REMARK    5  A    between atoms: N_21  and  C_22
REMARK    6  A    between atoms: C_22  and  C_23
REMARK    7  A    between atoms: C_22  and  C_24
REMARK    8  A    between atoms: C_22  and  C_25
REMARK    9  A    between atoms: C_30  and  C_33
REMARK                            x       y       z     vdW  Elec       q    Type
REMARK                         _______ _______ _______ _____ _____    ______ ____
ROOT
ATOM      1  C   UNL     1       1.212  -2.607   4.438  0.00  0.00    -0.010 C 
ENDROOT
BRANCH   1   9
ATOM      2  C   UNL     1      -2.274  -5.666   0.418  0.00  0.00    +0.045 C 
ATOM      3  C   UNL     1      -2.626  -4.926   1.682  0.00  0.00    -0.029 A 
ATOM      4  C   UNL     1      -3.837  -5.124   2.264  0.00  0.00    +0.005 A 
ATOM      5  C   UNL     1      -4.226  -4.472   3.435  0.00  0.00    +0.001 A 
ATOM      6  C   UNL     1      -3.402  -3.593   4.061  0.00  0.00    +0.009 A 
ATOM      7  C   UNL     1      -2.081  -3.333   3.488  0.00  0.00    -0.007 A 
ATOM      8  C   UNL     1      -1.220  -2.458   4.083  0.00  0.00    -0.006 C 
ATOM      9  C   UNL     1       0.128  -2.250   3.419  0.00  0.00    +0.088 C 
ATOM     10  C   UNL     1       0.407  -3.028   2.153  0.00  0.00    +0.223 C 
ATOM     11  O   UNL     1       1.472  -2.899   1.580  0.00  0.00    -0.275 OA
ATOM     12  N   UNL     1      -0.511  -3.849   1.672  0.00  0.00    -0.284 N 
ATOM     13  C   UNL     1      -1.695  -4.040   2.254  0.00  0.00    +0.043 A 
ATOM     14  H   UNL     1      -0.312  -4.339   0.858  0.00  0.00    +0.155 HD
ENDBRANCH   1   9
BRANCH   1  15
ATOM     15  N   UNL     1       1.052  -1.773   5.636  0.00  0.00    +0.385 N 
ATOM     16  C   UNL     1       0.957  -0.363   5.241  0.00  0.00    -0.078 C 
ATOM     17  C   UNL     1       0.708   0.502   6.478  0.00  0.00    -0.018 C 
ATOM     18  C   UNL     1       1.869   0.323   7.461  0.00  0.00    -0.001 C 
ATOM     19  C   UNL     1       2.006  -1.162   7.809  0.00  0.00    -0.031 C 
ATOM     20  C   UNL     1       2.207  -1.965   6.522  0.00  0.00    -0.075 C 
ATOM     21  C   UNL     1       3.212  -1.362   8.730  0.00  0.00    +0.005 C 
ATOM     22  H   UNL     1       0.209  -2.042   6.122  0.00  0.00    -0.081 HD
ENDBRANCH   1  15
BRANCH   1  23
ATOM     23  C   UNL     1       1.085  -4.083   4.822  0.00  0.00    +0.205 C 
ATOM     24  N   UNL     1      -0.097  -4.292   5.668  0.00  0.00    -0.152 NA
ATOM     25  N   UNL     1       0.268  -4.729   6.762  0.00  0.00    -0.070 NA
ATOM     26  N   UNL     1       1.651  -4.882   6.851  0.00  0.00    -0.179 N 
ATOM     27  N   UNL     1       2.226  -4.496   5.665  0.00  0.00    -0.183 NA
ATOM     28  H   UNL     1       2.131  -5.211   7.627  0.00  0.00    +0.191 HD
BRANCH  27  29
ATOM     29  C   UNL     1       2.962  -5.607   5.048  0.00  0.00    +0.035 C 
ATOM     30  C   UNL     1       3.507  -5.165   3.688  0.00  0.00    +0.029 C 
ATOM     31  C   UNL     1       4.125  -6.015   5.955  0.00  0.00    +0.029 C 
ATOM     32  C   UNL     1       2.022  -6.799   4.858  0.00  0.00    +0.029 C 
ENDBRANCH  27  29
ENDBRANCH   1  23
TORSDOF 4
