REMARK  Name = ZINC03460784
REMARK  6 active torsions:
REMARK  status: ('A' for Active; 'I' for Inactive)
REMARK    1  A    between atoms: C_1  and  C_2
REMARK    2  A    between atoms: C_2  and  C_23
REMARK    3  A    between atoms: N_5  and  C_9
REMARK    4  A    between atoms: C_9  and  C_10
REMARK    5  A    between atoms: N_12  and  C_13
REMARK    6  A    between atoms: C_15  and  N_20
REMARK                            x       y       z     vdW  Elec       q    Type
REMARK                         _______ _______ _______ _____ _____    ______ ____
ROOT
ATOM      1  C   UNL     1       8.706  -1.525  -0.762  0.00  0.00    +0.047 C 
ATOM      2  C   UNL     1       8.908  -0.096  -0.255  0.00  0.00    +0.135 C 
ATOM      3  C   UNL     1       7.842   0.825  -0.814  0.00  0.00    +0.251 C 
ATOM      4  O   UNL     1       7.633   1.079  -1.981  0.00  0.00    -0.272 OA
ATOM      5  N   UNL     1       7.174   1.302   0.255  0.00  0.00    -0.215 N 
ATOM      6  C   UNL     1       7.668   0.819   1.401  0.00  0.00    +0.310 C 
ATOM      7  O   UNL     1       7.233   1.107   2.498  0.00  0.00    -0.252 OA
ATOM      8  N   UNL     1       8.697  -0.024   1.202  0.00  0.00    -0.281 N 
ATOM      9  H   UNL     1       9.204  -0.492   1.884  0.00  0.00    +0.152 HD
ENDROOT
BRANCH   2  10
ATOM     10  C   UNL     1      10.283   0.404  -0.617  0.00  0.00    -0.016 A 
ATOM     11  C   UNL     1      10.476   1.107  -1.791  0.00  0.00    +0.006 A 
ATOM     12  C   UNL     1      11.736   1.569  -2.121  0.00  0.00    +0.000 A 
ATOM     13  C   UNL     1      12.806   1.320  -1.281  0.00  0.00    +0.000 A 
ATOM     14  C   UNL     1      12.614   0.613  -0.109  0.00  0.00    +0.000 A 
ATOM     15  C   UNL     1      11.352   0.155   0.223  0.00  0.00    +0.006 A 
ENDBRANCH   2  10
BRANCH   5  16
ATOM     16  C   UNL     1       6.050   2.237   0.173  0.00  0.00    +0.214 C 
BRANCH  16  17
ATOM     17  C   UNL     1       4.760   1.465   0.067  0.00  0.00    +0.235 C 
ATOM     18  O   UNL     1       4.778   0.252   0.061  0.00  0.00    -0.274 OA
ATOM     19  N   UNL     1       3.586   2.122  -0.020  0.00  0.00    -0.283 N 
ATOM     20  H   UNL     1       3.576   3.089  -0.096  0.00  0.00    +0.155 HD
BRANCH  19  21
ATOM     21  C   UNL     1       2.382   1.409  -0.002  0.00  0.00    +0.054 A 
ATOM     22  C   UNL     1       2.323   0.159   0.600  0.00  0.00    +0.057 A 
ATOM     23  C   UNL     1       1.133  -0.542   0.617  0.00  0.00    +0.128 A 
ATOM     24  C   UNL     1       0.001  -0.001   0.035  0.00  0.00    +0.034 A 
ATOM     25  C   UNL     1       0.056   1.243  -0.565  0.00  0.00    +0.024 A 
ATOM     26  C   UNL     1       1.243   1.950  -0.586  0.00  0.00    +0.062 A 
ATOM     27 CL   UNL     1       1.312   3.512  -1.340  0.00  0.00    -0.082 Cl
BRANCH  23  28
ATOM     28  N   UNL     1       1.069  -1.875   1.258  0.00  0.00    +0.056 N 
ATOM     29  O   UNL     1       0.020  -2.494   1.274  0.00  0.00    -0.126 OA
ATOM     30  O   UNL     1       2.066  -2.352   1.771  0.00  0.00    -0.126 OA
ENDBRANCH  23  28
ENDBRANCH  19  21
ENDBRANCH  16  17
ENDBRANCH   5  16
TORSDOF 5
