REMARK  Name = ZINC06443019
REMARK  11 active torsions:
REMARK  status: ('A' for Active; 'I' for Inactive)
REMARK    1  A    between atoms: C_1  and  C_2
REMARK    2  A    between atoms: C_6  and  N_9
REMARK    3  A    between atoms: C_7  and  C_8
REMARK    4  A    between atoms: C_14  and  C_16
REMARK    5  A    between atoms: C_14  and  C_29
REMARK    6  A    between atoms: C_14  and  N_69
REMARK    7  A    between atoms: C_22  and  C_28
REMARK    8  A    between atoms: N_33  and  C_34
REMARK    9  A    between atoms: C_34  and  C_35
REMARK   10  A    between atoms: C_35  and  O_36
REMARK   11  A    between atoms: O_36  and  C_37
REMARK                            x       y       z     vdW  Elec       q    Type
REMARK                         _______ _______ _______ _____ _____    ______ ____
ROOT
ATOM      1  C   UNL     1       0.086  -2.865   4.922  0.00  0.00    +0.039 C 
ENDROOT
BRANCH   1   2
ATOM      2  C   UNL     1       0.071  -2.135   3.604  0.00  0.00    +0.011 A 
ATOM      3  C   UNL     1       1.168  -1.449   3.198  0.00  0.00    +0.017 A 
ATOM      4  C   UNL     1       1.121  -0.751   1.912  0.00  0.00    -0.001 A 
ATOM      5  C   UNL     1       2.221  -0.028   1.440  0.00  0.00    +0.010 A 
ATOM      6  C   UNL     1       2.145   0.613   0.237  0.00  0.00    +0.001 A 
ATOM      7  C   UNL     1       0.987   0.547  -0.526  0.00  0.00    +0.005 A 
ATOM      8  C   UNL     1      -0.111  -0.154  -0.079  0.00  0.00    -0.026 A 
ATOM      9  C   UNL     1      -0.057  -0.814   1.145  0.00  0.00    +0.052 A 
ATOM     10  N   UNL     1      -1.139  -1.528   1.614  0.00  0.00    -0.322 N 
ATOM     11  H   UNL     1      -1.950  -1.571   1.083  0.00  0.00    +0.169 HD
ATOM     12  C   UNL     1      -1.086  -2.166   2.796  0.00  0.00    +0.251 A 
ATOM     13  O   UNL     1      -2.062  -2.788   3.180  0.00  0.00    -0.268 OA
ATOM     14  C   UNL     1      -1.365  -0.210  -0.914  0.00  0.00    +0.046 C 
ENDBRANCH   1   2
BRANCH   1  20
ATOM     15  N   UNL     1      -2.009  -1.038   8.103  0.00  0.00    -0.333 N 
ATOM     16  C   UNL     1      -2.149  -2.491   7.931  0.00  0.00    +0.086 C 
ATOM     17  C   UNL     1      -0.983  -3.017   7.090  0.00  0.00    -0.058 C 
ATOM     18  C   UNL     1      -0.835  -0.880   5.961  0.00  0.00    -0.058 C 
ATOM     19  C   UNL     1      -2.001  -0.355   6.802  0.00  0.00    +0.086 C 
ATOM     20  N   UNL     1      -0.999  -2.338   5.777  0.00  0.00    +0.391 N 
ATOM     21  H   UNL     1      -1.901  -2.517   5.319  0.00  0.00    -0.080 HD
BRANCH  15  27
ATOM     22  C   UNL     1      -3.334   1.316  12.208  0.00  0.00    +0.044 C 
ATOM     23  C   UNL     1      -3.689   0.613  10.924  0.00  0.00    -0.046 A 
ATOM     24  C   UNL     1      -5.015   0.467  10.559  0.00  0.00    +0.004 A 
ATOM     25  C   UNL     1      -5.345  -0.177   9.382  0.00  0.00    +0.002 A 
ATOM     26  C   UNL     1      -4.351  -0.678   8.564  0.00  0.00    +0.023 A 
ATOM     27  C   UNL     1      -3.018  -0.533   8.927  0.00  0.00    +0.033 A 
ATOM     28  C   UNL     1      -2.690   0.110  10.114  0.00  0.00    -0.027 A 
ATOM     29  C   UNL     1      -1.245   0.263  10.515  0.00  0.00    +0.046 C 
ENDBRANCH  15  27
ENDBRANCH   1  20
BRANCH   1  30
ATOM     30  C   UNL     1       1.424  -2.670   5.588  0.00  0.00    +0.143 A 
ATOM     31  N   UNL     1       1.851  -1.583   6.184  0.00  0.00    -0.115 NA
ATOM     32  N   UNL     1       3.039  -1.813   6.627  0.00  0.00    -0.023 NA
ATOM     33  N   UNL     1       3.383  -3.016   6.323  0.00  0.00    -0.044 NA
ATOM     34  N   UNL     1       2.414  -3.577   5.682  0.00  0.00    -0.228 N 
BRANCH  34  35
ATOM     35  C   UNL     1       2.396  -4.943   5.154  0.00  0.00    +0.175 C 
BRANCH  35  36
ATOM     36  C   UNL     1       2.941  -4.945   3.725  0.00  0.00    +0.183 C 
BRANCH  36  37
ATOM     37  O   UNL     1       2.923  -6.278   3.210  0.00  0.00    -0.381 OA
ATOM     38  C   UNL     1       3.415  -6.392   1.873  0.00  0.00    +0.194 C 
ENDBRANCH  36  37
ENDBRANCH  35  36
ENDBRANCH  34  35
ENDBRANCH   1  30
TORSDOF 7
