REMARK  Name = ZINC35515516
REMARK  5 active torsions:
REMARK  status: ('A' for Active; 'I' for Inactive)
REMARK    1  A    between atoms: C_3  and  N_32
REMARK    2  A    between atoms: C_6  and  C_7
REMARK    3  A    between atoms: N_22  and  C_23
REMARK    4  A    between atoms: C_23  and  C_24
REMARK    5  A    between atoms: C_24  and  N_25
REMARK                            x       y       z     vdW  Elec       q    Type
REMARK                         _______ _______ _______ _____ _____    ______ ____
ROOT
ATOM      1  C   UNL     1      -1.293  -0.775   0.010  0.00  0.00    +0.145 C 
ATOM      2  C   UNL     1      -1.593  -1.291  -1.359  0.00  0.00    +0.072 A 
ATOM      3  C   UNL     1      -1.830  -0.591  -2.625  0.00  0.00    +0.199 A 
ATOM      4  O   UNL     1      -1.637   0.603  -2.773  0.00  0.00    -0.287 OA
ATOM      5  C   UNL     1      -2.326  -1.475  -3.710  0.00  0.00    +0.065 A 
ATOM      6  C   UNL     1      -2.785  -0.931  -4.909  0.00  0.00    +0.030 A 
ATOM      7  C   UNL     1      -3.247  -1.766  -5.903  0.00  0.00    +0.019 A 
ATOM      8  C   UNL     1      -3.254  -3.142  -5.708  0.00  0.00    +0.019 A 
ATOM      9  C   UNL     1      -2.801  -3.689  -4.529  0.00  0.00    +0.048 A 
ATOM     10  C   UNL     1      -2.326  -2.865  -3.509  0.00  0.00    +0.140 A 
ATOM     11  O   UNL     1      -1.878  -3.430  -2.365  0.00  0.00    -0.450 OA
ATOM     12  C   UNL     1      -1.634  -2.655  -1.290  0.00  0.00    +0.199 A 
ATOM     13  C   UNL     1      -1.372  -3.056   0.103  0.00  0.00    +0.283 C 
ATOM     14  O   UNL     1      -1.340  -4.202   0.504  0.00  0.00    -0.267 OA
ATOM     15  N   UNL     1      -1.171  -1.963   0.871  0.00  0.00    -0.282 N 
ATOM     16 BR   UNL     1      -3.872  -1.040  -7.533  0.00  0.00    -0.050 Br
ENDROOT
BRANCH   1  22
ATOM     17  C   UNL     1      -0.017   1.378   0.010  0.00  0.00    +0.008 A 
ATOM     18  C   UNL     1       1.171   2.086   0.002  0.00  0.00    +0.033 A 
ATOM     19  C   UNL     1       2.377   1.411  -0.013  0.00  0.00    +0.126 A 
ATOM     20  C   UNL     1       2.396   0.029  -0.020  0.00  0.00    +0.033 A 
ATOM     21  C   UNL     1       1.208  -0.679  -0.012  0.00  0.00    +0.008 A 
ATOM     22  C   UNL     1       0.002  -0.004   0.002  0.00  0.00    -0.022 A 
BRANCH  19  23
ATOM     23  N   UNL     1       3.649   2.168  -0.022  0.00  0.00    +0.056 N 
ATOM     24  O   UNL     1       3.633   3.377  -0.016  0.00  0.00    -0.126 OA
ATOM     25  O   UNL     1       4.704   1.578  -0.035  0.00  0.00    -0.126 OA
ENDBRANCH  19  23
ENDBRANCH   1  22
BRANCH  15  26
ATOM     26  C   UNL     1      -0.882  -1.959   2.307  0.00  0.00    +0.124 C 
BRANCH  26  27
ATOM     27  C   UNL     1      -2.194  -1.897   3.091  0.00  0.00    +0.103 C 
BRANCH  27  28
ATOM     28  N   UNL     1      -1.904  -1.893   4.532  0.00  0.00    -0.297 NA
ATOM     29  C   UNL     1      -1.313  -3.171   4.953  0.00  0.00    +0.112 C 
ATOM     30  C   UNL     1      -0.972  -3.102   6.444  0.00  0.00    +0.175 C 
ATOM     31  O   UNL     1      -2.154  -2.782   7.184  0.00  0.00    -0.377 OA
ATOM     32  C   UNL     1      -2.756  -1.543   6.799  0.00  0.00    +0.175 C 
ATOM     33  C   UNL     1      -3.114  -1.596   5.312  0.00  0.00    +0.112 C 
ENDBRANCH  27  28
ENDBRANCH  26  27
ENDBRANCH  15  26
TORSDOF 5
