REMARK  Name = ZINC13221788
REMARK  9 active torsions:
REMARK  status: ('A' for Active; 'I' for Inactive)
REMARK    1  A    between atoms: C_1  and  C_2
REMARK    2  A    between atoms: C_3  and  C_27
REMARK    3  A    between atoms: C_4  and  C_26
REMARK    4  A    between atoms: C_9  and  S_11
REMARK    5  A    between atoms: S_11  and  C_12
REMARK    6  A    between atoms: C_12  and  C_14
REMARK    7  A    between atoms: C_12  and  C_15
REMARK    8  A    between atoms: N_17  and  C_18
REMARK    9  A    between atoms: C_27  and  C_28
REMARK                            x       y       z     vdW  Elec       q    Type
REMARK                         _______ _______ _______ _____ _____    ______ ____
ROOT
ATOM      1  C   UNL     1       1.593   7.395  -0.051  0.00  0.00    +0.066 C 
ATOM      2  C   UNL     1       0.785   6.124  -0.041  0.00  0.00    +0.047 A 
ATOM      3  C   UNL     1      -0.613   6.187  -0.031  0.00  0.00    +0.006 A 
ATOM      4  C   UNL     1      -1.330   5.033  -0.023  0.00  0.00    +0.049 A 
ATOM      5  N   UNL     1      -0.669   3.846  -0.025  0.00  0.00    -0.200 N 
ATOM      6  C   UNL     1       0.698   3.818  -0.035  0.00  0.00    +0.254 A 
ATOM      7  N   UNL     1       1.395   4.960  -0.043  0.00  0.00    -0.216 NA
ATOM      8  N   UNL     1       1.068   2.542  -0.034  0.00  0.00    -0.183 NA
ATOM      9  C   UNL     1      -0.010   1.761  -0.025  0.00  0.00    +0.212 A 
ATOM     10  N   UNL     1      -1.094   2.511  -0.024  0.00  0.00    -0.137 NA
ATOM     11  C   UNL     1      -2.836   5.068  -0.012  0.00  0.00    +0.066 C 
ENDROOT
BRANCH   9  12
ATOM     12  S   UNL     1       0.010  -0.001  -0.022  0.00  0.00    -0.072 S 
BRANCH  12  13
ATOM     13  C   UNL     1       1.774  -0.420  -0.033  0.00  0.00    +0.137 C 
ATOM     14  C   UNL     1       2.402   0.053  -1.346  0.00  0.00    +0.029 C 
BRANCH  13  15
ATOM     15  C   UNL     1       1.937  -1.913   0.092  0.00  0.00    +0.230 C 
ATOM     16  O   UNL     1       1.044  -2.652  -0.265  0.00  0.00    -0.274 OA
ATOM     17  N   UNL     1       3.074  -2.427   0.601  0.00  0.00    -0.283 N 
ATOM     18  H   UNL     1       3.813  -1.840   0.826  0.00  0.00    +0.155 HD
BRANCH  17  19
ATOM     19  C   UNL     1       3.189  -3.808   0.805  0.00  0.00    +0.052 A 
ATOM     20  C   UNL     1       2.579  -4.693  -0.074  0.00  0.00    +0.026 A 
ATOM     21  C   UNL     1       2.694  -6.055   0.129  0.00  0.00    +0.022 A 
ATOM     22  C   UNL     1       3.416  -6.537   1.207  0.00  0.00    +0.042 A 
ATOM     23  C   UNL     1       4.025  -5.657   2.085  0.00  0.00    +0.041 A 
ATOM     24  C   UNL     1       3.917  -4.294   1.884  0.00  0.00    +0.064 A 
ATOM     25 CL   UNL     1       4.686  -3.190   2.981  0.00  0.00    -0.082 Cl
ATOM     26 CL   UNL     1       3.558  -8.248   1.458  0.00  0.00    -0.083 Cl
ENDBRANCH  17  19
ENDBRANCH  13  15
ENDBRANCH  12  13
ENDBRANCH   9  12
BRANCH   3  27
ATOM     27  C   UNL     1      -1.316   7.520  -0.029  0.00  0.00    +0.163 C 
BRANCH  27  28
ATOM     28  C   UNL     1      -1.560   7.962  -1.449  0.00  0.00    +0.360 C 
ATOM     29  O   UNL     1      -1.201   7.265  -2.368  0.00  0.00    -0.246 OA
ATOM     30  O   UNL     1      -2.177   9.129  -1.692  0.00  0.00    -0.246 OA
ENDBRANCH  27  28
ENDBRANCH   3  27
TORSDOF 6
