REMARK  Name = ZINC03345978
REMARK  6 active torsions:
REMARK  status: ('A' for Active; 'I' for Inactive)
REMARK    1  A    between atoms: C_1  and  C_2
REMARK    2  A    between atoms: N_5  and  N_23
REMARK    3  A    between atoms: C_6  and  S_9
REMARK    4  A    between atoms: S_9  and  C_10
REMARK    5  A    between atoms: C_10  and  C_11
REMARK    6  A    between atoms: C_11  and  C_13
REMARK                            x       y       z     vdW  Elec       q    Type
REMARK                         _______ _______ _______ _____ _____    ______ ____
ROOT
ATOM      1  C   UNL     1      -4.590   3.052   4.102  0.00  0.00    +0.157 C 
ENDROOT
BRANCH   1   2
ATOM      2  C   UNL     1      -5.569   3.523   5.146  0.00  0.00    +0.175 C 
ATOM      3  O   UNL     1      -5.181   3.797   6.263  0.00  0.00    -0.291 OA
BRANCH   2   4
ATOM      4  C   UNL     1      -6.944   3.646   4.824  0.00  0.00    +0.043 A 
ATOM      5  C   UNL     1      -7.536   3.380   3.607  0.00  0.00    +0.095 A 
ATOM      6  N   UNL     1      -8.860   3.611   3.689  0.00  0.00    -0.360 N 
ATOM      7  H   UNL     1      -9.487   3.492   2.958  0.00  0.00    +0.165 HD
ATOM      8  C   UNL     1      -9.203   4.047   4.953  0.00  0.00    +0.047 A 
ATOM      9  C   UNL     1      -8.029   4.090   5.721  0.00  0.00    +0.010 A 
ATOM     10  C   UNL     1      -8.078   4.497   7.051  0.00  0.00    +0.011 A 
ATOM     11  C   UNL     1      -9.284   4.858   7.610  0.00  0.00    +0.001 A 
ATOM     12  C   UNL     1     -10.446   4.817   6.853  0.00  0.00    +0.002 A 
ATOM     13  C   UNL     1     -10.411   4.415   5.535  0.00  0.00    +0.026 A 
ENDBRANCH   2   4
ENDBRANCH   1   2
BRANCH   1  14
ATOM     14  S   UNL     1      -2.927   3.000   4.815  0.00  0.00    -0.076 S 
BRANCH  14  20
ATOM     15  C   UNL     1      -0.013   1.086   0.008  0.00  0.00    +0.073 C 
ATOM     16  C   UNL     1      -0.718   1.572   1.248  0.00  0.00    +0.126 A 
ATOM     17  C   UNL     1       0.010   1.812   2.433  0.00  0.00    +0.293 A 
ATOM     18  O   UNL     1       1.216   1.633   2.475  0.00  0.00    -0.264 OA
ATOM     19  N   UNL     1      -0.666   2.248   3.521  0.00  0.00    -0.206 N 
ATOM     20  C   UNL     1      -2.013   2.433   3.419  0.00  0.00    +0.210 A 
ATOM     21  N   UNL     1      -2.639   2.189   2.279  0.00  0.00    -0.122 NA
ATOM     22  N   UNL     1      -2.014   1.780   1.234  0.00  0.00    -0.146 NA
BRANCH  19  23
ATOM     23  N   UNL     1      -0.014   2.498   4.694  0.00  0.00    -0.293 N 
ATOM     24  H   UNL     1       0.974   2.314   4.606  0.00  0.00    +0.163 HD
ATOM     25  H   UNL     1      -0.179   3.444   5.005  0.00  0.00    +0.163 HD
ENDBRANCH  19  23
ENDBRANCH  14  20
ENDBRANCH   1  14
TORSDOF 5
