REMARK  Name = ZINC58580001
REMARK  8 active torsions:
REMARK  status: ('A' for Active; 'I' for Inactive)
REMARK    1  A    between atoms: C_1  and  C_2
REMARK    2  A    between atoms: C_2  and  C_3
REMARK    3  A    between atoms: C_2  and  N_4
REMARK    4  A    between atoms: C_13  and  C_15
REMARK    5  A    between atoms: N_17  and  N_18
REMARK    6  A    between atoms: C_19  and  C_21
REMARK    7  A    between atoms: C_22  and  C_23
REMARK    8  A    between atoms: C_22  and  C_24
REMARK                            x       y       z     vdW  Elec       q    Type
REMARK                         _______ _______ _______ _____ _____    ______ ____
ROOT
ATOM      1  N   UNL     1      -2.245   1.975  -0.919  0.00  0.00    -0.226 N 
ATOM      2  C   UNL     1      -2.704   1.415  -2.058  0.00  0.00    +0.275 A 
ATOM      3  O   UNL     1      -2.080   1.516  -3.098  0.00  0.00    -0.266 OA
ATOM      4  C   UNL     1      -3.976   0.680  -2.012  0.00  0.00    +0.050 A 
ATOM      5  C   UNL     1      -4.535   0.068  -3.130  0.00  0.00    +0.014 A 
ATOM      6  C   UNL     1      -5.733  -0.603  -3.004  0.00  0.00    +0.001 A 
ATOM      7  C   UNL     1      -6.383  -0.672  -1.778  0.00  0.00    +0.001 A 
ATOM      8  C   UNL     1      -5.845  -0.072  -0.659  0.00  0.00    +0.011 A 
ATOM      9  C   UNL     1      -4.637   0.610  -0.764  0.00  0.00    +0.020 A 
ATOM     10  C   UNL     1      -3.996   1.277   0.380  0.00  0.00    +0.155 A 
ATOM     11  N   UNL     1      -2.855   1.896   0.203  0.00  0.00    -0.163 NA
ENDROOT
BRANCH  10  12
ATOM     12  C   UNL     1      -4.629   1.245   1.714  0.00  0.00    +0.281 C 
ATOM     13  O   UNL     1      -5.686   0.665   1.871  0.00  0.00    -0.267 OA
ATOM     14  N   UNL     1      -4.036   1.859   2.756  0.00  0.00    -0.229 N 
ATOM     15  H   UNL     1      -3.192   2.322   2.631  0.00  0.00    +0.173 HD
BRANCH  14  16
ATOM     16  N   UNL     1      -4.636   1.829   4.022  0.00  0.00    -0.231 N 
ATOM     17  C   UNL     1      -4.043   2.443   5.064  0.00  0.00    +0.253 C 
ATOM     18  O   UNL     1      -2.985   3.023   4.907  0.00  0.00    -0.269 OA
ATOM     19  H   UNL     1      -5.479   1.367   4.147  0.00  0.00    +0.173 HD
BRANCH  17  20
ATOM     20  C   UNL     1      -4.673   2.412   6.393  0.00  0.00    +0.067 C 
ATOM     21  C   UNL     1      -4.033   2.913   7.445  0.00  0.00    -0.071 C 
ATOM     22  C   UNL     1      -2.601   3.365   7.311  0.00  0.00    +0.039 C 
ATOM     23  C   UNL     1      -4.738   3.028   8.772  0.00  0.00    +0.039 C 
ENDBRANCH  17  20
ENDBRANCH  14  16
ENDBRANCH  10  12
BRANCH   1  25
ATOM     24  C   UNL     1      -1.208   4.157  -0.544  0.00  0.00    +0.032 C 
ATOM     25  C   UNL     1      -0.977   2.706  -0.969  0.00  0.00    +0.105 C 
ATOM     26  C   UNL     1       0.028   2.050  -0.020  0.00  0.00    +0.032 C 
ENDBRANCH   1  25
TORSDOF 4
