REMARK  Name = ZINC35490747
REMARK  10 active torsions:
REMARK  status: ('A' for Active; 'I' for Inactive)
REMARK    1  A    between atoms: C_1  and  C_2
REMARK    2  A    between atoms: C_2  and  C_3
REMARK    3  A    between atoms: C_3  and  O_4
REMARK    4  A    between atoms: O_4  and  C_5
REMARK    5  A    between atoms: C_8  and  C_14
REMARK    6  A    between atoms: C_10  and  O_11
REMARK    7  A    between atoms: O_11  and  C_12
REMARK    8  A    between atoms: C_12  and  C_13
REMARK    9  A    between atoms: C_33  and  C_35
REMARK   10  A    between atoms: C_35  and  C_36
REMARK                            x       y       z     vdW  Elec       q    Type
REMARK                         _______ _______ _______ _____ _____    ______ ____
ROOT
ATOM      1  C   UNL     1       3.243  -4.423  -5.653  0.00  0.00    +0.152 C 
ATOM      2  C   UNL     1       2.333  -4.416  -6.838  0.00  0.00    +0.072 A 
ATOM      3  C   UNL     1       1.011  -5.015  -7.045  0.00  0.00    +0.199 A 
ATOM      4  O   UNL     1       0.353  -5.506  -6.144  0.00  0.00    -0.287 OA
ATOM      5  C   UNL     1       0.550  -4.966  -8.455  0.00  0.00    +0.064 A 
ATOM      6  C   UNL     1      -0.589  -5.666  -8.851  0.00  0.00    +0.015 A 
ATOM      7  C   UNL     1      -0.998  -5.615 -10.154  0.00  0.00    +0.001 A 
ATOM      8  C   UNL     1      -0.283  -4.870 -11.082  0.00  0.00    +0.004 A 
ATOM      9  C   UNL     1       0.843  -4.171 -10.708  0.00  0.00    +0.047 A 
ATOM     10  C   UNL     1       1.280  -4.206  -9.384  0.00  0.00    +0.139 A 
ATOM     11  O   UNL     1       2.383  -3.505  -9.037  0.00  0.00    -0.450 OA
ATOM     12  C   UNL     1       2.948  -3.705  -7.830  0.00  0.00    +0.199 A 
ATOM     13  C   UNL     1       4.254  -3.245  -7.329  0.00  0.00    +0.289 C 
ATOM     14  O   UNL     1       5.052  -2.589  -7.967  0.00  0.00    -0.266 OA
ATOM     15  N   UNL     1       4.436  -3.660  -6.056  0.00  0.00    -0.230 N 
ATOM     16  C   UNL     1       5.550  -3.410  -5.266  0.00  0.00    +0.191 A 
ATOM     17  N   UNL     1       5.812  -3.779  -4.020  0.00  0.00    -0.125 NA
ATOM     18  N   UNL     1       6.889  -3.462  -3.445  0.00  0.00    -0.145 NA
ATOM     19  C   UNL     1       7.820  -2.746  -4.044  0.00  0.00    +0.103 A 
ATOM     20  S   UNL     1       7.048  -2.504  -5.641  0.00  0.00    -0.035 S 
ENDROOT
BRANCH   1  24
ATOM     21  C   UNL     1       1.342  -2.530  -2.323  0.00  0.00    +0.162 A 
ATOM     22  C   UNL     1       1.908  -1.763  -3.329  0.00  0.00    +0.050 A 
ATOM     23  C   UNL     1       2.522  -2.378  -4.404  0.00  0.00    +0.009 A 
ATOM     24  C   UNL     1       2.573  -3.758  -4.479  0.00  0.00    -0.018 A 
ATOM     25  C   UNL     1       2.009  -4.529  -3.479  0.00  0.00    +0.055 A 
ATOM     26  C   UNL     1       1.397  -3.918  -2.396  0.00  0.00    +0.162 A 
BRANCH  21  27
ATOM     27  O   UNL     1       0.738  -1.926  -1.265  0.00  0.00    -0.488 OA
BRANCH  27  28
ATOM     28  C   UNL     1       0.718  -0.497  -1.257  0.00  0.00    +0.229 C 
BRANCH  28  30
ATOM     29  C   UNL     1      -0.019   1.526   0.010  0.00  0.00    +0.007 C 
ATOM     30  C   UNL     1       0.002  -0.004   0.002  0.00  0.00    +0.038 C 
ENDBRANCH  28  30
ENDBRANCH  27  28
ENDBRANCH  21  27
BRANCH  26  31
ATOM     31  O   UNL     1       0.847  -4.675  -1.408  0.00  0.00    -0.489 OA
BRANCH  31  32
ATOM     32  C   UNL     1       0.942  -6.094  -1.549  0.00  0.00    +0.226 C 
ATOM     33  C   UNL     1       0.273  -6.771  -0.352  0.00  0.00    +0.048 C 
ENDBRANCH  31  32
ENDBRANCH  26  31
ENDBRANCH   1  24
BRANCH  19  34
ATOM     34  C   UNL     1       9.156  -2.271  -3.532  0.00  0.00    +0.061 C 
ATOM     35  C   UNL     1      10.225  -3.320  -3.847  0.00  0.00    +0.011 C 
ENDBRANCH  19  34
TORSDOF 7
