REMARK  Name = ZINC01128326
REMARK  4 active torsions:
REMARK  status: ('A' for Active; 'I' for Inactive)
REMARK    1  A    between atoms: C_1  and  O_2
REMARK    2  A    between atoms: O_2  and  C_3
REMARK    3  A    between atoms: C_6  and  N_25
REMARK    4  A    between atoms: C_10  and  C_19
REMARK                            x       y       z     vdW  Elec       q    Type
REMARK                         _______ _______ _______ _____ _____    ______ ____
ROOT
ATOM      1  C   UNL     1      -1.201  -0.638   0.014  0.00  0.00    +0.141 A 
ATOM      2  C   UNL     1      -2.350   0.060   0.342  0.00  0.00    +0.050 A 
ATOM      3  C   UNL     1      -3.571  -0.590   0.345  0.00  0.00    +0.037 A 
ATOM      4  C   UNL     1      -3.645  -1.928   0.016  0.00  0.00    +0.132 A 
ATOM      5  C   UNL     1      -2.498  -2.638  -0.318  0.00  0.00    +0.014 A 
ATOM      6  C   UNL     1      -1.277  -1.993  -0.316  0.00  0.00    +0.076 A 
ATOM      7  N   UNL     1      -0.104  -2.682  -0.622  0.00  0.00    -0.334 N 
ATOM      8  C   UNL     1      -0.087  -4.095  -0.937  0.00  0.00    +0.105 C 
ATOM      9  C   UNL     1      -1.404  -4.651  -1.388  0.00  0.00    +0.029 C 
ATOM     10  C   UNL     1      -2.641  -4.088  -0.687  0.00  0.00    +0.051 C 
ATOM     11  C   UNL     1      -3.727  -4.192  -1.746  0.00  0.00    -0.023 C 
ATOM     12  C   UNL     1      -3.201  -4.331  -2.934  0.00  0.00    -0.030 C 
ATOM     13  C   UNL     1      -1.694  -4.341  -2.871  0.00  0.00    +0.033 C 
ATOM     14  H   UNL     1       0.734  -2.195  -0.623  0.00  0.00    +0.147 HD
ENDROOT
BRANCH   8  15
ATOM     15  C   UNL     1       0.352  -4.852   0.290  0.00  0.00    -0.024 A 
ATOM     16  C   UNL     1      -0.098  -4.486   1.549  0.00  0.00    +0.023 A 
ATOM     17  C   UNL     1       0.326  -5.204   2.651  0.00  0.00    +0.083 A 
ATOM     18  N   UNL     1       1.149  -6.225   2.515  0.00  0.00    -0.367 N 
ATOM     19  C   UNL     1       1.597  -6.602   1.333  0.00  0.00    +0.083 A 
ATOM     20  C   UNL     1       1.212  -5.935   0.185  0.00  0.00    +0.023 A 
ATOM     21  H   UNL     1       1.431  -6.712   3.304  0.00  0.00    +0.165 HD
ENDBRANCH   8  15
BRANCH   4  22
ATOM     22  N   UNL     1      -4.957  -2.613   0.019  0.00  0.00    +0.057 N 
ATOM     23  O   UNL     1      -5.934  -2.048  -0.413  0.00  0.00    -0.126 OA
ATOM     24  O   UNL     1      -5.051  -3.737   0.454  0.00  0.00    -0.126 OA
ENDBRANCH   4  22
BRANCH   1  26
ATOM     25  C   UNL     1       0.006   1.382   0.355  0.00  0.00    +0.277 C 
ATOM     26  O   UNL     1       0.002  -0.004   0.007  0.00  0.00    -0.493 OA
ENDBRANCH   1  26
TORSDOF 3
