REMARK  Name = ZINC20898916
REMARK  6 active torsions:
REMARK  status: ('A' for Active; 'I' for Inactive)
REMARK    1  A    between atoms: C_1  and  C_2
REMARK    2  A    between atoms: C_5  and  N_9
REMARK    3  A    between atoms: C_12  and  C_14
REMARK    4  A    between atoms: C_15  and  C_22
REMARK    5  A    between atoms: C_25  and  O_28
REMARK    6  A    between atoms: O_28  and  C_29
REMARK                            x       y       z     vdW  Elec       q    Type
REMARK                         _______ _______ _______ _____ _____    ______ ____
ROOT
ATOM      1  N   UNL     1       2.404   1.105  -0.015  0.00  0.00    -0.218 N 
ATOM      2  C   UNL     1       3.517   1.459  -0.746  0.00  0.00    +0.133 A 
ATOM      3  C   UNL     1       4.474   0.543  -0.477  0.00  0.00    +0.033 A 
ATOM      4  C   UNL     1       3.933  -0.392   0.430  0.00  0.00    +0.067 A 
ATOM      5  N   UNL     1       2.704  -0.054   0.701  0.00  0.00    -0.170 NA
ATOM      6  C   UNL     1       4.657  -1.587   0.995  0.00  0.00    +0.068 C 
ATOM      7  C   UNL     1       5.876   0.433  -0.988  0.00  0.00    +0.112 C 
ATOM      8  S   UNL     1       6.062   1.000  -2.680  0.00  0.00    -0.138 S 
ATOM      9  C   UNL     1       5.777   2.775  -2.644  0.00  0.00    +0.166 C 
ATOM     10  C   UNL     1       4.371   3.127  -2.353  0.00  0.00    +0.228 C 
ATOM     11  O   UNL     1       3.946   4.080  -2.972  0.00  0.00    -0.275 OA
ATOM     12  N   UNL     1       3.518   2.579  -1.541  0.00  0.00    -0.269 N 
ATOM     13  H   UNL     1       2.635   3.234  -1.569  0.00  0.00    +0.156 HD
ENDROOT
BRANCH   1  18
ATOM     14  C   UNL     1      -2.554   3.866   0.051  0.00  0.00    +0.045 C 
ATOM     15  C   UNL     1      -1.238   3.133   0.033  0.00  0.00    -0.032 A 
ATOM     16  C   UNL     1      -0.689   2.670   1.215  0.00  0.00    +0.007 A 
ATOM     17  C   UNL     1       0.520   2.003   1.203  0.00  0.00    +0.028 A 
ATOM     18  C   UNL     1       1.180   1.787   0.000  0.00  0.00    +0.069 A 
ATOM     19  C   UNL     1       0.626   2.248  -1.186  0.00  0.00    +0.048 A 
ATOM     20  C   UNL     1      -0.582   2.920  -1.167  0.00  0.00    +0.046 A 
ATOM     21 CL   UNL     1      -1.277   3.497  -2.649  0.00  0.00    -0.083 Cl
ENDBRANCH   1  18
BRANCH   7  22
ATOM     22  C   UNL     1       6.306  -1.010  -0.911  0.00  0.00    -0.030 A 
ATOM     23  C   UNL     1       5.603  -1.977  -1.604  0.00  0.00    +0.008 A 
ATOM     24  C   UNL     1       5.999  -3.299  -1.540  0.00  0.00    +0.046 A 
ATOM     25  C   UNL     1       7.096  -3.657  -0.770  0.00  0.00    +0.120 A 
ATOM     26  C   UNL     1       7.797  -2.685  -0.071  0.00  0.00    +0.046 A 
ATOM     27  C   UNL     1       7.401  -1.363  -0.143  0.00  0.00    +0.008 A 
BRANCH  25  28
ATOM     28  O   UNL     1       7.484  -4.958  -0.700  0.00  0.00    -0.495 OA
ATOM     29  C   UNL     1       6.716  -5.904  -1.446  0.00  0.00    +0.277 C 
ENDBRANCH  25  28
ENDBRANCH   7  22
TORSDOF 3
