REMARK  Name = ZINC63526563
REMARK  10 active torsions:
REMARK  status: ('A' for Active; 'I' for Inactive)
REMARK    1  A    between atoms: C_1  and  C_2
REMARK    2  A    between atoms: C_4  and  C_12
REMARK    3  A    between atoms: C_12  and  C_13
REMARK    4  A    between atoms: C_13  and  N_14
REMARK    5  A    between atoms: C_15  and  C_17
REMARK    6  A    between atoms: C_24  and  C_28
REMARK    7  A    between atoms: C_24  and  C_29
REMARK    8  A    between atoms: N_30  and  C_33
REMARK    9  A    between atoms: C_38  and  O_39
REMARK   10  A    between atoms: O_39  and  C_40
REMARK                            x       y       z     vdW  Elec       q    Type
REMARK                         _______ _______ _______ _____ _____    ______ ____
ROOT
ATOM      1  C   UNL     1      -7.120  -1.151  -2.393  0.00  0.00    +0.184 C 
ATOM      2  C   UNL     1      -7.426   0.332  -2.495  0.00  0.00    +0.004 C 
ATOM      3  C   UNL     1      -8.143   0.864  -1.485  0.00  0.00    +0.013 C 
ATOM      4  C   UNL     1      -8.563  -0.052  -0.377  0.00  0.00    +0.115 C 
ATOM      5  C   UNL     1      -9.460   0.557   0.658  0.00  0.00    +0.034 C 
ATOM      6  C   UNL     1     -10.216   1.790   0.225  0.00  0.00    -0.026 C 
ATOM      7  C   UNL     1      -9.311   2.854  -0.377  0.00  0.00    +0.085 C 
ATOM      8  C   UNL     1      -8.512   2.272  -1.511  0.00  0.00    +0.161 C 
ATOM      9  O   UNL     1      -8.202   2.967  -2.456  0.00  0.00    -0.292 OA
ATOM     10  C   UNL     1     -11.263   1.387  -0.815  0.00  0.00    +0.011 C 
ATOM     11  C   UNL     1     -10.932   2.382   1.440  0.00  0.00    +0.011 C 
ATOM     12  N   UNL     1      -9.105  -1.288  -0.946  0.00  0.00    -0.260 N 
ATOM     13  C   UNL     1      -8.391  -1.857  -1.961  0.00  0.00    +0.236 C 
ATOM     14  O   UNL     1      -8.757  -2.882  -2.496  0.00  0.00    -0.274 OA
ENDROOT
BRANCH  12  15
ATOM     15  C   UNL     1     -10.294  -1.859  -0.472  0.00  0.00    +0.079 A 
ATOM     16  C   UNL     1     -11.509  -1.506  -1.039  0.00  0.00    +0.027 A 
ATOM     17  C   UNL     1     -12.680  -2.070  -0.570  0.00  0.00    +0.002 A 
ATOM     18  C   UNL     1     -12.644  -2.988   0.464  0.00  0.00    +0.004 A 
ATOM     19  C   UNL     1     -11.436  -3.345   1.034  0.00  0.00    +0.047 A 
ATOM     20  C   UNL     1     -10.257  -2.788   0.566  0.00  0.00    +0.141 A 
BRANCH  20  21
ATOM     21  O   UNL     1      -9.068  -3.142   1.122  0.00  0.00    -0.493 OA
ATOM     22  C   UNL     1      -9.107  -4.100   2.182  0.00  0.00    +0.277 C 
ENDBRANCH  20  21
ENDBRANCH  12  15
BRANCH   1  24
ATOM     23  N   UNL     1      -4.819  -0.827  -1.544  0.00  0.00    -0.314 N 
ATOM     24  C   UNL     1      -6.036  -1.380  -1.371  0.00  0.00    +0.229 C 
ATOM     25  O   UNL     1      -6.258  -2.062  -0.393  0.00  0.00    -0.275 OA
ATOM     26  H   UNL     1      -4.641  -0.281  -2.327  0.00  0.00    +0.149 HD
BRANCH  23  27
ATOM     27  C   UNL     1      -3.765  -1.049  -0.551  0.00  0.00    +0.108 C 
BRANCH  27  28
ATOM     28  C   UNL     1      -2.494  -0.316  -0.984  0.00  0.00    +0.052 C 
BRANCH  28  31
ATOM     29  C   UNL     1      -0.019   1.526   0.010  0.00  0.00    +0.035 C 
ATOM     30  C   UNL     1       0.002  -0.004   0.002  0.00  0.00    +0.103 C 
ATOM     31  C   UNL     1      -1.410  -0.545   0.038  0.00  0.00    -0.037 C 
ATOM     32  C   UNL     1      -1.503  -1.275   1.173  0.00  0.00    -0.001 A 
ATOM     33  C   UNL     1      -2.599  -2.045   1.772  0.00  0.00    +0.010 A 
ATOM     34  C   UNL     1      -2.386  -2.686   2.944  0.00  0.00    +0.001 A 
ATOM     35  C   UNL     1      -1.148  -2.632   3.599  0.00  0.00    +0.002 A 
ATOM     36  C   UNL     1      -0.094  -1.946   3.110  0.00  0.00    +0.026 A 
ATOM     37  C   UNL     1      -0.205  -1.235   1.884  0.00  0.00    +0.043 A 
ATOM     38  N   UNL     1       0.658  -0.508   1.214  0.00  0.00    -0.378 N 
ATOM     39  H   UNL     1       1.576  -0.332   1.476  0.00  0.00    +0.160 HD
ENDBRANCH  28  31
ENDBRANCH  27  28
ENDBRANCH  23  27
ENDBRANCH   1  24
TORSDOF 6
