REMARK  Name = ZINC25629132
REMARK  8 active torsions:
REMARK  status: ('A' for Active; 'I' for Inactive)
REMARK    1  A    between atoms: C_1  and  C_2
REMARK    2  A    between atoms: C_5  and  N_8
REMARK    3  A    between atoms: C_12  and  C_14
REMARK    4  A    between atoms: C_14  and  S_15
REMARK    5  A    between atoms: S_15  and  C_16
REMARK    6  A    between atoms: C_19  and  C_28
REMARK    7  A    between atoms: N_20  and  C_21
REMARK    8  A    between atoms: C_21  and  C_22
REMARK                            x       y       z     vdW  Elec       q    Type
REMARK                         _______ _______ _______ _____ _____    ______ ____
ROOT
ATOM      1  S   UNL     1       3.822   2.114  -0.031  0.00  0.00    -0.077 S 
ENDROOT
BRANCH   1   2
ATOM      2  C   UNL     1       5.197   1.013  -0.061  0.00  0.00    +0.192 A 
ATOM      3  N   UNL     1       5.143  -0.300  -0.077  0.00  0.00    -0.122 NA
ATOM      4  N   UNL     1       6.330  -0.791  -0.098  0.00  0.00    -0.128 NA
ATOM      5  C   UNL     1       7.218   0.179  -0.096  0.00  0.00    +0.172 A 
ATOM      6  N   UNL     1       6.518   1.365  -0.079  0.00  0.00    -0.299 N 
BRANCH   5   7
ATOM      7  C   UNL     1       8.681   0.027  -0.116  0.00  0.00    +0.056 A 
ATOM      8  C   UNL     1       9.431  -1.084  -0.409  0.00  0.00    +0.019 A 
ATOM      9  C   UNL     1      10.804  -0.985  -0.366  0.00  0.00    +0.008 A 
ATOM     10  C   UNL     1      11.372   0.201  -0.025  0.00  0.00    +0.046 A 
ATOM     11  S   UNL     1       9.944   1.237   0.243  0.00  0.00    -0.094 S 
ENDBRANCH   5   7
BRANCH   6  12
ATOM     12  C   UNL     1       7.072   2.721  -0.075  0.00  0.00    +0.157 C 
BRANCH  12  13
ATOM     13  C   UNL     1       7.288   3.181   1.368  0.00  0.00    +0.138 C 
ATOM     14  C   UNL     1       7.926   4.593   1.393  0.00  0.00    +0.035 C 
ATOM     15  C   UNL     1       7.465   5.099   2.787  0.00  0.00    +0.031 C 
ATOM     16  C   UNL     1       6.072   4.448   2.928  0.00  0.00    +0.160 C 
ATOM     17  O   UNL     1       6.026   3.327   2.038  0.00  0.00    -0.375 OA
ENDBRANCH  12  13
ENDBRANCH   6  12
ENDBRANCH   1   2
BRANCH   1  18
ATOM     18  C   UNL     1       2.462   0.919  -0.029  0.00  0.00    +0.173 C 
BRANCH  18  23
ATOM     19  N   UNL     1      -2.345   0.934   0.018  0.00  0.00    -0.269 N 
ATOM     20  C   UNL     1      -1.187   1.624   0.018  0.00  0.00    +0.310 C 
ATOM     21  O   UNL     1      -1.204   2.839   0.034  0.00  0.00    -0.252 OA
ATOM     22  N   UNL     1      -0.011   0.966   0.002  0.00  0.00    -0.239 N 
ATOM     23  C   UNL     1       1.147   1.655  -0.004  0.00  0.00    +0.231 C 
ATOM     24  O   UNL     1       1.131   2.867   0.011  0.00  0.00    -0.274 OA
ATOM     25  H   UNL     1      -2.333  -0.162  -0.072  0.00  0.00    +0.156 HD
ATOM     26  H   UNL     1       0.004  -0.134  -0.008  0.00  0.00    +0.159 HD
BRANCH  19  31
ATOM     27  C   UNL     1      -7.285   3.685   0.484  0.00  0.00    +0.044 C 
ATOM     28  C   UNL     1      -5.973   2.954   0.360  0.00  0.00    -0.050 A 
ATOM     29  C   UNL     1      -4.926   3.530  -0.335  0.00  0.00    +0.005 A 
ATOM     30  C   UNL     1      -3.722   2.863  -0.450  0.00  0.00    +0.023 A 
ATOM     31  C   UNL     1      -3.564   1.613   0.133  0.00  0.00    +0.035 A 
ATOM     32  C   UNL     1      -4.619   1.035   0.827  0.00  0.00    +0.023 A 
ATOM     33  C   UNL     1      -5.819   1.710   0.943  0.00  0.00    +0.005 A 
ENDBRANCH  19  31
ENDBRANCH  18  23
ENDBRANCH   1  18
TORSDOF 7
