REMARK  Name = ZINC37968828
REMARK  3 active torsions:
REMARK  status: ('A' for Active; 'I' for Inactive)
REMARK    1  A    between atoms: C_5  and  C_8
REMARK    2  A    between atoms: C_5  and  N_11
REMARK    3  A    between atoms: N_11  and  C_12
REMARK                            x       y       z     vdW  Elec       q    Type
REMARK                         _______ _______ _______ _____ _____    ______ ____
ROOT
ATOM      1  C   UNL     1      -0.515   0.697  -0.367  0.00  0.00    -0.000 C 
ATOM      2  C   UNL     1       0.709   1.634  -0.433  0.00  0.00    -0.000 C 
ATOM      3  C   UNL     1       1.224   1.847   0.964  0.00  0.00    -0.001 C 
ATOM      4  C   UNL     1       2.354   0.866   1.332  0.00  0.00    -0.003 C 
ATOM      5  C   UNL     1       2.082  -0.569   0.843  0.00  0.00    +0.010 C 
ATOM      6  C   UNL     1       0.651  -0.987   1.051  0.00  0.00    -0.003 C 
ATOM      7  C   UNL     1      -0.136  -0.703  -0.244  0.00  0.00    -0.001 C 
ENDROOT
BRANCH   5   8
ATOM      8  C   UNL     1       2.405  -0.653  -0.626  0.00  0.00    +0.200 C 
ATOM      9  O   UNL     1       2.093  -1.639  -1.261  0.00  0.00    -0.278 OA
ATOM     10  N   UNL     1       3.041   0.367  -1.236  0.00  0.00    -0.330 N 
ATOM     11  H   UNL     1       3.355   1.123  -0.715  0.00  0.00    +0.145 HD
ATOM     12  H   UNL     1       3.185   0.345  -2.195  0.00  0.00    +0.145 HD
ENDBRANCH   5   8
BRANCH   5  13
ATOM     13  N   UNL     1       2.958  -1.494   1.573  0.00  0.00    +0.390 N 
ATOM     14  H   UNL     1       2.699  -1.504   2.549  0.00  0.00    -0.084 HD
ATOM     15  H   UNL     1       2.861  -2.423   1.190  0.00  0.00    -0.084 HD
BRANCH  13  16
ATOM     16  C   UNL     1       4.354  -1.054   1.442  0.00  0.00    -0.070 C 
ATOM     17  C   UNL     1       4.853  -1.305   0.004  0.00  0.00    -0.016 C 
ATOM     18  C   UNL     1       6.329  -1.739   0.185  0.00  0.00    -0.002 C 
ATOM     19  C   UNL     1       6.275  -2.606   1.467  0.00  0.00    -0.002 C 
ATOM     20  C   UNL     1       5.258  -1.882   2.372  0.00  0.00    -0.016 C 
ENDBRANCH  13  16
ENDBRANCH   5  13
TORSDOF 3
