REMARK  Name = ZINC63280104
REMARK  3 active torsions:
REMARK  status: ('A' for Active; 'I' for Inactive)
REMARK    1  A    between atoms: C_12  and  C_16
REMARK    2  A    between atoms: C_22  and  C_25
REMARK    3  A    between atoms: N_27  and  C_28
REMARK                            x       y       z     vdW  Elec       q    Type
REMARK                         _______ _______ _______ _____ _____    ______ ____
ROOT
ATOM      1  C   UNL     1       4.688  -3.384  -1.578  0.00  0.00    +0.237 C 
ATOM      2  O   UNL     1       3.720  -3.502  -0.856  0.00  0.00    -0.274 OA
ATOM      3  N   UNL     1       5.189  -4.461  -2.213  0.00  0.00    -0.299 N 
ATOM      4  C   UNL     1       4.510  -5.761  -2.134  0.00  0.00    +0.108 C 
ATOM      5  C   UNL     1       4.264  -6.277  -3.555  0.00  0.00    +0.020 C 
ATOM      6  C   UNL     1       5.590  -6.307  -4.319  0.00  0.00    +0.016 C 
ATOM      7  C   UNL     1       6.160  -4.890  -4.411  0.00  0.00    +0.092 C 
ATOM      8  C   UNL     1       6.423  -4.356  -3.004  0.00  0.00    +0.120 C 
ENDROOT
BRANCH   1  19
ATOM      9  C   UNL     1       2.691   2.786   0.724  0.00  0.00    +0.000 A 
ATOM     10  C   UNL     1       1.496   2.134   0.477  0.00  0.00    +0.001 A 
ATOM     11  C   UNL     1       1.481   0.957  -0.241  0.00  0.00    +0.013 A 
ATOM     12  C   UNL     1       2.676   0.417  -0.719  0.00  0.00    +0.043 A 
ATOM     13  C   UNL     1       3.877   1.095  -0.483  0.00  0.00    -0.005 A 
ATOM     14  C   UNL     1       3.880   2.265   0.243  0.00  0.00    +0.007 A 
ATOM     15  C   UNL     1       4.945   0.303  -1.176  0.00  0.00    +0.166 C 
ATOM     16  N   UNL     1       4.315  -0.996  -1.544  0.00  0.00    -0.269 N 
ATOM     17  C   UNL     1       2.981  -0.808  -1.482  0.00  0.00    +0.249 C 
ATOM     18  O   UNL     1       2.150  -1.542  -1.980  0.00  0.00    -0.270 OA
ATOM     19  C   UNL     1       5.328  -2.033  -1.764  0.00  0.00    +0.174 C 
ATOM     20  C   UNL     1       6.534  -1.920  -0.800  0.00  0.00    +0.103 C 
ATOM     21  S   UNL     1       6.207  -0.287   0.030  0.00  0.00    -0.131 S 
ENDBRANCH   1  19
BRANCH   7  22
ATOM     22  C   UNL     1       7.449  -4.915  -5.191  0.00  0.00    +0.220 C 
ATOM     23  O   UNL     1       8.480  -4.543  -4.672  0.00  0.00    -0.275 OA
ATOM     24  N   UNL     1       7.456  -5.353  -6.466  0.00  0.00    -0.278 N 
ATOM     25  H   UNL     1       6.632  -5.651  -6.881  0.00  0.00    +0.152 HD
BRANCH  24  26
ATOM     26  C   UNL     1       8.709  -5.377  -7.225  0.00  0.00    +0.269 C 
ATOM     27  N   UNL     1       9.043  -4.026  -7.691  0.00  0.00    -0.348 N 
ATOM     28  C   UNL     1       9.077  -4.059  -8.992  0.00  0.00    +0.061 A 
ATOM     29  C   UNL     1       9.352  -3.036 -10.010  0.00  0.00    +0.027 A 
ATOM     30  C   UNL     1       9.315  -3.370 -11.316  0.00  0.00    +0.002 A 
ATOM     31  C   UNL     1       9.022  -4.673 -11.757  0.00  0.00    +0.002 A 
ATOM     32  C   UNL     1       8.755  -5.685 -10.907  0.00  0.00    +0.027 A 
ATOM     33  C   UNL     1       8.768  -5.438  -9.459  0.00  0.00    +0.061 A 
ATOM     34  N   UNL     1       8.554  -6.204  -8.428  0.00  0.00    -0.348 N 
ATOM     35  H   UNL     1       9.207  -3.250  -7.132  0.00  0.00    +0.163 HD
ATOM     36  H   UNL     1       8.332  -7.148  -8.451  0.00  0.00    +0.163 HD
ENDBRANCH  24  26
ENDBRANCH   7  22
TORSDOF 3
