REMARK  Name = ZINC03742128
REMARK  4 active torsions:
REMARK  status: ('A' for Active; 'I' for Inactive)
REMARK    1  A    between atoms: C_4  and  C_7
REMARK    2  A    between atoms: C_7  and  C_9
REMARK    3  A    between atoms: C_7  and  N_21
REMARK    4  A    between atoms: N_11  and  C_12
REMARK                            x       y       z     vdW  Elec       q    Type
REMARK                         _______ _______ _______ _____ _____    ______ ____
ROOT
ATOM      1  C   UNL     1       3.723  -0.664  -0.088  0.00  0.00    +0.050 C 
ENDROOT
BRANCH   1   2
ATOM      2  N   UNL     1       3.828  -1.804  -1.009  0.00  0.00    +0.390 N 
ATOM      3  C   UNL     1       5.157  -2.414  -0.882  0.00  0.00    -0.072 C 
ATOM      4  C   UNL     1       5.241  -3.653  -1.776  0.00  0.00    +0.046 C 
ATOM      5  C   UNL     1       4.996  -3.243  -3.230  0.00  0.00    +0.167 C 
ATOM      6  C   UNL     1       3.644  -2.535  -3.341  0.00  0.00    +0.046 C 
ATOM      7  C   UNL     1       3.621  -1.339  -2.386  0.00  0.00    -0.072 C 
ATOM      8  O   UNL     1       4.996  -4.411  -4.065  0.00  0.00    -0.346 OA
ATOM      9  C   UNL     1       5.612  -3.981  -5.303  0.00  0.00    +0.191 C 
ATOM     10  C   UNL     1       6.684  -2.986  -4.793  0.00  0.00    +0.191 C 
ATOM     11  O   UNL     1       6.039  -2.361  -3.664  0.00  0.00    -0.346 OA
ATOM     12  H   UNL     1       3.123  -2.488  -0.777  0.00  0.00    -0.080 HD
ENDBRANCH   1   2
BRANCH   1  16
ATOM     13  C   UNL     1      -0.013   1.316  -0.694  0.00  0.00    +0.000 A 
ATOM     14  C   UNL     1       1.133   2.056  -0.466  0.00  0.00    +0.000 A 
ATOM     15  C   UNL     1       2.342   1.415  -0.270  0.00  0.00    +0.002 A 
ATOM     16  C   UNL     1       2.405   0.034  -0.301  0.00  0.00    -0.052 A 
ATOM     17  C   UNL     1       1.260  -0.705  -0.528  0.00  0.00    +0.002 A 
ATOM     18  C   UNL     1       0.051  -0.064  -0.725  0.00  0.00    +0.000 A 
ENDBRANCH   1  16
BRANCH   1  19
ATOM     19  C   UNL     1       3.807  -1.158   1.333  0.00  0.00    +0.208 C 
ATOM     20  O   UNL     1       3.703  -2.343   1.571  0.00  0.00    -0.277 OA
ATOM     21  N   UNL     1       3.996  -0.283   2.341  0.00  0.00    -0.286 N 
ATOM     22  H   UNL     1       4.002   0.670   2.160  0.00  0.00    +0.155 HD
BRANCH  21  23
ATOM     23  C   UNL     1       4.184  -0.750   3.648  0.00  0.00    +0.037 A 
ATOM     24  C   UNL     1       5.042  -0.077   4.508  0.00  0.00    +0.027 A 
ATOM     25  C   UNL     1       5.228  -0.536   5.798  0.00  0.00    +0.051 A 
ATOM     26  C   UNL     1       4.559  -1.668   6.237  0.00  0.00    +0.166 A 
ATOM     27  C   UNL     1       3.698  -2.344   5.376  0.00  0.00    +0.168 A 
ATOM     28  C   UNL     1       3.508  -1.881   4.085  0.00  0.00    +0.072 A 
ATOM     29  O   UNL     1       3.170  -3.414   6.039  0.00  0.00    -0.453 OA
ATOM     30  C   UNL     1       4.026  -3.622   7.178  0.00  0.00    +0.466 C 
ATOM     31  O   UNL     1       4.570  -2.315   7.440  0.00  0.00    -0.453 OA
ENDBRANCH  21  23
ENDBRANCH   1  19
TORSDOF 4
