REMARK  Name = ZINC15019115
REMARK  8 active torsions:
REMARK  status: ('A' for Active; 'I' for Inactive)
REMARK    1  A    between atoms: C_1  and  C_2
REMARK    2  A    between atoms: C_2  and  C_4
REMARK    3  A    between atoms: C_2  and  N_26
REMARK    4  A    between atoms: C_7  and  S_10
REMARK    5  A    between atoms: N_8  and  C_9
REMARK    6  A    between atoms: S_10  and  C_11
REMARK    7  A    between atoms: C_11  and  C_12
REMARK    8  A    between atoms: C_17  and  C_20
REMARK                            x       y       z     vdW  Elec       q    Type
REMARK                         _______ _______ _______ _____ _____    ______ ____
ROOT
ATOM      1  C   UNL     1       0.958   0.414  -4.651  0.00  0.00    +0.155 A 
ATOM      2  N   UNL     1       1.684  -0.082  -3.689  0.00  0.00    -0.132 NA
ATOM      3  N   UNL     1       1.198   0.258  -2.549  0.00  0.00    -0.122 NA
ATOM      4  C   UNL     1       0.122   0.990  -2.724  0.00  0.00    +0.192 A 
ATOM      5  N   UNL     1      -0.063   1.115  -4.071  0.00  0.00    -0.308 N 
ATOM      6  C   UNL     1      -1.132   1.848  -4.752  0.00  0.00    +0.152 C 
ENDROOT
BRANCH   1   8
ATOM      7  C   UNL     1       0.795  -1.165  -6.556  0.00  0.00    +0.037 C 
ATOM      8  C   UNL     1       1.199   0.247  -6.129  0.00  0.00    +0.146 C 
BRANCH   8   9
ATOM      9  N   UNL     1       2.620   0.457  -6.419  0.00  0.00    -0.255 N 
ATOM     10  C   UNL     1       3.025   1.474  -7.295  0.00  0.00    +0.079 A 
ATOM     11  C   UNL     1       2.155   2.495  -7.643  0.00  0.00    +0.027 A 
ATOM     12  C   UNL     1       2.575   3.492  -8.505  0.00  0.00    +0.002 A 
ATOM     13  C   UNL     1       3.860   3.475  -9.014  0.00  0.00    +0.004 A 
ATOM     14  C   UNL     1       4.735   2.462  -8.665  0.00  0.00    +0.047 A 
ATOM     15  C   UNL     1       4.322   1.461  -7.803  0.00  0.00    +0.143 A 
ATOM     16  O   UNL     1       5.168   0.458  -7.449  0.00  0.00    -0.481 OA
ATOM     17  C   UNL     1       5.018  -0.075  -6.131  0.00  0.00    +0.325 C 
ATOM     18  C   UNL     1       3.559  -0.330  -5.851  0.00  0.00    +0.258 C 
ATOM     19  O   UNL     1       3.230  -1.239  -5.117  0.00  0.00    -0.271 OA
ENDBRANCH   8   9
ENDBRANCH   1   8
BRANCH   4  20
ATOM     20  S   UNL     1      -0.888   1.685  -1.458  0.00  0.00    -0.077 S 
BRANCH  20  21
ATOM     21  C   UNL     1      -0.013   1.086   0.008  0.00  0.00    +0.173 C 
BRANCH  21  22
ATOM     22  C   UNL     1      -0.718   1.572   1.248  0.00  0.00    +0.229 C 
ATOM     23  O   UNL     1      -1.714   2.256   1.150  0.00  0.00    -0.275 OA
ATOM     24  N   UNL     1      -0.242   1.246   2.466  0.00  0.00    -0.264 N 
ATOM     25  C   UNL     1      -0.892   1.694   3.609  0.00  0.00    +0.165 A 
ATOM     26  N   UNL     1      -0.589   1.488   4.877  0.00  0.00    -0.225 NA
ATOM     27  C   UNL     1      -1.328   1.997   5.852  0.00  0.00    +0.080 A 
ATOM     28  C   UNL     1      -2.424   2.751   5.539  0.00  0.00    +0.076 A 
ATOM     29  S   UNL     1      -2.356   2.709   3.753  0.00  0.00    -0.060 S 
ATOM     30  H   UNL     1       0.555   0.699   2.544  0.00  0.00    +0.157 HD
BRANCH  27  31
ATOM     31  C   UNL     1      -0.968   1.751   7.270  0.00  0.00    +0.001 A 
ATOM     32  C   UNL     1      -1.745   2.293   8.293  0.00  0.00    +0.010 A 
ATOM     33  C   UNL     1      -1.408   2.056   9.610  0.00  0.00    +0.001 A 
ATOM     34  C   UNL     1      -0.297   1.292   9.916  0.00  0.00    +0.000 A 
ATOM     35  C   UNL     1       0.481   0.756   8.905  0.00  0.00    +0.001 A 
ATOM     36  C   UNL     1       0.151   0.982   7.584  0.00  0.00    +0.010 A 
ENDBRANCH  27  31
ENDBRANCH  21  22
ENDBRANCH  20  21
ENDBRANCH   4  20
TORSDOF 6
