REMARK  Name = ZINC36854672
REMARK  7 active torsions:
REMARK  status: ('A' for Active; 'I' for Inactive)
REMARK    1  A    between atoms: C_1  and  C_2
REMARK    2  A    between atoms: C_2  and  C_3
REMARK    3  A    between atoms: C_3  and  C_4
REMARK    4  A    between atoms: C_3  and  N_6
REMARK    5  A    between atoms: C_4  and  C_5
REMARK    6  A    between atoms: C_10  and  S_14
REMARK    7  A    between atoms: S_14  and  C_15
REMARK                            x       y       z     vdW  Elec       q    Type
REMARK                         _______ _______ _______ _____ _____    ______ ____
ROOT
ATOM      1  N   UNL     1       2.148  -0.104   1.172  0.00  0.00    -0.238 N 
ATOM      2  C   UNL     1       2.960  -0.472   0.173  0.00  0.00    +0.224 C 
ATOM      3  O   UNL     1       2.644  -1.167  -0.769  0.00  0.00    -0.275 OA
ATOM      4  C   UNL     1       4.334   0.116   0.407  0.00  0.00    +0.120 C 
ATOM      5  C   UNL     1       4.174   0.896   1.727  0.00  0.00    +0.149 C 
ATOM      6  C   UNL     1       2.724   0.672   2.098  0.00  0.00    +0.236 C 
ATOM      7  O   UNL     1       2.173   1.121   3.080  0.00  0.00    -0.274 OA
ENDROOT
BRANCH   1   8
ATOM      8  C   UNL     1       0.742  -0.511   1.242  0.00  0.00    +0.084 C 
BRANCH   8  10
ATOM      9  C   UNL     1      -0.019   1.526   0.010  0.00  0.00    +0.006 C 
ATOM     10  C   UNL     1       0.002  -0.004   0.002  0.00  0.00    +0.019 C 
ENDBRANCH   8  10
BRANCH   8  11
ATOM     11  C   UNL     1       0.655  -2.037   1.299  0.00  0.00    +0.019 C 
ATOM     12  C   UNL     1       1.286  -2.536   2.600  0.00  0.00    +0.006 C 
ENDBRANCH   8  11
ENDBRANCH   1   8
BRANCH   5  13
ATOM     13  S   UNL     1       4.499   2.662   1.468  0.00  0.00    -0.071 S 
BRANCH  13  14
ATOM     14  C   UNL     1       4.415   3.353   3.087  0.00  0.00    +0.211 A 
ATOM     15  N   UNL     1       4.587   4.645   3.391  0.00  0.00    -0.188 NA
ATOM     16  C   UNL     1       4.458   4.814   4.690  0.00  0.00    +0.209 A 
ATOM     17  N   UNL     1       4.197   3.612   5.243  0.00  0.00    -0.246 N 
ATOM     18  H   UNL     1       4.052   3.425   6.184  0.00  0.00    +0.192 HD
ATOM     19  N   UNL     1       4.169   2.686   4.189  0.00  0.00    -0.144 NA
ATOM     20  N   UNL     1       4.570   6.014   5.368  0.00  0.00    -0.328 N 
ATOM     21  H   UNL     1       4.761   6.831   4.880  0.00  0.00    +0.145 HD
ATOM     22  H   UNL     1       4.458   6.040   6.331  0.00  0.00    +0.145 HD
ENDBRANCH  13  14
ENDBRANCH   5  13
TORSDOF 5
