REMARK  Name = ZINC42341140
REMARK  5 active torsions:
REMARK  status: ('A' for Active; 'I' for Inactive)
REMARK    1  A    between atoms: C_1  and  C_2
REMARK    2  A    between atoms: C_2  and  C_4
REMARK    3  A    between atoms: C_2  and  O_20
REMARK    4  A    between atoms: C_9  and  N_10
REMARK    5  A    between atoms: C_11  and  C_13
REMARK                            x       y       z     vdW  Elec       q    Type
REMARK                         _______ _______ _______ _____ _____    ______ ____
ROOT
ATOM      1  N   UNL     1      -1.506  -0.315  -2.391  0.00  0.00    -0.281 N 
ATOM      2  C   UNL     1      -1.776  -1.022  -3.506  0.00  0.00    +0.249 C 
ATOM      3  O   UNL     1      -2.614  -1.902  -3.479  0.00  0.00    -0.270 OA
ATOM      4  H   UNL     1      -0.885   0.430  -2.427  0.00  0.00    +0.155 HD
ENDROOT
BRANCH   2   5
ATOM      5  C   UNL     1      -1.054  -0.727  -4.761  0.00  0.00    +0.050 A 
ATOM      6  C   UNL     1      -0.087   0.280  -4.794  0.00  0.00    +0.014 A 
ATOM      7  C   UNL     1       0.583   0.550  -5.969  0.00  0.00    +0.001 A 
ATOM      8  C   UNL     1       0.299  -0.173  -7.114  0.00  0.00    +0.001 A 
ATOM      9  C   UNL     1      -0.658  -1.171  -7.089  0.00  0.00    +0.015 A 
ATOM     10  C   UNL     1      -1.332  -1.457  -5.918  0.00  0.00    +0.025 A 
ATOM     11  I   UNL     1      -2.775  -2.976  -5.881  0.00  0.00    -0.043 I 
ENDBRANCH   2   5
BRANCH   1  17
ATOM     12  C   UNL     1      -1.426  -0.516   0.014  0.00  0.00    +0.002 A 
ATOM     13  C   UNL     1      -2.037  -0.848   1.208  0.00  0.00    +0.008 A 
ATOM     14  C   UNL     1      -3.336  -1.323   1.213  0.00  0.00    +0.000 A 
ATOM     15  C   UNL     1      -4.027  -1.468   0.024  0.00  0.00    +0.002 A 
ATOM     16  C   UNL     1      -3.422  -1.138  -1.173  0.00  0.00    +0.023 A 
ATOM     17  C   UNL     1      -2.119  -0.655  -1.181  0.00  0.00    +0.039 A 
BRANCH  12  19
ATOM     18  C   UNL     1      -0.028   1.531   0.012  0.00  0.00    +0.043 C 
ATOM     19  C   UNL     1      -0.011   0.001   0.009  0.00  0.00    +0.143 C 
BRANCH  19  20
ATOM     20  O   UNL     1       0.672  -0.469   1.173  0.00  0.00    -0.387 OA
ATOM     21  H   UNL     1       1.591  -0.174   1.236  0.00  0.00    +0.210 HD
ENDBRANCH  19  20
ENDBRANCH  12  19
ENDBRANCH   1  17
TORSDOF 4
