REMARK  Name = ZINC63350643
REMARK  5 active torsions:
REMARK  status: ('A' for Active; 'I' for Inactive)
REMARK    1  A    between atoms: C_1  and  O_2
REMARK    2  A    between atoms: O_2  and  C_3
REMARK    3  A    between atoms: C_3  and  C_5
REMARK    4  A    between atoms: C_8  and  C_11
REMARK    5  A    between atoms: N_29  and  C_32
REMARK                            x       y       z     vdW  Elec       q    Type
REMARK                         _______ _______ _______ _____ _____    ______ ____
ROOT
ATOM      1  C   UNL     1       0.814  -6.343  -1.363  0.00  0.00    +0.135 C 
ATOM      2  C   UNL     1      -0.325  -6.887  -2.237  0.00  0.00    +0.131 C 
ATOM      3  C   UNL     1       0.015  -8.335  -2.563  0.00  0.00    -0.034 C 
ATOM      4  C   UNL     1      -1.013  -9.064  -2.138  0.00  0.00    -0.001 A 
ATOM      5  C   UNL     1      -1.291 -10.506  -2.228  0.00  0.00    +0.010 A 
ATOM      6  C   UNL     1      -2.456 -10.927  -1.668  0.00  0.00    +0.001 A 
ATOM      7  C   UNL     1      -3.361 -10.068  -1.037  0.00  0.00    +0.002 A 
ATOM      8  C   UNL     1      -3.188  -8.728  -0.912  0.00  0.00    +0.026 A 
ATOM      9  C   UNL     1      -2.000  -8.166  -1.465  0.00  0.00    +0.043 A 
ATOM     10  N   UNL     1      -1.594  -6.910  -1.507  0.00  0.00    -0.375 N 
ATOM     11  C   UNL     1       1.325  -8.759  -3.183  0.00  0.00    +0.065 C 
ATOM     12  C   UNL     1       2.439  -8.160  -2.306  0.00  0.00    +0.169 C 
ATOM     13  N   UNL     1       2.074  -6.763  -1.991  0.00  0.00    -0.264 N 
ATOM     14  C   UNL     1       3.088  -5.995  -2.408  0.00  0.00    +0.317 C 
ATOM     15  O   UNL     1       3.165  -4.800  -2.197  0.00  0.00    -0.252 OA
ATOM     16  N   UNL     1       4.009  -6.696  -3.084  0.00  0.00    -0.192 N 
ATOM     17  C   UNL     1       3.715  -8.034  -3.109  0.00  0.00    +0.248 C 
ATOM     18  O   UNL     1       4.331  -8.928  -3.650  0.00  0.00    -0.273 OA
ATOM     19  H   UNL     1      -2.043  -6.140  -1.124  0.00  0.00    +0.160 HD
ENDROOT
BRANCH  16  20
ATOM     20  C   UNL     1       5.142  -6.131  -3.689  0.00  0.00    +0.049 A 
ATOM     21  C   UNL     1       5.432  -4.786  -3.502  0.00  0.00    +0.028 A 
ATOM     22  C   UNL     1       6.546  -4.229  -4.098  0.00  0.00    +0.051 A 
ATOM     23  C   UNL     1       7.380  -5.011  -4.885  0.00  0.00    +0.162 A 
ATOM     24  C   UNL     1       7.093  -6.358  -5.072  0.00  0.00    +0.164 A 
ATOM     25  C   UNL     1       5.976  -6.917  -4.470  0.00  0.00    +0.073 A 
ATOM     26  O   UNL     1       7.903  -7.143  -5.834  0.00  0.00    -0.485 OA
ATOM     27  C   UNL     1       8.806  -6.470  -6.718  0.00  0.00    +0.270 C 
ATOM     28  C   UNL     1       9.487  -5.337  -5.938  0.00  0.00    +0.270 C 
ATOM     29  O   UNL     1       8.472  -4.444  -5.468  0.00  0.00    -0.485 OA
ENDBRANCH  16  20
BRANCH   1  33
ATOM     30  C   UNL     1       0.619  -2.075  -1.195  0.00  0.00    +0.059 A 
ATOM     31  C   UNL     1       0.572  -2.825  -0.019  0.00  0.00    +0.015 A 
ATOM     32  C   UNL     1       0.636  -4.202  -0.080  0.00  0.00    +0.006 A 
ATOM     33  C   UNL     1       0.746  -4.839  -1.304  0.00  0.00    -0.025 A 
ATOM     34  C   UNL     1       0.793  -4.101  -2.473  0.00  0.00    +0.006 A 
ATOM     35  C   UNL     1       0.724  -2.724  -2.426  0.00  0.00    +0.015 A 
BRANCH  30  36
ATOM     36  C   UNL     1       0.551  -0.600  -1.137  0.00  0.00    +0.339 C 
ATOM     37  O   UNL     1       0.587   0.050  -2.162  0.00  0.00    -0.245 OA
BRANCH  36  39
ATOM     38  C   UNL     1       0.390   1.451   0.035  0.00  0.00    +0.280 C 
ATOM     39  O   UNL     1       0.450   0.023   0.053  0.00  0.00    -0.464 OA
ENDBRANCH  36  39
ENDBRANCH  30  36
ENDBRANCH   1  33
TORSDOF 4
