REMARK  Name = ZINC06149578
REMARK  9 active torsions:
REMARK  status: ('A' for Active; 'I' for Inactive)
REMARK    1  A    between atoms: C_1  and  C_2
REMARK    2  A    between atoms: C_2  and  C_3
REMARK    3  A    between atoms: C_3  and  C_4
REMARK    4  A    between atoms: C_3  and  C_5
REMARK    5  A    between atoms: C_3  and  N_6
REMARK    6  A    between atoms: C_7  and  C_11
REMARK    7  A    between atoms: C_11  and  C_13
REMARK    8  A    between atoms: C_11  and  N_63
REMARK    9  A    between atoms: C_18  and  C_25
REMARK                            x       y       z     vdW  Elec       q    Type
REMARK                         _______ _______ _______ _____ _____    ______ ____
ROOT
ATOM      1  C   UNL     1      -1.000   2.021   0.193  0.00  0.00    +0.039 C 
ENDROOT
BRANCH   1   2
ATOM      2  C   UNL     1       0.289   1.242   0.244  0.00  0.00    +0.011 A 
ATOM      3  C   UNL     1       0.492   0.213  -0.615  0.00  0.00    +0.017 A 
ATOM      4  C   UNL     1       1.753  -0.527  -0.534  0.00  0.00    -0.001 A 
ATOM      5  C   UNL     1       2.019  -1.599  -1.393  0.00  0.00    +0.010 A 
ATOM      6  C   UNL     1       3.205  -2.269  -1.292  0.00  0.00    +0.004 A 
ATOM      7  C   UNL     1       4.148  -1.897  -0.344  0.00  0.00    -0.048 A 
ATOM      8  C   UNL     1       3.908  -0.844   0.512  0.00  0.00    +0.029 A 
ATOM      9  C   UNL     1       2.707  -0.146   0.428  0.00  0.00    +0.049 A 
ATOM     10  N   UNL     1       2.440   0.910   1.272  0.00  0.00    -0.322 N 
ATOM     11  H   UNL     1       3.119   1.179   1.955  0.00  0.00    +0.169 HD
ATOM     12  C   UNL     1       1.279   1.584   1.191  0.00  0.00    +0.251 A 
ATOM     13  O   UNL     1       1.077   2.513   1.954  0.00  0.00    -0.268 OA
ATOM     14  C   UNL     1       5.449  -2.652  -0.250  0.00  0.00    +0.044 C 
ENDBRANCH   1   2
BRANCH   1  24
ATOM     15  C   UNL     1      -1.561   1.871   2.545  0.00  0.00    -0.072 C 
ATOM     16  C   UNL     1      -2.744   1.601   3.475  0.00  0.00    +0.017 C 
ATOM     17  C   UNL     1      -3.244   0.193   3.276  0.00  0.00    -0.048 A 
ATOM     18  C   UNL     1      -4.062  -0.362   4.249  0.00  0.00    +0.004 A 
ATOM     19  C   UNL     1      -4.549  -1.645   4.101  0.00  0.00    +0.000 A 
ATOM     20  C   UNL     1      -4.219  -2.381   2.978  0.00  0.00    +0.000 A 
ATOM     21  C   UNL     1      -3.404  -1.830   2.011  0.00  0.00    +0.002 A 
ATOM     22  C   UNL     1      -2.912  -0.541   2.158  0.00  0.00    -0.061 A 
ATOM     23  C   UNL     1      -2.022   0.015   1.078  0.00  0.00    -0.041 C 
ATOM     24  N   UNL     1      -1.964   1.483   1.178  0.00  0.00    +0.392 N 
ATOM     25  H   UNL     1      -2.895   1.869   0.981  0.00  0.00    -0.080 HD
ENDBRANCH   1  24
BRANCH   1  27
ATOM     26  N   UNL     1      -1.573   2.849  -2.151  0.00  0.00    -0.225 N 
ATOM     27  C   UNL     1      -1.598   1.911  -1.186  0.00  0.00    +0.143 A 
ATOM     28  N   UNL     1      -2.249   0.884  -1.677  0.00  0.00    -0.115 NA
ATOM     29  N   UNL     1      -2.600   1.175  -2.882  0.00  0.00    -0.023 NA
ATOM     30  N   UNL     1      -2.190   2.360  -3.173  0.00  0.00    -0.043 NA
BRANCH  26  31
ATOM     31  C   UNL     1      -0.956   4.175  -2.059  0.00  0.00    +0.061 C 
ATOM     32  C   UNL     1      -1.690   5.006  -1.004  0.00  0.00    +0.036 C 
ATOM     33  C   UNL     1       0.513   4.028  -1.660  0.00  0.00    +0.036 C 
BRANCH  31  35
ATOM     34  C   UNL     1      -0.405   6.260  -3.320  0.00  0.00    +0.006 C 
ATOM     35  C   UNL     1      -1.049   4.876  -3.416  0.00  0.00    +0.026 C 
ENDBRANCH  31  35
ENDBRANCH  26  31
ENDBRANCH   1  27
TORSDOF 5
