REMARK  Name = ZINC12276944
REMARK  10 active torsions:
REMARK  status: ('A' for Active; 'I' for Inactive)
REMARK    1  A    between atoms: C_1  and  C_2
REMARK    2  A    between atoms: C_2  and  C_3
REMARK    3  A    between atoms: C_3  and  C_5
REMARK    4  A    between atoms: C_3  and  C_6
REMARK    5  A    between atoms: C_9  and  O_12
REMARK    6  A    between atoms: O_12  and  C_13
REMARK    7  A    between atoms: C_15  and  N_36
REMARK    8  A    between atoms: C_17  and  O_35
REMARK    9  A    between atoms: C_26  and  C_29
REMARK   10  A    between atoms: C_37  and  C_39
REMARK                            x       y       z     vdW  Elec       q    Type
REMARK                         _______ _______ _______ _____ _____    ______ ____
ROOT
ATOM      1  C   UNL     1      -6.189  -1.578  -0.510  0.00  0.00    +0.331 C 
ATOM      2  C   UNL     1      -7.523  -2.292  -0.272  0.00  0.00    +0.173 C 
ATOM      3  C   UNL     1      -8.086  -1.855   1.083  0.00  0.00    +0.172 C 
ATOM      4  C   UNL     1      -8.245  -0.332   1.092  0.00  0.00    +0.183 C 
ATOM      5  C   UNL     1      -6.893   0.319   0.780  0.00  0.00    +0.179 C 
ATOM      6  O   UNL     1      -6.397  -0.165  -0.467  0.00  0.00    -0.332 OA
ATOM      7  C   UNL     1      -5.907  -0.027   1.900  0.00  0.00    +0.197 C 
ATOM      8  O   UNL     1      -6.474   0.366   3.154  0.00  0.00    -0.345 OA
ATOM      9  C   UNL     1      -7.736  -0.246   3.431  0.00  0.00    +0.282 C 
ATOM     10  O   UNL     1      -8.665   0.084   2.396  0.00  0.00    -0.339 OA
ENDROOT
BRANCH   9  11
ATOM     11  C   UNL     1      -8.257   0.255   4.753  0.00  0.00    +0.008 A 
ATOM     12  C   UNL     1      -9.465   0.925   4.811  0.00  0.00    +0.008 A 
ATOM     13  C   UNL     1      -9.945   1.381   6.024  0.00  0.00    +0.000 A 
ATOM     14  C   UNL     1      -9.213   1.176   7.178  0.00  0.00    +0.000 A 
ATOM     15  C   UNL     1      -8.002   0.512   7.120  0.00  0.00    +0.000 A 
ATOM     16  C   UNL     1      -7.524   0.051   5.907  0.00  0.00    +0.008 A 
ENDBRANCH   9  11
BRANCH   2  17
ATOM     17  N   UNL     1      -7.308  -3.741  -0.266  0.00  0.00    -0.304 N 
ATOM     18  C   UNL     1      -7.297  -4.426  -1.427  0.00  0.00    +0.210 C 
ATOM     19  O   UNL     1      -7.465  -3.843  -2.476  0.00  0.00    -0.276 OA
ATOM     20  C   UNL     1      -7.075  -5.917  -1.420  0.00  0.00    +0.109 C 
ATOM     21  H   UNL     1      -7.173  -4.208   0.574  0.00  0.00    +0.149 HD
ENDBRANCH   2  17
BRANCH   3  22
ATOM     22  O   UNL     1      -9.360  -2.469   1.288  0.00  0.00    -0.387 OA
ATOM     23  H   UNL     1      -9.334  -3.436   1.294  0.00  0.00    +0.210 HD
ENDBRANCH   3  22
BRANCH   1  24
ATOM     24  O   UNL     1      -5.258  -1.955   0.505  0.00  0.00    -0.462 OA
BRANCH  24  28
ATOM     25  C   UNL     1      -1.405  -0.526   0.137  0.00  0.00    -0.044 A 
ATOM     26  C   UNL     1      -2.358  -0.195  -0.809  0.00  0.00    +0.007 A 
ATOM     27  C   UNL     1      -3.647  -0.677  -0.691  0.00  0.00    +0.046 A 
ATOM     28  C   UNL     1      -3.989  -1.484   0.384  0.00  0.00    +0.124 A 
ATOM     29  C   UNL     1      -3.032  -1.811   1.334  0.00  0.00    +0.046 A 
ATOM     30  C   UNL     1      -1.743  -1.332   1.208  0.00  0.00    +0.007 A 
BRANCH  25  31
ATOM     31  C   UNL     1       0.002  -0.004   0.002  0.00  0.00    +0.016 C 
ATOM     32  C   UNL     1       0.606  -0.499  -1.314  0.00  0.00    +0.012 C 
BRANCH  31  34
ATOM     33  C   UNL     1       1.417   2.055  -0.000  0.00  0.00    +0.004 C 
ATOM     34  C   UNL     1      -0.019   1.526   0.010  0.00  0.00    +0.004 C 
ENDBRANCH  31  34
ENDBRANCH  25  31
ENDBRANCH  24  28
ENDBRANCH   1  24
TORSDOF 7
