REMARK  Name = ZINC08837866
REMARK  12 active torsions:
REMARK  status: ('A' for Active; 'I' for Inactive)
REMARK    1  A    between atoms: C_1  and  C_2
REMARK    2  A    between atoms: C_2  and  N_62
REMARK    3  A    between atoms: C_3  and  C_4
REMARK    4  A    between atoms: C_3  and  N_62
REMARK    5  A    between atoms: C_5  and  C_6
REMARK    6  A    between atoms: C_5  and  N_62
REMARK    7  A    between atoms: C_6  and  N_7
REMARK    8  A    between atoms: C_8  and  C_27
REMARK    9  A    between atoms: C_11  and  C_12
REMARK   10  A    between atoms: C_11  and  O_22
REMARK   11  A    between atoms: C_13  and  C_21
REMARK   12  A    between atoms: C_31  and  N_33
REMARK                            x       y       z     vdW  Elec       q    Type
REMARK                         _______ _______ _______ _____ _____    ______ ____
ROOT
ATOM      1  N   UNL     1       0.955   2.066   0.001  0.00  0.00    -0.285 N 
ATOM      2  C   UNL     1       1.630   0.770   0.105  0.00  0.00    +0.144 C 
ATOM      3  C   UNL     1       0.549  -0.285   0.050  0.00  0.00    +0.073 C 
ATOM      4  C   UNL     1       0.724  -1.664   0.114  0.00  0.00    +0.151 C 
ATOM      5  C   UNL     1      -0.658   0.401  -0.078  0.00  0.00    +0.249 C 
ATOM      6  O   UNL     1      -1.764  -0.109  -0.154  0.00  0.00    -0.282 OA
ATOM      7  C   UNL     1      -0.369   1.857  -0.105  0.00  0.00    +0.288 C 
ATOM      8  O   UNL     1      -1.205   2.731  -0.212  0.00  0.00    -0.266 OA
ENDROOT
BRANCH   4   9
ATOM      9  C   UNL     1      -0.394  -2.520   0.049  0.00  0.00    +0.111 A 
ATOM     10  C   UNL     1      -1.376  -2.687   1.022  0.00  0.00    +0.068 A 
ATOM     11  N   UNL     1      -2.248  -3.575   0.579  0.00  0.00    -0.232 NA
ATOM     12  C   UNL     1      -1.888  -3.998  -0.633  0.00  0.00    +0.138 A 
ATOM     13  N   UNL     1      -0.739  -3.357  -0.999  0.00  0.00    -0.297 N 
ATOM     14  C   UNL     1      -0.152  -3.614  -2.197  0.00  0.00    +0.093 A 
ATOM     15  C   UNL     1      -0.702  -4.502  -3.058  0.00  0.00    +0.018 A 
ATOM     16  C   UNL     1      -1.883  -5.173  -2.716  0.00  0.00    +0.005 A 
ATOM     17  C   UNL     1      -2.475  -4.925  -1.512  0.00  0.00    +0.047 A 
ATOM     18  C   UNL     1      -1.433  -1.977   2.350  0.00  0.00    +0.068 C 
ENDBRANCH   4   9
BRANCH   2  19
ATOM     19  C   UNL     1       2.375   0.678   1.412  0.00  0.00    -0.020 A 
ATOM     20  C   UNL     1       1.823   1.211   2.562  0.00  0.00    +0.006 A 
ATOM     21  C   UNL     1       2.504   1.124   3.761  0.00  0.00    +0.003 A 
ATOM     22  C   UNL     1       3.742   0.510   3.810  0.00  0.00    +0.033 A 
ATOM     23  C   UNL     1       4.296  -0.019   2.660  0.00  0.00    +0.127 A 
ATOM     24  C   UNL     1       3.613   0.065   1.461  0.00  0.00    +0.038 A 
BRANCH  23  25
ATOM     25  N   UNL     1       5.622  -0.676   2.712  0.00  0.00    +0.056 N 
ATOM     26  O   UNL     1       6.111  -1.142   1.698  0.00  0.00    -0.126 OA
ATOM     27  O   UNL     1       6.224  -0.750   3.768  0.00  0.00    -0.126 OA
ENDBRANCH  23  25
ENDBRANCH   2  19
BRANCH   4  28
ATOM     28  O   UNL     1       1.966  -2.184   0.239  0.00  0.00    -0.504 OA
ATOM     29  H   UNL     1       1.909  -3.182   0.269  0.00  0.00    +0.292 HD
ENDBRANCH   4  28
BRANCH   1  30
ATOM     30  C   UNL     1       1.613   3.375   0.011  0.00  0.00    +0.090 C 
BRANCH  30  31
ATOM     31  C   UNL     1       1.720   3.881   1.451  0.00  0.00    -0.060 C 
BRANCH  31  32
ATOM     32  N   UNL     1       2.269   5.253   1.431  0.00  0.00    +0.380 N 
ATOM     33  H   UNL     1       3.025   5.300   0.736  0.00  0.00    -0.082 HD
BRANCH  32  35
ATOM     34  C   UNL     1       1.852   7.586   0.824  0.00  0.00    -0.017 C 
ATOM     35  C   UNL     1       1.212   6.216   1.055  0.00  0.00    -0.082 C 
ENDBRANCH  32  35
BRANCH  32  36
ATOM     36  C   UNL     1       2.817   5.598   2.760  0.00  0.00    -0.082 C 
ATOM     37  C   UNL     1       4.189   4.936   2.910  0.00  0.00    -0.017 C 
ENDBRANCH  32  36
ENDBRANCH  31  32
ENDBRANCH  30  31
ENDBRANCH   1  30
TORSDOF 9
