REMARK  Name = ZINC32123922
REMARK  9 active torsions:
REMARK  status: ('A' for Active; 'I' for Inactive)
REMARK    1  A    between atoms: C_1  and  O_2
REMARK    2  A    between atoms: O_2  and  C_3
REMARK    3  A    between atoms: C_6  and  C_9
REMARK    4  A    between atoms: N_22  and  C_23
REMARK    5  A    between atoms: C_23  and  C_25
REMARK    6  A    between atoms: C_23  and  C_32
REMARK    7  A    between atoms: C_25  and  C_26
REMARK    8  A    between atoms: C_32  and  O_34
REMARK    9  A    between atoms: O_34  and  C_35
REMARK                            x       y       z     vdW  Elec       q    Type
REMARK                         _______ _______ _______ _____ _____    ______ ____
ROOT
ATOM      1  C   UNL     1      -5.014  -2.644   0.018  0.00  0.00    +0.156 C 
ATOM      2  C   UNL     1      -5.426  -3.028  -1.383  0.00  0.00    +0.062 A 
ATOM      3  C   UNL     1      -5.421  -4.297  -1.844  0.00  0.00    +0.040 A 
ATOM      4  N   UNL     1      -5.845  -4.251  -3.138  0.00  0.00    -0.349 N 
ATOM      5  H   UNL     1      -5.946  -5.006  -3.739  0.00  0.00    +0.166 HD
ATOM      6  C   UNL     1      -6.100  -2.954  -3.426  0.00  0.00    +0.171 A 
ATOM      7  N   UNL     1      -5.845  -2.230  -2.367  0.00  0.00    -0.348 N 
ATOM      8  C   UNL     1      -5.020  -5.505  -1.038  0.00  0.00    +0.074 C 
ATOM      9  C   UNL     1      -4.218  -5.039   0.184  0.00  0.00    +0.116 C 
ATOM     10  N   UNL     1      -4.900  -3.889   0.799  0.00  0.00    -0.273 N 
ATOM     11  C   UNL     1      -5.409  -3.971   2.045  0.00  0.00    +0.304 C 
ATOM     12  O   UNL     1      -5.226  -4.972   2.711  0.00  0.00    -0.253 OA
ATOM     13  N   UNL     1      -6.120  -2.945   2.552  0.00  0.00    -0.286 N 
ATOM     14  H   UNL     1      -6.315  -2.171   2.000  0.00  0.00    +0.151 HD
ATOM     15  H   UNL     1      -5.945  -1.267  -2.307  0.00  0.00    +0.167 HD
ENDROOT
BRANCH   1  19
ATOM     16  C   UNL     1      -1.244  -0.634  -0.073  0.00  0.00    +0.120 A 
ATOM     17  C   UNL     1      -2.345  -0.020   0.506  0.00  0.00    +0.046 A 
ATOM     18  C   UNL     1      -3.563  -0.671   0.534  0.00  0.00    +0.009 A 
ATOM     19  C   UNL     1      -3.685  -1.935  -0.014  0.00  0.00    -0.021 A 
ATOM     20  C   UNL     1      -2.589  -2.550  -0.591  0.00  0.00    +0.009 A 
ATOM     21  C   UNL     1      -1.370  -1.900  -0.626  0.00  0.00    +0.046 A 
BRANCH  16  23
ATOM     22  C   UNL     1       0.011   1.306   0.488  0.00  0.00    +0.277 C 
ATOM     23  O   UNL     1      -0.045   0.005  -0.102  0.00  0.00    -0.495 OA
ENDBRANCH  16  23
ENDBRANCH   1  19
BRANCH  13  24
ATOM     24  C   UNL     1      -6.597  -2.997   3.936  0.00  0.00    +0.187 C 
BRANCH  24  25
ATOM     25  C   UNL     1      -7.907  -3.740   3.987  0.00  0.00    +0.328 C 
ATOM     26  O   UNL     1      -8.392  -4.181   2.972  0.00  0.00    -0.249 OA
BRANCH  25  27
ATOM     27  O   UNL     1      -8.536  -3.913   5.161  0.00  0.00    -0.467 OA
ATOM     28  C   UNL     1      -9.773  -4.627   5.135  0.00  0.00    +0.280 C 
ENDBRANCH  25  27
ENDBRANCH  24  25
BRANCH  24  29
ATOM     29  C   UNL     1      -6.798  -1.574   4.460  0.00  0.00    +0.069 C 
BRANCH  29  30
ATOM     30  C   UNL     1      -5.467  -0.870   4.525  0.00  0.00    -0.045 A 
ATOM     31  C   UNL     1      -4.700  -0.944   5.673  0.00  0.00    +0.004 A 
ATOM     32  C   UNL     1      -3.480  -0.298   5.732  0.00  0.00    +0.000 A 
ATOM     33  C   UNL     1      -3.025   0.420   4.642  0.00  0.00    +0.000 A 
ATOM     34  C   UNL     1      -3.790   0.493   3.494  0.00  0.00    +0.000 A 
ATOM     35  C   UNL     1      -5.009  -0.156   3.433  0.00  0.00    +0.004 A 
ENDBRANCH  29  30
ENDBRANCH  24  29
ENDBRANCH  13  24
TORSDOF 7
