REMARK  Name = ZINC09813854
REMARK  10 active torsions:
REMARK  status: ('A' for Active; 'I' for Inactive)
REMARK    1  A    between atoms: C_1  and  C_2
REMARK    2  A    between atoms: C_2  and  C_3
REMARK    3  A    between atoms: C_2  and  C_4
REMARK    4  A    between atoms: C_4  and  N_5
REMARK    5  A    between atoms: N_13  and  O_14
REMARK    6  A    between atoms: O_14  and  C_15
REMARK    7  A    between atoms: C_15  and  C_16
REMARK    8  A    between atoms: N_18  and  C_19
REMARK    9  A    between atoms: C_23  and  N_25
REMARK   10  A    between atoms: C_26  and  C_28
REMARK                            x       y       z     vdW  Elec       q    Type
REMARK                         _______ _______ _______ _____ _____    ______ ____
ROOT
ATOM      1  O   UNL     1      -4.362  -0.537  -0.740  0.00  0.00    -0.384 OA
ENDROOT
BRANCH   1  10
ATOM      2  N   UNL     1      -2.242   3.069  -1.223  0.00  0.00    -0.265 N 
ATOM      3  C   UNL     1      -0.960   2.542  -1.339  0.00  0.00    +0.046 A 
ATOM      4  C   UNL     1       0.275   3.153  -1.528  0.00  0.00    +0.024 A 
ATOM      5  C   UNL     1       1.422   2.389  -1.611  0.00  0.00    +0.002 A 
ATOM      6  C   UNL     1       1.359   1.010  -1.506  0.00  0.00    +0.001 A 
ATOM      7  C   UNL     1       0.142   0.386  -1.317  0.00  0.00    +0.012 A 
ATOM      8  C   UNL     1      -1.018   1.146  -1.239  0.00  0.00    +0.030 A 
ATOM      9  C   UNL     1      -2.447   0.798  -1.052  0.00  0.00    +0.173 C 
ATOM     10  N   UNL     1      -2.964  -0.389  -0.910  0.00  0.00    -0.079 NA
ATOM     11  C   UNL     1      -3.161   2.101  -1.063  0.00  0.00    +0.273 C 
ATOM     12  O   UNL     1      -4.359   2.264  -0.938  0.00  0.00    -0.268 OA
BRANCH   2  13
ATOM     13  C   UNL     1      -2.554   4.499  -1.287  0.00  0.00    +0.117 C 
BRANCH  13  15
ATOM     14  C   UNL     1      -3.279   6.359  -2.790  0.00  0.00    +0.009 C 
ATOM     15  C   UNL     1      -2.832   4.896  -2.738  0.00  0.00    +0.001 C 
ATOM     16  C   UNL     1      -1.558   4.723  -3.568  0.00  0.00    +0.009 C 
ENDBRANCH  13  15
ENDBRANCH   2  13
ENDBRANCH   1  10
BRANCH   1  17
ATOM     17  C   UNL     1      -4.790  -1.893  -0.596  0.00  0.00    +0.358 C 
BRANCH  17  18
ATOM     18  C   UNL     1      -6.286  -1.932  -0.423  0.00  0.00    +0.258 C 
ATOM     19  O   UNL     1      -6.924  -0.900  -0.423  0.00  0.00    -0.272 OA
ATOM     20  N   UNL     1      -6.916  -3.113  -0.268  0.00  0.00    -0.283 N 
ATOM     21  H   UNL     1      -6.416  -3.942  -0.335  0.00  0.00    +0.155 HD
BRANCH  20  22
ATOM     22  C   UNL     1      -8.291  -3.145  -0.011  0.00  0.00    +0.035 A 
ATOM     23  C   UNL     1      -8.820  -4.121   0.824  0.00  0.00    +0.023 A 
ATOM     24  C   UNL     1     -10.177  -4.149   1.082  0.00  0.00    +0.004 A 
ATOM     25  C   UNL     1     -11.014  -3.215   0.502  0.00  0.00    +0.023 A 
ATOM     26  C   UNL     1     -10.491  -2.240  -0.338  0.00  0.00    +0.035 A 
ATOM     27  C   UNL     1      -9.128  -2.205  -0.595  0.00  0.00    +0.046 A 
BRANCH  26  28
ATOM     28  N   UNL     1     -11.339  -1.293  -0.925  0.00  0.00    -0.286 N 
ATOM     29  C   UNL     1     -12.596  -1.636  -1.268  0.00  0.00    +0.214 C 
ATOM     30  O   UNL     1     -12.964  -2.786  -1.155  0.00  0.00    -0.276 OA
ATOM     31  C   UNL     1     -13.545  -0.590  -1.793  0.00  0.00    +0.109 C 
ATOM     32  H   UNL     1     -11.021  -0.391  -1.084  0.00  0.00    +0.155 HD
ENDBRANCH  26  28
ENDBRANCH  20  22
ENDBRANCH  17  18
ENDBRANCH   1  17
TORSDOF 7
