REMARK  Name = ZINC19945682
REMARK  6 active torsions:
REMARK  status: ('A' for Active; 'I' for Inactive)
REMARK    1  A    between atoms: C_4  and  N_7
REMARK    2  A    between atoms: N_7  and  S_8
REMARK    3  A    between atoms: S_8  and  C_11
REMARK    4  A    between atoms: C_14  and  N_17
REMARK    5  A    between atoms: C_18  and  C_19
REMARK    6  A    between atoms: C_24  and  N_25
REMARK                            x       y       z     vdW  Elec       q    Type
REMARK                         _______ _______ _______ _____ _____    ______ ____
ROOT
ATOM      1  C   UNL     1       2.521  -3.088   0.303  0.00  0.00    +0.109 A 
ATOM      2  C   UNL     1       1.181  -3.053   0.648  0.00  0.00    +0.031 A 
ATOM      3  C   UNL     1       0.316  -4.013   0.166  0.00  0.00    +0.029 A 
ATOM      4  C   UNL     1       0.795  -5.023  -0.672  0.00  0.00    +0.064 A 
ATOM      5  C   UNL     1       2.149  -5.052  -1.016  0.00  0.00    +0.029 A 
ATOM      6  C   UNL     1       3.002  -4.083  -0.531  0.00  0.00    +0.031 A 
ENDROOT
BRANCH   1   7
ATOM      7  S   UNL     1       3.619  -1.858   0.923  0.00  0.00    +0.072 S 
ATOM      8  O   UNL     1       4.934  -2.376   0.779  0.00  0.00    -0.150 OA
ATOM      9  O   UNL     1       3.097  -1.444   2.179  0.00  0.00    -0.150 OA
BRANCH   7  10
ATOM     10  N   UNL     1       3.511  -0.551  -0.088  0.00  0.00    -0.216 N 
ATOM     11  H   UNL     1       3.203   0.303   0.254  0.00  0.00    +0.174 HD
BRANCH  10  15
ATOM     12  C   UNL     1       4.564  -0.929  -4.098  0.00  0.00    +0.000 A 
ATOM     13  C   UNL     1       3.392  -0.283  -3.751  0.00  0.00    +0.002 A 
ATOM     14  C   UNL     1       3.039  -0.156  -2.422  0.00  0.00    +0.024 A 
ATOM     15  C   UNL     1       3.864  -0.678  -1.433  0.00  0.00    +0.048 A 
ATOM     16  C   UNL     1       5.041  -1.326  -1.786  0.00  0.00    +0.024 A 
ATOM     17  C   UNL     1       5.388  -1.450  -3.117  0.00  0.00    +0.002 A 
ENDBRANCH  10  15
ENDBRANCH   7  10
ENDBRANCH   1   7
BRANCH   4  18
ATOM     18  N   UNL     1      -0.057  -5.979  -1.154  0.00  0.00    -0.255 NA
ATOM     19  C   UNL     1      -0.010  -6.321  -2.410  0.00  0.00    +0.121 C 
BRANCH  19  20
ATOM     20  C   UNL     1      -0.927  -7.350  -2.928  0.00  0.00    +0.023 A 
ATOM     21  C   UNL     1      -1.762  -8.052  -2.053  0.00  0.00    +0.011 A 
ATOM     22  C   UNL     1      -2.618  -9.014  -2.546  0.00  0.00    +0.001 A 
ATOM     23  C   UNL     1      -2.652  -9.285  -3.903  0.00  0.00    +0.002 A 
ATOM     24  C   UNL     1      -1.829  -8.595  -4.775  0.00  0.00    +0.033 A 
ATOM     25  C   UNL     1      -0.972  -7.625  -4.298  0.00  0.00    +0.135 A 
BRANCH  25  26
ATOM     26  N   UNL     1      -0.097  -6.883  -5.233  0.00  0.00    +0.057 N 
ATOM     27  O   UNL     1      -0.213  -7.044  -6.426  0.00  0.00    -0.126 OA
ATOM     28  O   UNL     1       0.733  -6.116  -4.804  0.00  0.00    -0.126 OA
ENDBRANCH  25  26
ENDBRANCH  19  20
ENDBRANCH   4  18
TORSDOF 6
