REMARK  Name = ZINC65190700
REMARK  6 active torsions:
REMARK  status: ('A' for Active; 'I' for Inactive)
REMARK    1  A    between atoms: C_1  and  C_2
REMARK    2  A    between atoms: C_2  and  N_3
REMARK    3  A    between atoms: N_6  and  N_7
REMARK    4  A    between atoms: C_8  and  C_10
REMARK    5  A    between atoms: C_10  and  C_11
REMARK    6  A    between atoms: C_21  and  C_23
REMARK                            x       y       z     vdW  Elec       q    Type
REMARK                         _______ _______ _______ _____ _____    ______ ____
ROOT
ATOM      1  C   UNL     1       3.274  -0.789   5.492  0.00  0.00    +0.124 C 
ENDROOT
BRANCH   1   2
ATOM      2  C   UNL     1       3.980  -1.648   6.543  0.00  0.00    +0.115 C 
ATOM      3  C   UNL     1       4.432  -0.772   7.685  0.00  0.00    -0.023 A 
ATOM      4  C   UNL     1       3.511   0.116   8.225  0.00  0.00    +0.006 A 
ATOM      5  C   UNL     1       3.863   0.936   9.277  0.00  0.00    +0.000 A 
ATOM      6  C   UNL     1       5.142   0.871   9.799  0.00  0.00    +0.000 A 
ATOM      7  C   UNL     1       6.058  -0.008   9.261  0.00  0.00    +0.004 A 
ATOM      8  C   UNL     1       5.709  -0.831   8.197  0.00  0.00    -0.041 A 
ATOM      9  C   UNL     1       6.770  -1.745   7.644  0.00  0.00    +0.054 C 
ATOM     10  C   UNL     1       6.142  -2.887   6.846  0.00  0.00    +0.113 C 
ATOM     11  N   UNL     1       5.141  -2.306   5.936  0.00  0.00    -0.294 N 
ATOM     12  C   UNL     1       5.286  -2.378   4.598  0.00  0.00    +0.213 C 
ATOM     13  O   UNL     1       4.488  -1.825   3.871  0.00  0.00    -0.276 OA
ATOM     14  C   UNL     1       6.439  -3.145   4.005  0.00  0.00    +0.109 C 
ENDBRANCH   1   2
BRANCH   1  16
ATOM     15  N   UNL     1       3.859   1.060   3.957  0.00  0.00    -0.233 N 
ATOM     16  C   UNL     1       4.229   0.255   4.972  0.00  0.00    +0.231 C 
ATOM     17  O   UNL     1       5.330   0.370   5.468  0.00  0.00    -0.274 OA
ATOM     18  H   UNL     1       2.979   0.968   3.561  0.00  0.00    +0.173 HD
BRANCH  15  22
ATOM     19  N   UNL     1       3.154   2.708   1.907  0.00  0.00    -0.298 N 
ATOM     20  C   UNL     1       4.378   2.835   2.458  0.00  0.00    +0.316 C 
ATOM     21  O   UNL     1       5.148   3.677   2.038  0.00  0.00    -0.251 OA
ATOM     22  N   UNL     1       4.747   2.030   3.473  0.00  0.00    -0.218 N 
ATOM     23  H   UNL     1       2.539   2.036   2.242  0.00  0.00    +0.150 HD
ATOM     24  H   UNL     1       5.628   2.122   3.870  0.00  0.00    +0.174 HD
BRANCH  19  26
ATOM     25  C   UNL     1       1.329   3.232   0.366  0.00  0.00    +0.024 C 
ATOM     26  C   UNL     1       2.753   3.583   0.803  0.00  0.00    +0.102 C 
ENDBRANCH  19  26
ENDBRANCH  15  22
ENDBRANCH   1  16
TORSDOF 4
