REMARK  Name = ZINC08624155
REMARK  9 active torsions:
REMARK  status: ('A' for Active; 'I' for Inactive)
REMARK    1  A    between atoms: C_1  and  C_2
REMARK    2  A    between atoms: C_2  and  O_3
REMARK    3  A    between atoms: O_3  and  C_4
REMARK    4  A    between atoms: C_7  and  N_13
REMARK    5  A    between atoms: C_9  and  O_10
REMARK    6  A    between atoms: O_10  and  C_11
REMARK    7  A    between atoms: C_11  and  C_12
REMARK    8  A    between atoms: C_14  and  C_16
REMARK    9  A    between atoms: C_16  and  N_17
REMARK                            x       y       z     vdW  Elec       q    Type
REMARK                         _______ _______ _______ _____ _____    ______ ____
ROOT
ATOM      1  C   UNL     1       1.653   3.269   0.020  0.00  0.00    +0.214 C 
ENDROOT
BRANCH   1   2
ATOM      2  N   UNL     1       1.573   1.806   0.024  0.00  0.00    -0.215 N 
ATOM      3  C   UNL     1       2.644   0.989  -0.044  0.00  0.00    +0.251 C 
ATOM      4  O   UNL     1       3.810   1.312  -0.119  0.00  0.00    -0.272 OA
ATOM      5  C   UNL     1       2.084  -0.416  -0.009  0.00  0.00    +0.138 C 
ATOM      6  C   UNL     1       2.438  -1.157  -1.292  0.00  0.00    +0.040 C 
ATOM      7  C   UNL     1       2.023  -2.625  -1.137  0.00  0.00    +0.008 C 
ATOM      8  C   UNL     1       2.939  -3.279  -0.104  0.00  0.00    +0.035 C 
ATOM      9  C   UNL     1       2.977  -2.466   1.164  0.00  0.00    -0.042 A 
ATOM     10  C   UNL     1       2.588  -1.144   1.205  0.00  0.00    -0.012 A 
ATOM     11  C   UNL     1       2.657  -0.445   2.402  0.00  0.00    +0.006 A 
ATOM     12  C   UNL     1       3.107  -1.064   3.551  0.00  0.00    +0.000 A 
ATOM     13  C   UNL     1       3.494  -2.390   3.510  0.00  0.00    +0.000 A 
ATOM     14  C   UNL     1       3.428  -3.087   2.320  0.00  0.00    +0.004 A 
ATOM     15  N   UNL     1       0.632  -0.216   0.083  0.00  0.00    -0.281 N 
ATOM     16  C   UNL     1       0.429   1.115   0.097  0.00  0.00    +0.310 C 
ATOM     17  O   UNL     1      -0.669   1.631   0.162  0.00  0.00    -0.252 OA
ATOM     18  H   UNL     1      -0.048  -0.907   0.125  0.00  0.00    +0.152 HD
ENDBRANCH   1   2
BRANCH   1  20
ATOM     19  N   UNL     1       1.858   5.093   1.678  0.00  0.00    -0.284 N 
ATOM     20  C   UNL     1       1.771   3.770   1.436  0.00  0.00    +0.235 C 
ATOM     21  O   UNL     1       1.787   2.983   2.358  0.00  0.00    -0.274 OA
ATOM     22  H   UNL     1       1.922   5.718   0.939  0.00  0.00    +0.155 HD
BRANCH  19  26
ATOM     23  C   UNL     1       1.849   6.497   5.607  0.00  0.00    +0.162 A 
ATOM     24  C   UNL     1       1.118   5.369   5.272  0.00  0.00    +0.051 A 
ATOM     25  C   UNL     1       1.121   4.904   3.970  0.00  0.00    +0.027 A 
ATOM     26  C   UNL     1       1.857   5.566   2.997  0.00  0.00    +0.037 A 
ATOM     27  C   UNL     1       2.595   6.693   3.331  0.00  0.00    +0.072 A 
ATOM     28  C   UNL     1       2.588   7.162   4.634  0.00  0.00    +0.164 A 
BRANCH  23  29
ATOM     29  O   UNL     1       1.846   6.953   6.889  0.00  0.00    -0.489 OA
BRANCH  29  31
ATOM     30  C   UNL     1       1.184   6.879   9.213  0.00  0.00    +0.048 C 
ATOM     31  C   UNL     1       1.066   6.221   7.837  0.00  0.00    +0.226 C 
ENDBRANCH  29  31
ENDBRANCH  23  29
BRANCH  28  32
ATOM     32  O   UNL     1       3.306   8.269   4.963  0.00  0.00    -0.489 OA
BRANCH  32  33
ATOM     33  C   UNL     1       4.040   8.902   3.912  0.00  0.00    +0.226 C 
ATOM     34  C   UNL     1       4.780  10.120   4.469  0.00  0.00    +0.048 C 
ENDBRANCH  32  33
ENDBRANCH  28  32
ENDBRANCH  19  26
ENDBRANCH   1  20
TORSDOF 7
