REMARK  Name = ZINC39762682
REMARK  10 active torsions:
REMARK  status: ('A' for Active; 'I' for Inactive)
REMARK    1  A    between atoms: C_1  and  C_2
REMARK    2  A    between atoms: C_8  and  C_10
REMARK    3  A    between atoms: C_10  and  C_12
REMARK    4  A    between atoms: C_10  and  S_13
REMARK    5  A    between atoms: S_13  and  C_14
REMARK    6  A    between atoms: C_17  and  C_20
REMARK    7  A    between atoms: N_18  and  C_19
REMARK    8  A    between atoms: C_20  and  C_22
REMARK    9  A    between atoms: C_20  and  N_23
REMARK   10  A    between atoms: C_24  and  C_26
REMARK                            x       y       z     vdW  Elec       q    Type
REMARK                         _______ _______ _______ _____ _____    ______ ____
ROOT
ATOM      1  C   UNL     1      -0.539  -9.001  -0.203  0.00  0.00    +0.192 A 
ATOM      2  N   UNL     1      -0.235  -9.307   1.036  0.00  0.00    -0.122 NA
ATOM      3  N   UNL     1      -0.390 -10.568   1.226  0.00  0.00    -0.132 NA
ATOM      4  C   UNL     1      -0.800 -11.138   0.128  0.00  0.00    +0.154 A 
ATOM      5  N   UNL     1      -0.916 -10.159  -0.820  0.00  0.00    -0.308 N 
ATOM      6  C   UNL     1      -1.349 -10.320  -2.210  0.00  0.00    +0.152 C 
ENDROOT
BRANCH   4   7
ATOM      7  C   UNL     1      -1.098 -12.603  -0.061  0.00  0.00    +0.138 C 
ATOM      8  C   UNL     1       0.215 -13.384  -0.147  0.00  0.00    +0.036 C 
BRANCH   7   9
ATOM      9  N   UNL     1      -1.883 -13.092   1.076  0.00  0.00    -0.302 N 
ATOM     10  C   UNL     1      -2.681 -14.168   0.930  0.00  0.00    +0.245 C 
ATOM     11  O   UNL     1      -2.751 -14.732  -0.144  0.00  0.00    -0.270 OA
ATOM     12  H   UNL     1      -1.827 -12.642   1.933  0.00  0.00    +0.150 HD
BRANCH  10  13
ATOM     13  C   UNL     1      -3.473 -14.661   2.077  0.00  0.00    +0.038 A 
ATOM     14  C   UNL     1      -3.399 -14.011   3.310  0.00  0.00    +0.014 A 
ATOM     15  C   UNL     1      -4.140 -14.476   4.377  0.00  0.00    +0.022 A 
ATOM     16  C   UNL     1      -4.955 -15.585   4.227  0.00  0.00    +0.059 A 
ATOM     17  C   UNL     1      -5.033 -16.235   3.005  0.00  0.00    +0.060 A 
ATOM     18  C   UNL     1      -4.301 -15.775   1.929  0.00  0.00    +0.034 A 
ATOM     19 CL   UNL     1      -6.058 -17.624   2.826  0.00  0.00    -0.082 Cl
ATOM     20 CL   UNL     1      -5.884 -16.164   5.574  0.00  0.00    -0.082 Cl
ENDBRANCH  10  13
ENDBRANCH   7   9
ENDBRANCH   4   7
BRANCH   1  21
ATOM     21  S   UNL     1      -0.482  -7.397  -0.931  0.00  0.00    -0.074 S 
BRANCH  21  22
ATOM     22  C   UNL     1       0.093  -6.325   0.415  0.00  0.00    +0.137 C 
ATOM     23  C   UNL     1       1.521  -6.715   0.803  0.00  0.00    +0.029 C 
BRANCH  22  31
ATOM     24  C   UNL     1      -0.018   1.503   0.010  0.00  0.00    +0.075 C 
ATOM     25  C   UNL     1       0.002  -0.004   0.002  0.00  0.00    +0.101 A 
ATOM     26  N   UNL     1       0.010  -0.844  -1.014  0.00  0.00    -0.145 NA
ATOM     27  N   UNL     1       0.028  -2.086  -0.784  0.00  0.00    -0.126 NA
ATOM     28  C   UNL     1       0.040  -2.568   0.443  0.00  0.00    +0.188 A 
ATOM     29  S   UNL     1       0.031  -1.158   1.367  0.00  0.00    -0.036 S 
ATOM     30  N   UNL     1       0.060  -3.893   0.865  0.00  0.00    -0.262 N 
ATOM     31  C   UNL     1       0.071  -4.889  -0.043  0.00  0.00    +0.232 C 
ATOM     32  O   UNL     1       0.063  -4.630  -1.227  0.00  0.00    -0.274 OA
ATOM     33  H   UNL     1       0.067  -4.100   1.813  0.00  0.00    +0.157 HD
ENDBRANCH  22  31
ENDBRANCH  21  22
ENDBRANCH   1  21
TORSDOF 6
