REMARK  Name = ZINC43740547
REMARK  8 active torsions:
REMARK  status: ('A' for Active; 'I' for Inactive)
REMARK    1  A    between atoms: C_1  and  C_2
REMARK    2  A    between atoms: C_6  and  C_34
REMARK    3  A    between atoms: C_6  and  O_35
REMARK    4  A    between atoms: C_7  and  O_33
REMARK    5  A    between atoms: C_17  and  C_19
REMARK    6  A    between atoms: C_19  and  N_20
REMARK    7  A    between atoms: N_23  and  C_26
REMARK    8  A    between atoms: O_35  and  C_36
REMARK                            x       y       z     vdW  Elec       q    Type
REMARK                         _______ _______ _______ _____ _____    ______ ____
ROOT
ATOM      1  C   UNL     1      -0.019   1.526   0.010  0.00  0.00    +0.014 C 
ATOM      2  C   UNL     1       0.002  -0.004   0.002  0.00  0.00    +0.003 C 
ATOM      3  C   UNL     1       0.598  -0.505  -1.316  0.00  0.00    +0.010 C 
ATOM      4  C   UNL     1       2.040  -0.016  -1.450  0.00  0.00    +0.003 C 
ATOM      5  C   UNL     1       2.869  -0.562  -0.285  0.00  0.00    +0.037 C 
ATOM      6  C   UNL     1       2.281  -0.055   1.033  0.00  0.00    +0.095 C 
ATOM      7  C   UNL     1       0.848  -0.516   1.174  0.00  0.00    +0.100 C 
ATOM      8  C   UNL     1       0.275   0.070   2.466  0.00  0.00    +0.046 C 
ATOM      9  C   UNL     1      -1.167  -0.313   2.669  0.00  0.00    +0.044 C 
ATOM     10  C   UNL     1      -2.061  -0.031   1.444  0.00  0.00    +0.181 C 
ATOM     11  C   UNL     1      -1.419  -0.540   0.164  0.00  0.00    +0.054 C 
ATOM     12  O   UNL     1      -3.191  -0.908   1.715  0.00  0.00    -0.461 OA
ATOM     13  C   UNL     1      -2.695  -2.086   2.150  0.00  0.00    +0.309 C 
ATOM     14  O   UNL     1      -3.218  -3.166   2.005  0.00  0.00    -0.251 OA
ATOM     15  C   UNL     1      -1.372  -1.830   2.836  0.00  0.00    +0.088 C 
ATOM     16  C   UNL     1       3.113  -0.591   2.200  0.00  0.00    +0.044 C 
ENDROOT
BRANCH   7  17
ATOM     17  O   UNL     1       0.811  -1.944   1.214  0.00  0.00    -0.385 OA
ATOM     18  H   UNL     1       1.328  -2.331   1.934  0.00  0.00    +0.210 HD
ENDBRANCH   7  17
BRANCH   6  19
ATOM     19  O   UNL     1       2.311   1.374   1.047  0.00  0.00    -0.374 OA
ATOM     20  C   UNL     1       3.623   1.929   0.927  0.00  0.00    +0.194 C 
ENDBRANCH   6  19
BRANCH  15  21
ATOM     21  C   UNL     1      -1.463  -2.203   4.317  0.00  0.00    -0.064 C 
BRANCH  21  22
ATOM     22  N   UNL     1      -1.538  -3.664   4.450  0.00  0.00    +0.382 N 
ATOM     23  C   UNL     1      -0.287  -4.262   3.965  0.00  0.00    -0.060 C 
ATOM     24  C   UNL     1      -0.407  -5.790   3.997  0.00  0.00    +0.086 C 
ATOM     25  N   UNL     1      -0.789  -6.199   5.357  0.00  0.00    -0.331 N 
ATOM     26  C   UNL     1      -1.938  -5.530   5.986  0.00  0.00    +0.086 C 
ATOM     27  C   UNL     1      -1.746  -4.015   5.861  0.00  0.00    -0.060 C 
ATOM     28  H   UNL     1      -2.309  -4.012   3.901  0.00  0.00    -0.082 HD
BRANCH  25  29
ATOM     29  C   UNL     1      -0.079  -7.197   6.033  0.00  0.00    +0.065 A 
ATOM     30  C   UNL     1       1.006  -6.859   6.831  0.00  0.00    +0.026 A 
ATOM     31  C   UNL     1       1.705  -7.847   7.498  0.00  0.00    +0.002 A 
ATOM     32  C   UNL     1       1.326  -9.171   7.372  0.00  0.00    +0.003 A 
ATOM     33  C   UNL     1       0.247  -9.512   6.578  0.00  0.00    +0.040 A 
ATOM     34  C   UNL     1      -0.461  -8.528   5.912  0.00  0.00    +0.144 A 
ATOM     35  F   UNL     1      -1.520  -8.861   5.141  0.00  0.00    -0.204 F 
ENDBRANCH  25  29
ENDBRANCH  21  22
ENDBRANCH  15  21
TORSDOF 5
