REMARK  Name = ZINC04175878
REMARK  7 active torsions:
REMARK  status: ('A' for Active; 'I' for Inactive)
REMARK    1  A    between atoms: C_1  and  C_2
REMARK    2  A    between atoms: C_5  and  N_8
REMARK    3  A    between atoms: C_11  and  C_19
REMARK    4  A    between atoms: C_13  and  C_15
REMARK    5  A    between atoms: C_15  and  C_16
REMARK    6  A    between atoms: C_16  and  C_17
REMARK    7  A    between atoms: C_16  and  C_18
REMARK                            x       y       z     vdW  Elec       q    Type
REMARK                         _______ _______ _______ _____ _____    ______ ____
ROOT
ATOM      1  N   UNL     1       0.057  -4.172  -0.021  0.00  0.00    -0.245 N 
ATOM      2  C   UNL     1       0.068  -4.987   1.097  0.00  0.00    +0.170 A 
ATOM      3  C   UNL     1       0.084  -6.312   0.628  0.00  0.00    +0.117 A 
ATOM      4  C   UNL     1       0.098  -7.347   1.563  0.00  0.00    +0.154 A 
ATOM      5  N   UNL     1       0.095  -7.032   2.861  0.00  0.00    -0.225 NA
ATOM      6  C   UNL     1       0.080  -5.777   3.254  0.00  0.00    +0.133 A 
ATOM      7  N   UNL     1       0.066  -4.768   2.401  0.00  0.00    -0.212 NA
ATOM      8  N   UNL     1       0.083  -6.250  -0.753  0.00  0.00    -0.303 N 
ATOM      9  C   UNL     1       0.061  -4.953  -1.118  0.00  0.00    +0.333 A 
ATOM     10  O   UNL     1       0.050  -4.549  -2.265  0.00  0.00    -0.246 OA
ATOM     11  H   UNL     1       0.092  -7.010  -1.356  0.00  0.00    +0.171 HD
ENDROOT
BRANCH   1  16
ATOM     12  C   UNL     1      -0.018   1.503   0.010  0.00  0.00    +0.044 C 
ATOM     13  C   UNL     1       0.002  -0.004   0.002  0.00  0.00    -0.050 A 
ATOM     14  C   UNL     1       0.006  -0.688  -1.200  0.00  0.00    +0.005 A 
ATOM     15  C   UNL     1       0.024  -2.068  -1.211  0.00  0.00    +0.026 A 
ATOM     16  C   UNL     1       0.039  -2.771  -0.013  0.00  0.00    +0.053 A 
ATOM     17  C   UNL     1       0.036  -2.082   1.192  0.00  0.00    +0.026 A 
ATOM     18  C   UNL     1       0.023  -0.700   1.196  0.00  0.00    +0.005 A 
ENDBRANCH   1  16
BRANCH   4  19
ATOM     19  C   UNL     1       0.115  -8.762   1.127  0.00  0.00    +0.262 C 
ATOM     20  O   UNL     1       0.117  -9.033  -0.058  0.00  0.00    -0.269 OA
ATOM     21  N   UNL     1       0.128  -9.750   2.044  0.00  0.00    -0.324 N 
ATOM     22  H   UNL     1       0.126  -9.534   2.990  0.00  0.00    +0.145 HD
ATOM     23  H   UNL     1       0.139 -10.677   1.758  0.00  0.00    +0.145 HD
ENDBRANCH   4  19
BRANCH   6  24
ATOM     24  C   UNL     1       0.077  -5.479   4.731  0.00  0.00    +0.079 C 
BRANCH  24  25
ATOM     25  C   UNL     1       1.519  -5.360   5.230  0.00  0.00    -0.010 C 
ATOM     26  C   UNL     1       2.187  -4.150   4.574  0.00  0.00    +0.007 C 
ATOM     27  C   UNL     1       1.519  -5.182   6.749  0.00  0.00    +0.007 C 
ENDBRANCH  24  25
ENDBRANCH   6  24
TORSDOF 4
