REMARK  Name = ZINC36186537
REMARK  8 active torsions:
REMARK  status: ('A' for Active; 'I' for Inactive)
REMARK    1  A    between atoms: C_4  and  C_7
REMARK    2  A    between atoms: C_7  and  C_9
REMARK    3  A    between atoms: C_7  and  O_22
REMARK    4  A    between atoms: N_11  and  C_12
REMARK    5  A    between atoms: C_15  and  N_19
REMARK    6  A    between atoms: O_22  and  C_23
REMARK    7  A    between atoms: C_23  and  C_25
REMARK    8  A    between atoms: C_28  and  N_31
REMARK                            x       y       z     vdW  Elec       q    Type
REMARK                         _______ _______ _______ _____ _____    ______ ____
ROOT
ATOM      1  C   UNL     1       3.714  -0.914  -0.465  0.00  0.00    +0.292 C 
ENDROOT
BRANCH   1   5
ATOM      2  C   UNL     1      -0.025   1.143  -0.256  0.00  0.00    +0.000 A 
ATOM      3  C   UNL     1       1.159   1.856  -0.220  0.00  0.00    +0.000 A 
ATOM      4  C   UNL     1       2.369   1.190  -0.288  0.00  0.00    +0.008 A 
ATOM      5  C   UNL     1       2.395  -0.188  -0.391  0.00  0.00    +0.002 A 
ATOM      6  C   UNL     1       1.211  -0.901  -0.426  0.00  0.00    +0.008 A 
ATOM      7  C   UNL     1       0.001  -0.235  -0.360  0.00  0.00    +0.000 A 
ENDBRANCH   1   5
BRANCH   1   8
ATOM      8  C   UNL     1       4.071  -1.159  -1.909  0.00  0.00    +0.263 C 
ATOM      9  O   UNL     1       4.133  -2.293  -2.334  0.00  0.00    -0.271 OA
ATOM     10  N   UNL     1       4.323  -0.118  -2.727  0.00  0.00    -0.281 N 
ATOM     11  H   UNL     1       4.213   0.790  -2.404  0.00  0.00    +0.155 HD
BRANCH  10  12
ATOM     12  C   UNL     1       4.744  -0.347  -4.042  0.00  0.00    +0.052 A 
ATOM     13  C   UNL     1       4.261  -1.442  -4.746  0.00  0.00    +0.027 A 
ATOM     14  C   UNL     1       4.677  -1.665  -6.044  0.00  0.00    +0.034 A 
ATOM     15  C   UNL     1       5.575  -0.799  -6.643  0.00  0.00    +0.128 A 
ATOM     16  C   UNL     1       6.058   0.292  -5.945  0.00  0.00    +0.054 A 
ATOM     17  C   UNL     1       5.641   0.524  -4.648  0.00  0.00    +0.064 A 
ATOM     18 CL   UNL     1       6.243   1.899  -3.774  0.00  0.00    -0.082 Cl
BRANCH  15  19
ATOM     19  N   UNL     1       6.019  -1.042  -8.034  0.00  0.00    +0.056 N 
ATOM     20  O   UNL     1       5.597  -1.997  -8.645  0.00  0.00    -0.126 OA
ATOM     21  O   UNL     1       6.803  -0.287  -8.558  0.00  0.00    -0.126 OA
ENDBRANCH  15  19
ENDBRANCH  10  12
ENDBRANCH   1   8
BRANCH   1  22
ATOM     22  O   UNL     1       3.609  -2.164   0.218  0.00  0.00    -0.444 OA
BRANCH  22  23
ATOM     23  C   UNL     1       3.912  -2.171   1.531  0.00  0.00    +0.340 C 
ATOM     24  O   UNL     1       4.256  -1.143   2.080  0.00  0.00    -0.245 OA
BRANCH  23  25
ATOM     25  C   UNL     1       3.826  -3.425   2.301  0.00  0.00    +0.059 A 
ATOM     26  C   UNL     1       3.436  -4.610   1.670  0.00  0.00    +0.017 A 
ATOM     27  C   UNL     1       3.357  -5.779   2.392  0.00  0.00    +0.024 A 
ATOM     28  C   UNL     1       3.666  -5.783   3.749  0.00  0.00    +0.036 A 
ATOM     29  C   UNL     1       4.054  -4.606   4.381  0.00  0.00    +0.024 A 
ATOM     30  C   UNL     1       4.141  -3.434   3.664  0.00  0.00    +0.017 A 
BRANCH  28  31
ATOM     31  N   UNL     1       3.585  -6.969   4.477  0.00  0.00    -0.271 N 
ATOM     32  C   UNL     1       3.764  -7.063   5.930  0.00  0.00    +0.114 C 
ATOM     33  C   UNL     1       3.168  -8.430   6.332  0.00  0.00    +0.029 C 
ATOM     34  C   UNL     1       3.307  -9.233   5.018  0.00  0.00    +0.098 C 
ATOM     35  C   UNL     1       3.326  -8.174   3.938  0.00  0.00    +0.220 C 
ATOM     36  O   UNL     1       3.139  -8.381   2.758  0.00  0.00    -0.275 OA
ENDBRANCH  28  31
ENDBRANCH  23  25
ENDBRANCH  22  23
ENDBRANCH   1  22
TORSDOF 8
