REMARK  Name = ZINC45334191
REMARK  7 active torsions:
REMARK  status: ('A' for Active; 'I' for Inactive)
REMARK    1  A    between atoms: C_1  and  C_2
REMARK    2  A    between atoms: C_3  and  C_17
REMARK    3  A    between atoms: N_5  and  C_7
REMARK    4  A    between atoms: C_7  and  C_8
REMARK    5  A    between atoms: N_18  and  N_19
REMARK    6  A    between atoms: C_20  and  C_22
REMARK    7  A    between atoms: C_25  and  N_28
REMARK                            x       y       z     vdW  Elec       q    Type
REMARK                         _______ _______ _______ _____ _____    ______ ____
ROOT
ATOM      1  C   UNL     1      -0.186   0.330  -1.932  0.00  0.00    +0.143 C 
ATOM      2  N   UNL     1      -0.374  -0.342  -3.027  0.00  0.00    -0.187 NA
ENDROOT
BRANCH   1   5
ATOM      3  C   UNL     1       0.276   1.691   0.895  0.00  0.00    +0.068 C 
ATOM      4  C   UNL     1       0.149   0.215   0.620  0.00  0.00    +0.070 A 
ATOM      5  C   UNL     1      -0.057  -0.378  -0.645  0.00  0.00    +0.054 A 
ATOM      6  C   UNL     1      -0.114  -1.744  -0.452  0.00  0.00    +0.136 A 
ATOM      7  N   UNL     1       0.049  -1.970   0.867  0.00  0.00    -0.248 N 
ATOM      8  N   UNL     1       0.215  -0.739   1.509  0.00  0.00    -0.174 NA
ATOM      9 CL   UNL     1      -0.353  -2.947  -1.681  0.00  0.00    -0.062 Cl
BRANCH   7  10
ATOM     10  C   UNL     1       0.056  -3.284   1.516  0.00  0.00    +0.183 C 
BRANCH  10  11
ATOM     11  C   UNL     1       1.479  -3.740   1.711  0.00  0.00    +0.011 A 
ATOM     12  C   UNL     1       2.195  -3.317   2.816  0.00  0.00    +0.047 A 
ATOM     13  C   UNL     1       3.502  -3.736   2.995  0.00  0.00    +0.020 A 
ATOM     14  C   UNL     1       4.091  -4.577   2.069  0.00  0.00    +0.003 A 
ATOM     15  C   UNL     1       3.375  -5.000   0.965  0.00  0.00    +0.020 A 
ATOM     16  C   UNL     1       2.067  -4.586   0.788  0.00  0.00    +0.047 A 
ATOM     17 CL   UNL     1       1.165  -5.124  -0.595  0.00  0.00    -0.083 Cl
ATOM     18 CL   UNL     1       1.456  -2.260   3.978  0.00  0.00    -0.083 Cl
ENDBRANCH  10  11
ENDBRANCH   7  10
ENDBRANCH   1   5
BRANCH   2  19
ATOM     19  N   UNL     1      -0.497   0.330  -4.250  0.00  0.00    -0.203 N 
ATOM     20  C   UNL     1      -0.692  -0.368  -5.386  0.00  0.00    +0.263 C 
ATOM     21  O   UNL     1      -0.761  -1.582  -5.350  0.00  0.00    -0.268 OA
ATOM     22  H   UNL     1      -0.442   1.298  -4.278  0.00  0.00    +0.178 HD
BRANCH  20  23
ATOM     23  C   UNL     1      -0.821   0.341  -6.675  0.00  0.00    +0.038 A 
ATOM     24  C   UNL     1      -0.736   1.735  -6.719  0.00  0.00    +0.015 A 
ATOM     25  C   UNL     1      -0.857   2.392  -7.923  0.00  0.00    +0.028 A 
ATOM     26  C   UNL     1      -1.063   1.671  -9.094  0.00  0.00    +0.069 A 
ATOM     27  C   UNL     1      -1.148   0.284  -9.053  0.00  0.00    +0.028 A 
ATOM     28  C   UNL     1      -1.023  -0.381  -7.854  0.00  0.00    +0.015 A 
BRANCH  26  29
ATOM     29  N   UNL     1      -1.186   2.343 -10.315  0.00  0.00    -0.200 N 
ATOM     30  C   UNL     1      -1.393   1.798 -11.534  0.00  0.00    +0.250 A 
ATOM     31  N   UNL     1      -1.444   2.780 -12.395  0.00  0.00    -0.116 NA
ATOM     32  N   UNL     1      -1.284   3.909 -11.804  0.00  0.00    -0.023 NA
ATOM     33  N   UNL     1      -1.127   3.730 -10.537  0.00  0.00    -0.039 NA
ENDBRANCH  26  29
ENDBRANCH  20  23
ENDBRANCH   2  19
TORSDOF 6
