REMARK  Name = ZINC47003069
REMARK  7 active torsions:
REMARK  status: ('A' for Active; 'I' for Inactive)
REMARK    1  A    between atoms: C_1  and  C_2
REMARK    2  A    between atoms: C_2  and  C_3
REMARK    3  A    between atoms: C_2  and  N_4
REMARK    4  A    between atoms: C_5  and  C_7
REMARK    5  A    between atoms: C_7  and  N_8
REMARK    6  A    between atoms: N_16  and  C_17
REMARK    7  A    between atoms: N_26  and  C_27
REMARK                            x       y       z     vdW  Elec       q    Type
REMARK                         _______ _______ _______ _____ _____    ______ ____
ROOT
ATOM      1  N   UNL     1      -3.087  -3.600  -1.066  0.00  0.00    -0.291 NA
ATOM      2  C   UNL     1      -2.347  -4.559  -0.235  0.00  0.00    +0.104 C 
ATOM      3  C   UNL     1      -2.248  -5.899  -0.972  0.00  0.00    +0.124 C 
ATOM      4  N   UNL     1      -3.604  -6.323  -1.353  0.00  0.00    -0.283 N 
ATOM      5  C   UNL     1      -4.457  -5.364  -2.071  0.00  0.00    +0.124 C 
ATOM      6  C   UNL     1      -4.469  -4.045  -1.291  0.00  0.00    +0.104 C 
ATOM      7  C   UNL     1      -4.052  -7.558  -1.054  0.00  0.00    +0.303 C 
ATOM      8  O   UNL     1      -3.304  -8.369  -0.543  0.00  0.00    -0.253 OA
ATOM      9  N   UNL     1      -5.329  -7.895  -1.322  0.00  0.00    -0.292 N 
ATOM     10  H   UNL     1      -5.905  -7.275  -1.795  0.00  0.00    +0.151 HD
ENDROOT
BRANCH   9  11
ATOM     11  C   UNL     1      -5.847  -9.198  -0.898  0.00  0.00    +0.108 C 
ATOM     12  C   UNL     1      -7.372  -9.124  -0.748  0.00  0.00    +0.027 C 
ATOM     13  C   UNL     1      -7.936 -10.535  -0.559  0.00  0.00    +0.008 C 
ATOM     14  C   UNL     1      -7.813 -11.316  -1.873  0.00  0.00    +0.055 C 
ATOM     15  C   UNL     1      -6.397 -11.180  -2.376  0.00  0.00    +0.044 A 
ATOM     16  C   UNL     1      -5.521 -10.238  -1.941  0.00  0.00    +0.013 A 
ATOM     17  C   UNL     1      -4.319 -10.420  -2.622  0.00  0.00    +0.140 A 
ATOM     18  N   UNL     1      -4.464 -11.434  -3.439  0.00  0.00    -0.179 NA
ATOM     19  N   UNL     1      -5.772 -11.927  -3.301  0.00  0.00    -0.271 N 
ATOM     20  C   UNL     1      -6.351 -13.057  -4.033  0.00  0.00    +0.172 C 
ENDBRANCH   9  11
BRANCH   1  21
ATOM     21  C   UNL     1      -3.057  -2.256  -0.474  0.00  0.00    +0.180 C 
BRANCH  21  23
ATOM     22  N   UNL     1      -1.372  -0.511   0.013  0.00  0.00    -0.312 N 
ATOM     23  C   UNL     1      -1.643  -1.734  -0.485  0.00  0.00    +0.227 C 
ATOM     24  O   UNL     1      -0.749  -2.415  -0.941  0.00  0.00    -0.274 OA
ATOM     25  H   UNL     1      -2.087   0.033   0.377  0.00  0.00    +0.149 HD
BRANCH  22  27
ATOM     26  C   UNL     1      -0.018   1.526   0.011  0.00  0.00    +0.027 C 
ATOM     27  C   UNL     1       0.002  -0.004   0.002  0.00  0.00    +0.067 C 
ATOM     28  C   UNL     1       0.742  -0.511   1.242  0.00  0.00    +0.027 C 
ENDBRANCH  22  27
ENDBRANCH  21  23
ENDBRANCH   1  21
TORSDOF 4
