REMARK  Name = ZINC12437914
REMARK  13 active torsions:
REMARK  status: ('A' for Active; 'I' for Inactive)
REMARK    1  A    between atoms: C_1  and  C_2
REMARK    2  A    between atoms: C_2  and  O_3
REMARK    3  A    between atoms: O_3  and  C_4
REMARK    4  A    between atoms: C_9  and  C_10
REMARK    5  A    between atoms: C_10  and  N_69
REMARK    6  A    between atoms: C_16  and  C_18
REMARK    7  A    between atoms: C_18  and  C_19
REMARK    8  A    between atoms: N_21  and  C_22
REMARK    9  A    between atoms: C_22  and  C_23
REMARK   10  A    between atoms: C_28  and  C_29
REMARK   11  A    between atoms: C_28  and  N_71
REMARK   12  A    between atoms: C_29  and  O_30
REMARK   13  A    between atoms: O_30  and  C_31
REMARK                            x       y       z     vdW  Elec       q    Type
REMARK                         _______ _______ _______ _____ _____    ______ ____
ROOT
ATOM      1  C   UNL     1      -1.554   0.029   3.787  0.00  0.00    -0.058 C 
ATOM      2  C   UNL     1      -0.882  -1.241   4.312  0.00  0.00    +0.085 C 
ATOM      3  N   UNL     1       0.184  -1.655   3.405  0.00  0.00    -0.318 N 
ATOM      4  C   UNL     1       0.729  -0.834   2.502  0.00  0.00    +0.200 C 
ATOM      5  O   UNL     1       1.633  -1.250   1.808  0.00  0.00    -0.278 OA
ATOM      6  C   UNL     1       0.270   0.584   2.310  0.00  0.00    +0.028 C 
ATOM      7  H   UNL     1       0.511  -2.566   3.460  0.00  0.00    +0.149 HD
ATOM      8  N   UNL     1      -0.496   1.017   3.493  0.00  0.00    +0.391 N 
ATOM      9  H   UNL     1       0.137   1.081   4.299  0.00  0.00    -0.080 HD
ENDROOT
BRANCH   8  10
ATOM     10  C   UNL     1      -1.098   2.348   3.248  0.00  0.00    -0.038 C 
BRANCH  10  16
ATOM     11  C   UNL     1      -0.899   3.416   5.508  0.00  0.00    +0.122 A 
ATOM     12  C   UNL     1      -1.463   3.882   6.687  0.00  0.00    +0.046 A 
ATOM     13  C   UNL     1      -2.826   3.784   6.886  0.00  0.00    +0.004 A 
ATOM     14  C   UNL     1      -3.629   3.223   5.910  0.00  0.00    +0.000 A 
ATOM     15  C   UNL     1      -3.071   2.763   4.731  0.00  0.00    +0.005 A 
ATOM     16  C   UNL     1      -1.707   2.854   4.531  0.00  0.00    -0.022 A 
BRANCH  11  17
ATOM     17  O   UNL     1       0.442   3.512   5.311  0.00  0.00    -0.492 OA
BRANCH  17  19
ATOM     18  C   UNL     1       2.688   4.123   5.959  0.00  0.00    +0.048 C 
ATOM     19  C   UNL     1       1.212   4.102   6.360  0.00  0.00    +0.225 C 
ENDBRANCH  17  19
ENDBRANCH  11  17
ENDBRANCH  10  16
ENDBRANCH   8  10
BRANCH   6  20
ATOM     20  C   UNL     1       1.488   1.495   2.145  0.00  0.00    +0.089 C 
BRANCH  20  21
ATOM     21  C   UNL     1       2.183   1.174   0.847  0.00  0.00    +0.212 C 
ATOM     22  O   UNL     1       1.676   0.400   0.063  0.00  0.00    -0.276 OA
ATOM     23  N   UNL     1       3.369   1.747   0.558  0.00  0.00    -0.315 N 
ATOM     24  H   UNL     1       3.774   2.366   1.185  0.00  0.00    +0.149 HD
BRANCH  23  25
ATOM     25  C   UNL     1       4.045   1.435  -0.704  0.00  0.00    +0.107 C 
BRANCH  25  26
ATOM     26  C   UNL     1       5.360   2.211  -0.783  0.00  0.00    +0.003 C 
ATOM     27  C   UNL     1       5.065   3.712  -0.850  0.00  0.00    -0.014 C 
ATOM     28  C   UNL     1       6.381   4.480  -0.991  0.00  0.00    -0.078 C 
ATOM     29  C   UNL     1       7.412   2.616  -2.147  0.00  0.00    -0.078 C 
ATOM     30  C   UNL     1       6.127   1.793  -2.041  0.00  0.00    -0.014 C 
ATOM     31  N   UNL     1       7.058   4.049  -2.233  0.00  0.00    +0.381 N 
ATOM     32  H   UNL     1       6.420   4.187  -3.025  0.00  0.00    -0.082 HD
BRANCH  31  33
ATOM     33  C   UNL     1       8.276   4.857  -2.450  0.00  0.00    -0.050 C 
BRANCH  33  34
ATOM     34  C   UNL     1       9.096   4.951  -1.162  0.00  0.00    +0.141 C 
BRANCH  34  35
ATOM     35  O   UNL     1       9.612   3.660  -0.830  0.00  0.00    -0.385 OA
ATOM     36  C   UNL     1      10.397   3.637   0.363  0.00  0.00    +0.193 C 
ENDBRANCH  34  35
ENDBRANCH  33  34
ENDBRANCH  31  33
ENDBRANCH  25  26
ENDBRANCH  23  25
ENDBRANCH  20  21
ENDBRANCH   6  20
TORSDOF 11
