REMARK  Name = ZINC62179935
REMARK  5 active torsions:
REMARK  status: ('A' for Active; 'I' for Inactive)
REMARK    1  A    between atoms: C_1  and  C_2
REMARK    2  A    between atoms: C_7  and  S_8
REMARK    3  A    between atoms: S_8  and  N_11
REMARK    4  A    between atoms: N_11  and  C_12
REMARK    5  A    between atoms: N_21  and  C_22
REMARK                            x       y       z     vdW  Elec       q    Type
REMARK                         _______ _______ _______ _____ _____    ______ ____
ROOT
ATOM      1  N   UNL     1       1.175   1.031   2.916  0.00  0.00    -0.216 N 
ATOM      2  H   UNL     1       1.881   0.855   3.557  0.00  0.00    +0.174 HD
ENDROOT
BRANCH   1   3
ATOM      3  C   UNL     1       1.214   2.191   2.134  0.00  0.00    +0.052 A 
ATOM      4  C   UNL     1       0.965   2.115   0.768  0.00  0.00    +0.027 A 
ATOM      5  C   UNL     1       1.002   3.256  -0.008  0.00  0.00    +0.031 A 
ATOM      6  C   UNL     1       1.288   4.480   0.577  0.00  0.00    +0.090 A 
ATOM      7  C   UNL     1       1.538   4.561   1.947  0.00  0.00    +0.159 A 
ATOM      8  C   UNL     1       1.495   3.414   2.724  0.00  0.00    +0.073 A 
ATOM      9  O   UNL     1       1.783   5.863   2.236  0.00  0.00    -0.407 OA
ATOM     10  C   UNL     1       1.697   6.589   1.110  0.00  0.00    +0.421 A 
ATOM     11  O   UNL     1       1.864   7.791   1.036  0.00  0.00    -0.223 OA
ATOM     12  N   UNL     1       1.396   5.779   0.075  0.00  0.00    -0.277 N 
ATOM     13  C   UNL     1       1.216   6.187  -1.320  0.00  0.00    +0.156 C 
ENDBRANCH   1   3
BRANCH   1  14
ATOM     14  S   UNL     1      -0.075  -0.041   2.746  0.00  0.00    +0.073 S 
ATOM     15  O   UNL     1      -1.271   0.727   2.743  0.00  0.00    -0.150 OA
ATOM     16  O   UNL     1       0.156  -1.086   3.680  0.00  0.00    -0.150 OA
BRANCH  14  23
ATOM     17  C   UNL     1       2.240  -1.772   1.858  0.00  0.00    +0.046 C 
ATOM     18  C   UNL     1       1.165  -1.536   0.829  0.00  0.00    -0.021 A 
ATOM     19  C   UNL     1       1.274  -2.103  -0.427  0.00  0.00    +0.043 A 
ATOM     20  C   UNL     1       0.286  -1.887  -1.372  0.00  0.00    +0.124 A 
ATOM     21  C   UNL     1      -0.811  -1.102  -1.059  0.00  0.00    +0.040 A 
ATOM     22  C   UNL     1      -0.918  -0.536   0.197  0.00  0.00    +0.032 A 
ATOM     23  C   UNL     1       0.067  -0.757   1.143  0.00  0.00    +0.112 A 
ATOM     24  F   UNL     1       0.393  -2.440  -2.600  0.00  0.00    -0.205 F 
ENDBRANCH  14  23
ENDBRANCH   1  14
TORSDOF 3
