REMARK  Name = ZINC09153260
REMARK  7 active torsions:
REMARK  status: ('A' for Active; 'I' for Inactive)
REMARK    1  A    between atoms: C_1  and  C_2
REMARK    2  A    between atoms: C_4  and  C_29
REMARK    3  A    between atoms: C_6  and  N_8
REMARK    4  A    between atoms: N_8  and  S_9
REMARK    5  A    between atoms: S_9  and  C_12
REMARK    6  A    between atoms: C_15  and  C_17
REMARK    7  A    between atoms: C_17  and  N_18
REMARK                            x       y       z     vdW  Elec       q    Type
REMARK                         _______ _______ _______ _____ _____    ______ ____
ROOT
ATOM      1  C   UNL     1       5.765   6.471  -2.970  0.00  0.00    +0.146 A 
ATOM      2  C   UNL     1       4.900   6.991  -2.066  0.00  0.00    +0.037 A 
ATOM      3  C   UNL     1       5.287   7.079  -0.742  0.00  0.00    +0.015 A 
ATOM      4  C   UNL     1       6.524   6.653  -0.389  0.00  0.00    +0.009 A 
ATOM      5  S   UNL     1       7.182   6.093  -1.952  0.00  0.00    -0.072 S 
ENDROOT
BRANCH   1   6
ATOM      6  S   UNL     1       5.549   6.231  -4.703  0.00  0.00    +0.079 S 
ATOM      7  O   UNL     1       6.482   5.234  -5.095  0.00  0.00    -0.149 OA
ATOM      8  O   UNL     1       4.152   6.095  -4.922  0.00  0.00    -0.149 OA
BRANCH   6   9
ATOM      9  N   UNL     1       6.011   7.634  -5.452  0.00  0.00    -0.216 N 
ATOM     10  H   UNL     1       6.774   7.634  -6.053  0.00  0.00    +0.174 HD
BRANCH   9  16
ATOM     11  C   UNL     1       2.015  10.391  -6.214  0.00  0.00    +0.044 C 
ATOM     12  C   UNL     1       3.364  10.180  -5.577  0.00  0.00    -0.048 A 
ATOM     13  C   UNL     1       3.904  11.158  -4.762  0.00  0.00    +0.006 A 
ATOM     14  C   UNL     1       5.142  10.968  -4.176  0.00  0.00    -0.048 A 
ATOM     15  C   UNL     1       5.843   9.800  -4.402  0.00  0.00    +0.028 A 
ATOM     16  C   UNL     1       5.304   8.816  -5.221  0.00  0.00    +0.049 A 
ATOM     17  C   UNL     1       4.063   9.012  -5.812  0.00  0.00    +0.028 A 
ATOM     18  C   UNL     1       5.725  12.037  -3.288  0.00  0.00    +0.044 C 
ENDBRANCH   9  16
ENDBRANCH   6   9
ENDBRANCH   1   6
BRANCH   4  19
ATOM     19  C   UNL     1       7.174   6.647   0.971  0.00  0.00    +0.159 C 
BRANCH  19  20
ATOM     20  N   UNL     1       6.877   5.383   1.649  0.00  0.00    -0.228 N 
ATOM     21  C   UNL     1       7.635   4.276   1.563  0.00  0.00    +0.256 C 
ATOM     22  O   UNL     1       8.660   4.166   0.921  0.00  0.00    -0.269 OA
ATOM     23  C   UNL     1       7.013   3.215   2.382  0.00  0.00    +0.068 A 
ATOM     24  C   UNL     1       7.332   1.893   2.671  0.00  0.00    +0.017 A 
ATOM     25  C   UNL     1       6.481   1.184   3.508  0.00  0.00    +0.020 A 
ATOM     26  C   UNL     1       5.357   1.809   4.021  0.00  0.00    +0.111 A 
ATOM     27  N   UNL     1       5.076   3.064   3.731  0.00  0.00    -0.250 NA
ATOM     28  C   UNL     1       5.853   3.781   2.941  0.00  0.00    +0.138 A 
ATOM     29  C   UNL     1       5.809   5.178   2.441  0.00  0.00    +0.272 C 
ATOM     30  O   UNL     1       4.951   5.997   2.701  0.00  0.00    -0.268 OA
ENDBRANCH  19  20
ENDBRANCH   4  19
TORSDOF 5
