REMARK  Name = ZINC63302091
REMARK  7 active torsions:
REMARK  status: ('A' for Active; 'I' for Inactive)
REMARK    1  A    between atoms: C_2  and  C_3
REMARK    2  A    between atoms: C_3  and  S_4
REMARK    3  A    between atoms: S_4  and  C_5
REMARK    4  A    between atoms: C_11  and  C_13
REMARK    5  A    between atoms: C_13  and  S_14
REMARK    6  A    between atoms: S_14  and  C_15
REMARK    7  A    between atoms: C_21  and  N_25
REMARK                            x       y       z     vdW  Elec       q    Type
REMARK                         _______ _______ _______ _____ _____    ______ ____
ROOT
ATOM      1  S   UNL     1      -9.674  -5.569   0.422  0.00  0.00    -0.106 S 
ENDROOT
BRANCH   1   2
ATOM      2  C   UNL     1     -11.065  -6.644  -0.024  0.00  0.00    +0.236 C 
ATOM      3  N   UNL     1     -11.673  -6.186  -1.279  0.00  0.00    -0.355 N 
ATOM      4  C   UNL     1     -11.565  -7.155  -2.141  0.00  0.00    +0.061 A 
ATOM      5  C   UNL     1     -11.978  -7.295  -3.545  0.00  0.00    +0.029 A 
ATOM      6  C   UNL     1     -11.727  -8.445  -4.201  0.00  0.00    +0.035 A 
ATOM      7  C   UNL     1     -11.077  -9.536  -3.597  0.00  0.00    +0.128 A 
ATOM      8  C   UNL     1     -10.658  -9.514  -2.316  0.00  0.00    +0.060 A 
ATOM      9  C   UNL     1     -10.877  -8.310  -1.502  0.00  0.00    +0.063 A 
ATOM     10  N   UNL     1     -10.587  -8.011  -0.268  0.00  0.00    -0.355 N 
ATOM     11  H   UNL     1     -10.138  -8.585   0.373  0.00  0.00    +0.162 HD
ATOM     12  H   UNL     1     -12.081  -5.321  -1.437  0.00  0.00    +0.162 HD
BRANCH   7  13
ATOM     13  N   UNL     1     -10.845 -10.758  -4.399  0.00  0.00    +0.056 N 
ATOM     14  O   UNL     1     -11.212 -10.804  -5.550  0.00  0.00    -0.126 OA
ATOM     15  O   UNL     1     -10.289 -11.710  -3.903  0.00  0.00    -0.126 OA
ENDBRANCH   7  13
ENDBRANCH   1   2
BRANCH   1  16
ATOM     16  C   UNL     1      -8.563  -5.673  -1.008  0.00  0.00    +0.169 C 
BRANCH  16  23
ATOM     17  C   UNL     1      -2.999  -2.535  -1.381  0.00  0.00    +0.160 A 
ATOM     18  N   UNL     1      -3.874  -2.524  -0.386  0.00  0.00    -0.133 NA
ATOM     19  N   UNL     1      -4.944  -3.190  -0.431  0.00  0.00    -0.125 NA
ATOM     20  C   UNL     1      -5.259  -3.940  -1.474  0.00  0.00    +0.189 A 
ATOM     21  S   UNL     1      -3.835  -3.638  -2.517  0.00  0.00    -0.024 S 
ATOM     22  N   UNL     1      -6.380  -4.735  -1.698  0.00  0.00    -0.263 N 
ATOM     23  C   UNL     1      -7.349  -4.813  -0.764  0.00  0.00    +0.229 C 
ATOM     24  O   UNL     1      -7.244  -4.191   0.272  0.00  0.00    -0.275 OA
ATOM     25  H   UNL     1      -6.465  -5.232  -2.527  0.00  0.00    +0.157 HD
BRANCH  17  26
ATOM     26  S   UNL     1      -1.457  -1.697  -1.543  0.00  0.00    -0.093 S 
BRANCH  26  27
ATOM     27  C   UNL     1      -1.293  -0.775   0.010  0.00  0.00    +0.103 C 
BRANCH  27  29
ATOM     28  C   UNL     1      -0.016   1.306   0.009  0.00  0.00    +0.005 C 
ATOM     29  C   UNL     1       0.002  -0.004   0.002  0.00  0.00    -0.023 C 
ENDBRANCH  27  29
ENDBRANCH  26  27
ENDBRANCH  17  26
ENDBRANCH  16  23
ENDBRANCH   1  16
TORSDOF 7
