REMARK  Name = ZINC49476388
REMARK  4 active torsions:
REMARK  status: ('A' for Active; 'I' for Inactive)
REMARK    1  A    between atoms: C_1  and  C_2
REMARK    2  A    between atoms: C_3  and  N_8
REMARK    3  A    between atoms: C_9  and  C_11
REMARK    4  A    between atoms: C_18  and  C_21
REMARK                            x       y       z     vdW  Elec       q    Type
REMARK                         _______ _______ _______ _____ _____    ______ ____
ROOT
ATOM      1  N   UNL     1      -0.004  -0.375  -2.475  0.00  0.00    -0.278 N 
ATOM      2  C   UNL     1       0.004  -1.269  -3.483  0.00  0.00    +0.255 C 
ATOM      3  O   UNL     1       0.021  -2.462  -3.238  0.00  0.00    -0.269 OA
ATOM      4  H   UNL     1      -0.018   0.575  -2.670  0.00  0.00    +0.155 HD
ENDROOT
BRANCH   2   5
ATOM      5  C   UNL     1      -0.009  -0.807  -4.873  0.00  0.00    +0.075 A 
ATOM      6  C   UNL     1      -0.010  -1.550  -6.040  0.00  0.00    +0.024 A 
ATOM      7  C   UNL     1      -0.024  -0.842  -7.233  0.00  0.00    -0.036 A 
ATOM      8  C   UNL     1      -0.035   0.518  -7.138  0.00  0.00    -0.006 A 
ATOM      9  S   UNL     1      -0.035   0.861  -5.504  0.00  0.00    -0.088 S 
ATOM     10  C   UNL     1      -0.050   1.497  -8.275  0.00  0.00    +0.043 C 
ATOM     11  C   UNL     1       0.330   0.752  -9.562  0.00  0.00    +0.009 C 
ATOM     12  C   UNL     1      -0.501  -0.532  -9.651  0.00  0.00    -0.009 C 
ATOM     13  C   UNL     1      -0.028  -1.531  -8.595  0.00  0.00    +0.039 C 
ATOM     14  C   UNL     1      -0.337  -1.148 -11.042  0.00  0.00    +0.008 C 
ENDBRANCH   2   5
BRANCH   1  17
ATOM     15  C   UNL     1      -0.018   1.503   0.010  0.00  0.00    +0.069 C 
ATOM     16  C   UNL     1       0.002  -0.004   0.002  0.00  0.00    +0.081 A 
ATOM     17  C   UNL     1       0.008  -0.819  -1.140  0.00  0.00    +0.074 A 
ATOM     18  C   UNL     1       0.027  -2.112  -0.727  0.00  0.00    +0.128 A 
ATOM     19  N   UNL     1       0.034  -2.109   0.631  0.00  0.00    -0.283 N 
ATOM     20  H   UNL     1       0.047  -2.892   1.204  0.00  0.00    +0.188 HD
ATOM     21  N   UNL     1       0.023  -0.776   1.058  0.00  0.00    -0.177 NA
ENDBRANCH   1  17
TORSDOF 2
