REMARK  Name = ZINC00922707
REMARK  9 active torsions:
REMARK  status: ('A' for Active; 'I' for Inactive)
REMARK    1  A    between atoms: C_1  and  C_2
REMARK    2  A    between atoms: C_3  and  C_8
REMARK    3  A    between atoms: N_5  and  C_7
REMARK    4  A    between atoms: C_8  and  C_10
REMARK    5  A    between atoms: C_8  and  N_19
REMARK    6  A    between atoms: N_12  and  C_13
REMARK    7  A    between atoms: N_19  and  C_20
REMARK    8  A    between atoms: C_27  and  C_29
REMARK    9  A    between atoms: C_29  and  N_30
REMARK                            x       y       z     vdW  Elec       q    Type
REMARK                         _______ _______ _______ _____ _____    ______ ____
ROOT
ATOM      1  N   UNL     1      -5.163   3.807  -1.729  0.00  0.00    -0.254 N 
ATOM      2  C   UNL     1      -3.885   4.117  -2.025  0.00  0.00    +0.242 C 
ATOM      3  O   UNL     1      -3.545   4.246  -3.182  0.00  0.00    -0.273 OA
ENDROOT
BRANCH   1   4
ATOM      4  C   UNL     1      -5.585   3.781  -0.395  0.00  0.00    +0.040 A 
ATOM      5  C   UNL     1      -5.788   2.567   0.248  0.00  0.00    +0.024 A 
ATOM      6  C   UNL     1      -6.204   2.543   1.564  0.00  0.00    +0.005 A 
ATOM      7  C   UNL     1      -6.420   3.728   2.244  0.00  0.00    +0.038 A 
ATOM      8  C   UNL     1      -6.220   4.941   1.607  0.00  0.00    +0.125 A 
ATOM      9  C   UNL     1      -5.798   4.970   0.289  0.00  0.00    +0.062 A 
ATOM     10  F   UNL     1      -6.432   6.097   2.273  0.00  0.00    -0.205 F 
ENDBRANCH   1   4
BRANCH   1  11
ATOM     11  C   UNL     1      -6.109   3.496  -2.803  0.00  0.00    +0.200 C 
BRANCH  11  14
ATOM     12  C   UNL     1      -4.735   0.665  -3.180  0.00  0.00    +0.068 C 
ATOM     13  C   UNL     1      -6.144   0.908  -2.703  0.00  0.00    +0.065 A 
ATOM     14  C   UNL     1      -6.750   2.158  -2.537  0.00  0.00    +0.022 A 
ATOM     15  C   UNL     1      -8.010   1.953  -2.090  0.00  0.00    +0.114 A 
ATOM     16  N   UNL     1      -8.198   0.621  -1.985  0.00  0.00    -0.274 N 
ATOM     17  N   UNL     1      -7.011  -0.014  -2.372  0.00  0.00    -0.176 NA
ATOM     18  C   UNL     1      -9.426  -0.043  -1.540  0.00  0.00    +0.172 C 
ENDBRANCH  11  14
BRANCH  11  19
ATOM     19  C   UNL     1      -7.174   4.561  -2.858  0.00  0.00    +0.239 C 
ATOM     20  O   UNL     1      -7.351   5.291  -1.906  0.00  0.00    -0.273 OA
ATOM     21  N   UNL     1      -7.931   4.701  -3.965  0.00  0.00    -0.311 N 
ATOM     22  H   UNL     1      -7.837   4.074  -4.699  0.00  0.00    +0.149 HD
BRANCH  21  23
ATOM     23  C   UNL     1      -8.894   5.800  -4.059  0.00  0.00    +0.073 C 
ATOM     24  C   UNL     1     -10.208   5.386  -3.392  0.00  0.00    +0.022 C 
ATOM     25  C   UNL     1     -11.214   6.534  -3.490  0.00  0.00    +0.002 C 
ATOM     26  C   UNL     1     -11.471   6.862  -4.963  0.00  0.00    +0.000 C 
ATOM     27  C   UNL     1     -10.158   7.277  -5.629  0.00  0.00    +0.002 C 
ATOM     28  C   UNL     1      -9.151   6.129  -5.531  0.00  0.00    +0.022 C 
ENDBRANCH  21  23
ENDBRANCH  11  19
ENDBRANCH   1  11
BRANCH   2  29
ATOM     29  C   UNL     1      -2.879   4.304  -0.919  0.00  0.00    +0.242 C 
BRANCH  29  30
ATOM     30  N   UNL     1      -1.552   4.524  -1.498  0.00  0.00    -0.235 N 
ATOM     31  C   UNL     1      -0.621   3.561  -1.809  0.00  0.00    +0.090 A 
ATOM     32  C   UNL     1      -0.594   2.174  -1.708  0.00  0.00    +0.029 A 
ATOM     33  C   UNL     1       0.515   1.485  -2.112  0.00  0.00    +0.002 A 
ATOM     34  C   UNL     1       1.614   2.157  -2.633  0.00  0.00    +0.002 A 
ATOM     35  C   UNL     1       1.611   3.517  -2.747  0.00  0.00    +0.032 A 
ATOM     36  C   UNL     1       0.488   4.247  -2.335  0.00  0.00    +0.113 A 
ATOM     37  N   UNL     1       0.197   5.563  -2.325  0.00  0.00    -0.129 NA
ATOM     38  N   UNL     1      -0.980   5.757  -1.844  0.00  0.00    -0.064 NA
ENDBRANCH  29  30
ENDBRANCH   2  29
TORSDOF 7
