REMARK  Name = ZINC20080047
REMARK  11 active torsions:
REMARK  status: ('A' for Active; 'I' for Inactive)
REMARK    1  A    between atoms: C_1  and  C_2
REMARK    2  A    between atoms: C_2  and  C_3
REMARK    3  A    between atoms: C_3  and  C_4
REMARK    4  A    between atoms: C_3  and  C_5
REMARK    5  A    between atoms: C_3  and  N_6
REMARK    6  A    between atoms: C_7  and  C_11
REMARK    7  A    between atoms: C_11  and  C_13
REMARK    8  A    between atoms: C_11  and  N_27
REMARK    9  A    between atoms: C_17  and  O_25
REMARK   10  A    between atoms: O_25  and  C_26
REMARK   11  A    between atoms: N_30  and  C_33
REMARK                            x       y       z     vdW  Elec       q    Type
REMARK                         _______ _______ _______ _____ _____    ______ ____
ROOT
ATOM      1  C   UNL     1       2.230   0.942   0.122  0.00  0.00    +0.162 C 
ENDROOT
BRANCH   1   2
ATOM      2  C   UNL     1       1.073   1.871   0.383  0.00  0.00    +0.042 A 
ATOM      3  C   UNL     1      -0.150   1.363   0.674  0.00  0.00    +0.021 A 
ATOM      4  C   UNL     1      -1.255   2.292   0.917  0.00  0.00    +0.002 A 
ATOM      5  C   UNL     1      -2.539   1.825   1.216  0.00  0.00    +0.055 A 
ATOM      6  C   UNL     1      -3.558   2.729   1.439  0.00  0.00    +0.121 A 
ATOM      7  C   UNL     1      -3.312   4.098   1.367  0.00  0.00    +0.047 A 
ATOM      8  C   UNL     1      -2.049   4.571   1.085  0.00  0.00    +0.030 A 
ATOM      9  C   UNL     1      -1.009   3.677   0.852  0.00  0.00    +0.049 A 
ATOM     10  N   UNL     1       0.259   4.130   0.550  0.00  0.00    -0.322 N 
ATOM     11  H   UNL     1       0.458   5.210   0.493  0.00  0.00    +0.169 HD
ATOM     12  C   UNL     1       1.266   3.268   0.323  0.00  0.00    +0.254 A 
ATOM     13  O   UNL     1       2.373   3.704   0.059  0.00  0.00    -0.268 OA
BRANCH   6  14
ATOM     14  O   UNL     1      -4.808   2.281   1.730  0.00  0.00    -0.495 OA
ATOM     15  C   UNL     1      -5.816   3.269   1.950  0.00  0.00    +0.277 C 
ENDBRANCH   6  14
ENDBRANCH   1   2
BRANCH   1  16
ATOM     16  N   UNL     1       2.823   1.254  -1.186  0.00  0.00    -0.286 NA
ATOM     17  C   UNL     1       1.837   1.092  -2.263  0.00  0.00    +0.104 C 
ATOM     18  C   UNL     1       2.470   1.502  -3.595  0.00  0.00    +0.120 C 
ATOM     19  N   UNL     1       3.659   0.674  -3.845  0.00  0.00    -0.327 N 
ATOM     20  C   UNL     1       4.645   0.836  -2.767  0.00  0.00    +0.120 C 
ATOM     21  C   UNL     1       4.012   0.427  -1.435  0.00  0.00    +0.104 C 
BRANCH  19  22
ATOM     22  C   UNL     1       4.223   0.971  -5.088  0.00  0.00    +0.031 A 
ATOM     23  C   UNL     1       5.553   1.364  -5.173  0.00  0.00    +0.023 A 
ATOM     24  C   UNL     1       6.109   1.651  -6.404  0.00  0.00    +0.003 A 
ATOM     25  C   UNL     1       5.342   1.559  -7.550  0.00  0.00    +0.020 A 
ATOM     26  C   UNL     1       4.015   1.173  -7.469  0.00  0.00    +0.043 A 
ATOM     27  C   UNL     1       3.454   0.879  -6.241  0.00  0.00    +0.043 A 
ATOM     28 CL   UNL     1       3.055   1.059  -8.911  0.00  0.00    -0.083 Cl
ENDBRANCH  19  22
ENDBRANCH   1  16
BRANCH   1  30
ATOM     29  N   UNL     1       3.590   0.230   2.159  0.00  0.00    -0.222 N 
ATOM     30  C   UNL     1       3.269   1.118   1.199  0.00  0.00    +0.174 A 
ATOM     31  N   UNL     1       4.039   2.163   1.381  0.00  0.00    -0.111 NA
ATOM     32  N   UNL     1       4.788   1.932   2.403  0.00  0.00    -0.023 NA
ATOM     33  N   UNL     1       4.521   0.763   2.874  0.00  0.00    -0.043 NA
BRANCH  29  34
ATOM     34  C   UNL     1       2.993  -1.094   2.353  0.00  0.00    +0.062 C 
ATOM     35  C   UNL     1       1.481  -0.951   2.536  0.00  0.00    +0.036 C 
ATOM     36  C   UNL     1       3.278  -1.967   1.130  0.00  0.00    +0.036 C 
BRANCH  34  38
ATOM     37  C   UNL     1       2.975  -3.130   3.802  0.00  0.00    +0.006 C 
ATOM     38  C   UNL     1       3.598  -1.747   3.598  0.00  0.00    +0.026 C 
ENDBRANCH  34  38
ENDBRANCH  29  34
ENDBRANCH   1  30
TORSDOF 7
