REMARK  Name = ZINC21245515
REMARK  7 active torsions:
REMARK  status: ('A' for Active; 'I' for Inactive)
REMARK    1  A    between atoms: C_1  and  C_2
REMARK    2  A    between atoms: C_3  and  N_9
REMARK    3  A    between atoms: C_10  and  C_28
REMARK    4  A    between atoms: C_13  and  S_14
REMARK    5  A    between atoms: S_14  and  C_15
REMARK    6  A    between atoms: C_15  and  C_16
REMARK    7  A    between atoms: N_18  and  C_19
REMARK                            x       y       z     vdW  Elec       q    Type
REMARK                         _______ _______ _______ _____ _____    ______ ____
ROOT
ATOM      1  N   UNL     1      -0.017   1.375   0.040  0.00  0.00    -0.270 N 
ATOM      2  C   UNL     1       0.002  -0.003   0.042  0.00  0.00    +0.169 A 
ATOM      3  N   UNL     1       1.262  -0.371   0.028  0.00  0.00    -0.128 NA
ATOM      4  N   UNL     1       2.023   0.664   0.018  0.00  0.00    -0.122 NA
ATOM      5  C   UNL     1       1.295   1.760   0.025  0.00  0.00    +0.197 A 
ENDROOT
BRANCH   1   8
ATOM      6  C   UNL     1      -1.116   2.171  -2.462  0.00  0.00    +0.047 C 
ATOM      7  C   UNL     1      -1.712   2.618  -1.152  0.00  0.00    -0.008 A 
ATOM      8  C   UNL     1      -1.145   2.207   0.046  0.00  0.00    +0.055 A 
ATOM      9  C   UNL     1      -1.700   2.617   1.251  0.00  0.00    +0.026 A 
ATOM     10  C   UNL     1      -2.808   3.442   1.254  0.00  0.00    +0.003 A 
ATOM     11  C   UNL     1      -3.372   3.850   0.060  0.00  0.00    +0.020 A 
ATOM     12  C   UNL     1      -2.825   3.438  -1.143  0.00  0.00    +0.046 A 
ATOM     13 CL   UNL     1      -3.535   3.954  -2.640  0.00  0.00    -0.083 Cl
ENDBRANCH   1   8
BRANCH   2  14
ATOM     14  C   UNL     1      -1.174  -0.897   0.056  0.00  0.00    +0.022 A 
ATOM     15  C   UNL     1      -2.445  -0.410   0.387  0.00  0.00    +0.031 A 
ATOM     16  C   UNL     1      -3.515  -1.279   0.383  0.00  0.00    +0.111 A 
ATOM     17  N   UNL     1      -3.352  -2.554   0.085  0.00  0.00    -0.263 NA
ATOM     18  C   UNL     1      -2.172  -3.056  -0.228  0.00  0.00    +0.111 A 
ATOM     19  C   UNL     1      -1.048  -2.257  -0.254  0.00  0.00    +0.031 A 
ENDBRANCH   2  14
BRANCH   5  20
ATOM     20  S   UNL     1       1.898   3.416   0.015  0.00  0.00    -0.076 S 
BRANCH  20  21
ATOM     21  C   UNL     1       3.680   3.101  -0.004  0.00  0.00    +0.173 C 
BRANCH  21  22
ATOM     22  C   UNL     1       4.422   4.413  -0.014  0.00  0.00    +0.228 C 
ATOM     23  O   UNL     1       3.806   5.458  -0.009  0.00  0.00    -0.275 OA
ATOM     24  N   UNL     1       5.769   4.425  -0.029  0.00  0.00    -0.283 N 
ATOM     25  H   UNL     1       6.329   3.481   0.041  0.00  0.00    +0.155 HD
BRANCH  24  26
ATOM     26  C   UNL     1       6.456   5.637  -0.135  0.00  0.00    +0.062 A 
ATOM     27  C   UNL     1       5.956   6.757   0.456  0.00  0.00    +0.025 A 
ATOM     28  C   UNL     1       6.617   7.981   0.369  0.00  0.00    +0.004 A 
ATOM     29  C   UNL     1       7.784   8.112  -0.305  0.00  0.00    +0.031 A 
ATOM     30  C   UNL     1       8.367   6.987  -0.947  0.00  0.00    +0.102 A 
ATOM     31  C   UNL     1       7.683   5.702  -0.856  0.00  0.00    +0.121 A 
ATOM     32  N   UNL     1       8.341   4.738  -1.495  0.00  0.00    -0.189 NA
ATOM     33  S   UNL     1       9.624   5.407  -2.096  0.00  0.00    +0.117 S 
ATOM     34  N   UNL     1       9.494   6.904  -1.651  0.00  0.00    -0.191 NA
ENDBRANCH  24  26
ENDBRANCH  21  22
ENDBRANCH  20  21
ENDBRANCH   5  20
TORSDOF 6
