REMARK  Name = ZINC53097649
REMARK  3 active torsions:
REMARK  status: ('A' for Active; 'I' for Inactive)
REMARK    1  A    between atoms: C_3  and  S_18
REMARK    2  A    between atoms: C_6  and  N_7
REMARK    3  A    between atoms: S_18  and  N_21
REMARK                            x       y       z     vdW  Elec       q    Type
REMARK                         _______ _______ _______ _____ _____    ______ ____
ROOT
ATOM      1  C   UNL     1      -0.017   1.392   0.010  0.00  0.00    +0.030 A 
ATOM      2  C   UNL     1       1.170   2.095   0.002  0.00  0.00    +0.030 A 
ATOM      3  C   UNL     1       2.378   1.419  -0.013  0.00  0.00    +0.105 A 
ATOM      4  C   UNL     1       2.404   0.036  -0.021  0.00  0.00    +0.030 A 
ATOM      5  C   UNL     1       1.224  -0.679  -0.013  0.00  0.00    +0.030 A 
ATOM      6  C   UNL     1       0.002  -0.004   0.002  0.00  0.00    +0.067 A 
ENDROOT
BRANCH   6   7
ATOM      7  N   UNL     1      -1.173  -0.708   0.009  0.00  0.00    -0.226 NA
ATOM      8  C   UNL     1      -1.330  -1.732  -0.799  0.00  0.00    +0.155 C 
ATOM      9  N   UNL     1      -2.431  -2.541  -0.931  0.00  0.00    -0.317 N 
ATOM     10  C   UNL     1      -2.301  -3.827  -1.597  0.00  0.00    +0.043 C 
ATOM     11  C   UNL     1      -3.253  -3.883  -2.799  0.00  0.00    +0.026 C 
ATOM     12  C   UNL     1      -4.692  -3.692  -2.316  0.00  0.00    +0.002 C 
ATOM     13  C   UNL     1      -5.054  -4.809  -1.335  0.00  0.00    +0.000 C 
ATOM     14  C   UNL     1      -4.104  -4.761  -0.137  0.00  0.00    +0.002 C 
ATOM     15  C   UNL     1      -2.665  -4.952  -0.619  0.00  0.00    +0.026 C 
ATOM     16  C   UNL     1      -0.863  -4.086  -2.112  0.00  0.00    +0.102 C 
ATOM     17  S   UNL     1      -0.164  -2.384  -1.985  0.00  0.00    -0.088 S 
ATOM     18  H   UNL     1      -3.290  -2.257  -0.582  0.00  0.00    +0.149 HD
ENDBRANCH   6   7
BRANCH   3  19
ATOM     19  S   UNL     1       3.889   2.325  -0.024  0.00  0.00    +0.056 S 
ATOM     20  O   UNL     1       4.872   1.468  -0.589  0.00  0.00    -0.153 OA
ATOM     21  O   UNL     1       3.592   3.605  -0.566  0.00  0.00    -0.153 OA
BRANCH  19  22
ATOM     22  N   UNL     1       4.325   2.569   1.555  0.00  0.00    -0.204 NA
ATOM     23  H   UNL     1       5.263   2.638   1.794  0.00  0.00    +0.144 HD
ATOM     24  H   UNL     1       3.643   2.642   2.240  0.00  0.00    +0.144 HD
ENDBRANCH  19  22
ENDBRANCH   3  19
TORSDOF 3
