REMARK  Name = ZINC43210923
REMARK  6 active torsions:
REMARK  status: ('A' for Active; 'I' for Inactive)
REMARK    1  A    between atoms: C_1  and  C_2
REMARK    2  A    between atoms: C_7  and  N_8
REMARK    3  A    between atoms: C_13  and  C_25
REMARK    4  A    between atoms: N_15  and  C_21
REMARK    5  A    between atoms: C_21  and  C_22
REMARK    6  A    between atoms: C_28  and  C_31
REMARK                            x       y       z     vdW  Elec       q    Type
REMARK                         _______ _______ _______ _____ _____    ______ ____
ROOT
ATOM      1  N   UNL     1       0.025  -0.013   2.419  0.00  0.00    -0.208 N 
ATOM      2  C   UNL     1      -1.116   0.342   3.093  0.00  0.00    +0.234 C 
ATOM      3  O   UNL     1      -2.246  -0.048   2.890  0.00  0.00    -0.274 OA
ATOM      4  C   UNL     1      -0.676   1.282   4.098  0.00  0.00    +0.139 C 
ATOM      5  C   UNL     1      -1.133   1.827   5.387  0.00  0.00    +0.130 C 
ATOM      6  N   UNL     1       0.149   2.305   6.008  0.00  0.00    -0.170 NA
ATOM      7  O   UNL     1       1.252   1.911   5.082  0.00  0.00    -0.282 OA
ATOM      8  C   UNL     1       0.748   0.708   4.473  0.00  0.00    +0.242 C 
ATOM      9  C   UNL     1       1.163   0.375   3.066  0.00  0.00    +0.258 C 
ATOM     10  O   UNL     1       2.280   0.441   2.600  0.00  0.00    -0.272 OA
ENDROOT
BRANCH   1  17
ATOM     11  C   UNL     1      -0.018   1.503   0.010  0.00  0.00    +0.045 C 
ATOM     12  C   UNL     1       0.002  -0.004   0.002  0.00  0.00    -0.029 A 
ATOM     13  C   UNL     1       0.006  -0.689  -1.198  0.00  0.00    +0.005 A 
ATOM     14  C   UNL     1       0.025  -2.071  -1.206  0.00  0.00    +0.000 A 
ATOM     15  C   UNL     1       0.041  -2.773  -0.014  0.00  0.00    +0.002 A 
ATOM     16  C   UNL     1       0.037  -2.094   1.188  0.00  0.00    +0.024 A 
ATOM     17  C   UNL     1       0.023  -0.705   1.200  0.00  0.00    +0.047 A 
ENDBRANCH   1  17
BRANCH   5  18
ATOM     18  C   UNL     1      -2.090   2.972   5.175  0.00  0.00    -0.027 A 
ATOM     19  C   UNL     1      -1.602   4.230   4.867  0.00  0.00    +0.006 A 
ATOM     20  C   UNL     1      -2.473   5.282   4.672  0.00  0.00    +0.009 A 
ATOM     21  C   UNL     1      -3.846   5.076   4.785  0.00  0.00    -0.018 A 
ATOM     22  C   UNL     1      -4.332   3.808   5.095  0.00  0.00    +0.009 A 
ATOM     23  C   UNL     1      -3.452   2.761   5.283  0.00  0.00    +0.006 A 
BRANCH  21  24
ATOM     24  C   UNL     1      -4.788   6.204   4.577  0.00  0.00    -0.018 A 
ATOM     25  C   UNL     1      -4.303   7.471   4.262  0.00  0.00    +0.008 A 
ATOM     26  C   UNL     1      -5.183   8.517   4.069  0.00  0.00    +0.001 A 
ATOM     27  C   UNL     1      -6.545   8.308   4.188  0.00  0.00    +0.000 A 
ATOM     28  C   UNL     1      -7.033   7.052   4.501  0.00  0.00    +0.001 A 
ATOM     29  C   UNL     1      -6.162   5.998   4.690  0.00  0.00    +0.008 A 
ENDBRANCH  21  24
ENDBRANCH   5  18
BRANCH   6  30
ATOM     30  C   UNL     1       0.342   1.712   7.339  0.00  0.00    +0.210 C 
BRANCH  30  31
ATOM     31  C   UNL     1       1.496   2.392   8.029  0.00  0.00    +0.227 C 
ATOM     32  O   UNL     1       2.099   3.283   7.468  0.00  0.00    -0.275 OA
ATOM     33  N   UNL     1       1.859   2.011   9.270  0.00  0.00    -0.328 N 
ATOM     34  H   UNL     1       1.377   1.298   9.718  0.00  0.00    +0.145 HD
ATOM     35  H   UNL     1       2.602   2.449   9.714  0.00  0.00    +0.145 HD
ENDBRANCH  30  31
ENDBRANCH   6  30
TORSDOF 5
