REMARK  Name = ZINC13035865
REMARK  9 active torsions:
REMARK  status: ('A' for Active; 'I' for Inactive)
REMARK    1  A    between atoms: C_1  and  C_2
REMARK    2  A    between atoms: C_2  and  N_3
REMARK    3  A    between atoms: C_7  and  C_24
REMARK    4  A    between atoms: C_11  and  C_12
REMARK    5  A    between atoms: C_12  and  S_13
REMARK    6  A    between atoms: S_13  and  C_14
REMARK    7  A    between atoms: C_17  and  S_19
REMARK    8  A    between atoms: S_19  and  C_20
REMARK    9  A    between atoms: C_20  and  C_21
REMARK                            x       y       z     vdW  Elec       q    Type
REMARK                         _______ _______ _______ _____ _____    ______ ____
ROOT
ATOM      1  N   UNL     1       1.679   7.166   0.023  0.00  0.00    -0.327 N 
ATOM      2  C   UNL     1       1.314   5.837   0.020  0.00  0.00    +0.069 A 
ATOM      3  C   UNL     1       0.091   5.174   0.029  0.00  0.00    +0.029 A 
ATOM      4  C   UNL     1       0.051   3.811   0.016  0.00  0.00    +0.017 A 
ATOM      5  C   UNL     1       1.238   3.065   0.007  0.00  0.00    +0.065 A 
ATOM      6  C   UNL     1       2.471   3.712  -0.002  0.00  0.00    +0.045 A 
ATOM      7  C   UNL     1       2.515   5.105   0.005  0.00  0.00    +0.090 A 
ATOM      8  N   UNL     1       3.529   6.009   0.000  0.00  0.00    -0.231 NA
ATOM      9  C   UNL     1       3.039   7.214   0.011  0.00  0.00    +0.121 A 
ENDROOT
BRANCH   5  10
ATOM     10  C   UNL     1       1.181   1.591  -0.001  0.00  0.00    +0.387 C 
ATOM     11  O   UNL     1       2.209   0.943  -0.014  0.00  0.00    -0.241 OA
ATOM     12  O   UNL     1      -0.011   0.963   0.007  0.00  0.00    -0.241 OA
ENDBRANCH   5  10
BRANCH   1  14
ATOM     13  C   UNL     1       0.442   8.723  -1.399  0.00  0.00    +0.027 C 
ATOM     14  C   UNL     1       0.771   8.315   0.038  0.00  0.00    +0.120 C 
ENDBRANCH   1  14
BRANCH   9  15
ATOM     15  C   UNL     1       3.858   8.479   0.010  0.00  0.00    +0.150 C 
BRANCH  15  16
ATOM     16  S   UNL     1       4.171   8.996  -1.700  0.00  0.00    -0.089 S 
BRANCH  16  17
ATOM     17  C   UNL     1       5.126  10.467  -1.533  0.00  0.00    +0.160 A 
ATOM     18  N   UNL     1       5.536  11.078  -0.438  0.00  0.00    -0.134 NA
ATOM     19  N   UNL     1       6.281  12.230  -0.534  0.00  0.00    -0.134 NA
ATOM     20  C   UNL     1       6.582  12.719  -1.722  0.00  0.00    +0.160 A 
ATOM     21  S   UNL     1       5.805  11.526  -2.801  0.00  0.00    -0.033 S 
BRANCH  20  22
ATOM     22  S   UNL     1       7.511  14.159  -2.134  0.00  0.00    -0.088 S 
BRANCH  22  23
ATOM     23  C   UNL     1       7.981  14.853  -0.525  0.00  0.00    +0.171 C 
BRANCH  23  24
ATOM     24  C   UNL     1       8.791  16.106  -0.736  0.00  0.00    +0.221 C 
ATOM     25  O   UNL     1       9.027  16.493  -1.861  0.00  0.00    -0.275 OA
ATOM     26  N   UNL     1       9.252  16.797   0.325  0.00  0.00    -0.329 N 
ATOM     27  H   UNL     1       9.063  16.488   1.225  0.00  0.00    +0.145 HD
ATOM     28  H   UNL     1       9.773  17.604   0.189  0.00  0.00    +0.145 HD
ENDBRANCH  23  24
ENDBRANCH  22  23
ENDBRANCH  20  22
ENDBRANCH  16  17
ENDBRANCH  15  16
ENDBRANCH   9  15
TORSDOF 8
