REMARK  Name = ZINC13221125
REMARK  9 active torsions:
REMARK  status: ('A' for Active; 'I' for Inactive)
REMARK    1  A    between atoms: C_4  and  C_7
REMARK    2  A    between atoms: C_7  and  C_9
REMARK    3  A    between atoms: C_14  and  N_15
REMARK    4  A    between atoms: C_16  and  C_18
REMARK    5  A    between atoms: C_18  and  S_19
REMARK    6  A    between atoms: S_19  and  C_20
REMARK    7  A    between atoms: N_30  and  C_31
REMARK    8  A    between atoms: C_31  and  C_32
REMARK    9  A    between atoms: C_32  and  C_33
REMARK                            x       y       z     vdW  Elec       q    Type
REMARK                         _______ _______ _______ _____ _____    ______ ____
ROOT
ATOM      1  N   UNL     1      -2.997  -4.567   3.617  0.00  0.00    -0.284 N 
ATOM      2  C   UNL     1      -2.795  -3.403   2.968  0.00  0.00    +0.228 C 
ATOM      3  O   UNL     1      -3.455  -3.133   1.987  0.00  0.00    -0.275 OA
ATOM      4  H   UNL     1      -2.413  -4.822   4.348  0.00  0.00    +0.155 HD
ENDROOT
BRANCH   1  10
ATOM      5  C   UNL     1      -3.975  -6.781   3.498  0.00  0.00    +0.043 A 
ATOM      6  C   UNL     1      -5.036  -7.609   3.116  0.00  0.00    +0.013 A 
ATOM      7  C   UNL     1      -6.132  -7.071   2.479  0.00  0.00    +0.001 A 
ATOM      8  C   UNL     1      -6.193  -5.710   2.219  0.00  0.00    +0.002 A 
ATOM      9  C   UNL     1      -5.157  -4.880   2.595  0.00  0.00    +0.024 A 
ATOM     10  C   UNL     1      -4.043  -5.403   3.238  0.00  0.00    +0.044 A 
BRANCH   5  11
ATOM     11  C   UNL     1      -2.796  -7.351   4.175  0.00  0.00    +0.195 C 
ATOM     12  O   UNL     1      -2.886  -7.748   5.320  0.00  0.00    -0.287 OA
BRANCH  11  16
ATOM     13  C   UNL     1       0.914  -7.604   2.122  0.00  0.00    +0.000 A 
ATOM     14  C   UNL     1       0.840  -7.958   3.458  0.00  0.00    +0.001 A 
ATOM     15  C   UNL     1      -0.361  -7.878   4.130  0.00  0.00    +0.012 A 
ATOM     16  C   UNL     1      -1.505  -7.439   3.460  0.00  0.00    +0.022 A 
ATOM     17  C   UNL     1      -1.425  -7.088   2.111  0.00  0.00    +0.012 A 
ATOM     18  C   UNL     1      -0.216  -7.167   1.452  0.00  0.00    +0.001 A 
ENDBRANCH  11  16
ENDBRANCH   5  11
ENDBRANCH   1  10
BRANCH   2  19
ATOM     19  C   UNL     1      -1.748  -2.437   3.461  0.00  0.00    +0.173 C 
BRANCH  19  20
ATOM     20  S   UNL     1      -1.719  -0.980   2.387  0.00  0.00    -0.078 S 
BRANCH  20  21
ATOM     21  C   UNL     1      -0.446  -0.048   3.171  0.00  0.00    +0.173 A 
ATOM     22  N   UNL     1       0.137  -0.554   4.230  0.00  0.00    -0.223 NA
ATOM     23  C   UNL     1       1.114   0.107   4.883  0.00  0.00    +0.079 A 
ATOM     24  C   UNL     1       1.731  -0.430   6.016  0.00  0.00    +0.028 A 
ATOM     25  C   UNL     1       2.717   0.275   6.647  0.00  0.00    +0.002 A 
ATOM     26  C   UNL     1       3.117   1.520   6.179  0.00  0.00    +0.001 A 
ATOM     27  C   UNL     1       2.533   2.071   5.073  0.00  0.00    +0.015 A 
ATOM     28  C   UNL     1       1.524   1.374   4.409  0.00  0.00    +0.065 A 
ATOM     29  C   UNL     1       0.860   1.918   3.217  0.00  0.00    +0.262 A 
ATOM     30  O   UNL     1       1.169   3.003   2.761  0.00  0.00    -0.267 OA
ATOM     31  N   UNL     1      -0.108   1.166   2.643  0.00  0.00    -0.287 N 
BRANCH  31  32
ATOM     32  C   UNL     1      -0.804   1.660   1.452  0.00  0.00    +0.138 C 
BRANCH  32  33
ATOM     33  C   UNL     1      -0.058   1.199   0.199  0.00  0.00    +0.147 C 
BRANCH  33  34
ATOM     34  C   UNL     1      -0.773   1.707  -1.027  0.00  0.00    +0.358 C 
ATOM     35  O   UNL     1      -1.776   2.370  -0.909  0.00  0.00    -0.246 OA
ATOM     36  O   UNL     1      -0.295   1.423  -2.249  0.00  0.00    -0.246 OA
ENDBRANCH  33  34
ENDBRANCH  32  33
ENDBRANCH  31  32
ENDBRANCH  20  21
ENDBRANCH  19  20
ENDBRANCH   2  19
TORSDOF 9
