REMARK  Name = ZINC19326191
REMARK  4 active torsions:
REMARK  status: ('A' for Active; 'I' for Inactive)
REMARK    1  A    between atoms: C_4  and  C_7
REMARK    2  A    between atoms: C_7  and  C_20
REMARK    3  A    between atoms: N_8  and  N_9
REMARK    4  A    between atoms: C_10  and  C_11
REMARK                            x       y       z     vdW  Elec       q    Type
REMARK                         _______ _______ _______ _____ _____    ______ ____
ROOT
ATOM      1  C   UNL     1      -4.243   0.981   0.060  0.00  0.00    +0.077 C 
ATOM      2  N   UNL     1      -4.655   0.220   1.041  0.00  0.00    -0.153 NA
ENDROOT
BRANCH   1   3
ATOM      3  C   UNL     1      -2.795   1.391  -0.017  0.00  0.00    +0.026 C 
ATOM      4  C   UNL     1      -2.113   0.789  -1.258  0.00  0.00    -0.059 C 
ATOM      5  N   UNL     1      -0.706   1.226  -1.274  0.00  0.00    +0.397 N 
ATOM      6  C   UNL     1      -0.009   0.746  -0.069  0.00  0.00    +0.011 C 
ATOM      7  N   UNL     1      -0.635   1.346   1.120  0.00  0.00    -0.305 NA
ATOM      8  C   UNL     1      -2.039   0.915   1.231  0.00  0.00    +0.096 C 
ATOM      9  C   UNL     1      -0.559   2.815   1.053  0.00  0.00    +0.167 C 
ATOM     10  N   UNL     1      -1.251   3.277  -0.161  0.00  0.00    -0.305 NA
ATOM     11  C   UNL     1      -2.679   2.920  -0.101  0.00  0.00    +0.096 C 
ATOM     12  C   UNL     1      -0.628   2.693  -1.360  0.00  0.00    +0.011 C 
ATOM     13  H   UNL     1      -0.213   0.796  -2.158  0.00  0.00    -0.078 HD
ENDBRANCH   1   3
BRANCH   1  17
ATOM     14  C   UNL     1      -6.980   2.291  -2.902  0.00  0.00    +0.000 A 
ATOM     15  C   UNL     1      -5.881   1.533  -3.268  0.00  0.00    +0.001 A 
ATOM     16  C   UNL     1      -4.986   1.103  -2.310  0.00  0.00    +0.010 A 
ATOM     17  C   UNL     1      -5.192   1.435  -0.967  0.00  0.00    -0.001 A 
ATOM     18  C   UNL     1      -6.309   2.196  -0.606  0.00  0.00    +0.010 A 
ATOM     19  C   UNL     1      -7.191   2.623  -1.575  0.00  0.00    +0.001 A 
ENDBRANCH   1  17
BRANCH   2  20
ATOM     20  N   UNL     1      -5.868  -0.218   1.050  0.00  0.00    -0.157 NA
ATOM     21  C   UNL     1      -6.253  -1.057   1.978  0.00  0.00    +0.143 C 
BRANCH  21  22
ATOM     22  C   UNL     1      -7.599  -1.642   1.926  0.00  0.00    -0.002 A 
ATOM     23  C   UNL     1      -8.436  -1.385   0.833  0.00  0.00    +0.013 A 
ATOM     24  C   UNL     1      -9.695  -1.939   0.785  0.00  0.00    +0.050 A 
ATOM     25  C   UNL     1     -10.145  -2.745   1.823  0.00  0.00    +0.166 A 
ATOM     26  C   UNL     1      -9.319  -3.002   2.918  0.00  0.00    +0.167 A 
ATOM     27  C   UNL     1      -8.053  -2.455   2.972  0.00  0.00    +0.059 A 
ATOM     28  O   UNL     1      -9.990  -3.813   3.788  0.00  0.00    -0.453 OA
ATOM     29  C   UNL     1     -11.073  -4.381   3.027  0.00  0.00    +0.466 C 
ATOM     30  O   UNL     1     -11.330  -3.395   2.010  0.00  0.00    -0.453 OA
ENDBRANCH  21  22
ENDBRANCH   2  20
TORSDOF 4
