REMARK  Name = ZINC39710211
REMARK  11 active torsions:
REMARK  status: ('A' for Active; 'I' for Inactive)
REMARK    1  A    between atoms: C_1  and  C_2
REMARK    2  A    between atoms: C_9  and  C_14
REMARK    3  A    between atoms: C_14  and  C_16
REMARK    4  A    between atoms: C_14  and  N_26
REMARK    5  A    between atoms: N_21  and  C_22
REMARK    6  A    between atoms: C_22  and  C_23
REMARK    7  A    between atoms: C_22  and  C_24
REMARK    8  A    between atoms: C_22  and  C_25
REMARK    9  A    between atoms: N_29  and  C_32
REMARK   10  A    between atoms: C_36  and  C_39
REMARK   11  A    between atoms: C_37  and  C_38
REMARK                            x       y       z     vdW  Elec       q    Type
REMARK                         _______ _______ _______ _____ _____    ______ ____
ROOT
ATOM      1  C   UNL     1       1.319  -4.874   2.934  0.00  0.00    -0.009 C 
ENDROOT
BRANCH   1  10
ATOM      2  C   UNL     1      -5.483  -4.295   5.031  0.00  0.00    +0.044 C 
ATOM      3  C   UNL     1      -4.247  -3.805   4.322  0.00  0.00    -0.050 A 
ATOM      4  C   UNL     1      -4.096  -2.439   4.077  0.00  0.00    +0.005 A 
ATOM      5  C   UNL     1      -3.010  -1.924   3.445  0.00  0.00    +0.024 A 
ATOM      6  C   UNL     1      -1.973  -2.767   3.004  0.00  0.00    +0.040 A 
ATOM      7  N   UNL     1      -0.912  -2.250   2.385  0.00  0.00    -0.285 N 
ATOM      8  C   UNL     1       0.096  -2.985   1.945  0.00  0.00    +0.223 C 
ATOM      9  O   UNL     1       1.039  -2.456   1.387  0.00  0.00    -0.275 OA
ATOM     10  C   UNL     1       0.072  -4.484   2.138  0.00  0.00    +0.088 C 
ATOM     11  C   UNL     1      -1.133  -5.077   2.842  0.00  0.00    -0.006 C 
ATOM     12  C   UNL     1      -2.106  -4.214   3.249  0.00  0.00    -0.007 A 
ATOM     13  C   UNL     1      -3.300  -4.701   3.940  0.00  0.00    +0.012 A 
ATOM     14  H   UNL     1      -0.877  -1.290   2.251  0.00  0.00    +0.155 HD
ENDBRANCH   1  10
BRANCH   1  15
ATOM     15  N   UNL     1       1.362  -6.334   3.093  0.00  0.00    +0.387 N 
ATOM     16  C   UNL     1       2.566  -6.708   3.846  0.00  0.00    -0.059 C 
ATOM     17  C   UNL     1       2.553  -8.217   4.111  0.00  0.00    +0.086 C 
ATOM     18  N   UNL     1       2.399  -8.915   2.826  0.00  0.00    -0.333 N 
ATOM     19  C   UNL     1       1.311  -8.490   1.931  0.00  0.00    +0.086 C 
ATOM     20  C   UNL     1       1.383  -6.968   1.769  0.00  0.00    -0.059 C 
ATOM     21  H   UNL     1       0.544  -6.640   3.598  0.00  0.00    -0.081 HD
BRANCH  18  22
ATOM     22  C   UNL     1       3.262  -9.953   2.464  0.00  0.00    +0.033 A 
ATOM     23  C   UNL     1       2.951 -11.265   2.799  0.00  0.00    +0.023 A 
ATOM     24  C   UNL     1       3.805 -12.288   2.440  0.00  0.00    +0.002 A 
ATOM     25  C   UNL     1       4.970 -12.008   1.748  0.00  0.00    +0.004 A 
ATOM     26  C   UNL     1       5.283 -10.704   1.414  0.00  0.00    -0.046 A 
ATOM     27  C   UNL     1       4.429  -9.676   1.765  0.00  0.00    -0.027 A 
ATOM     28  C   UNL     1       4.767  -8.255   1.394  0.00  0.00    +0.046 C 
ATOM     29  C   UNL     1       6.553 -10.403   0.661  0.00  0.00    +0.044 C 
ENDBRANCH  18  22
ENDBRANCH   1  15
BRANCH   1  30
ATOM     30  C   UNL     1       1.272  -4.213   4.313  0.00  0.00    +0.205 C 
ATOM     31  N   UNL     1       0.033  -4.575   5.014  0.00  0.00    -0.152 NA
ATOM     32  N   UNL     1      -0.614  -3.550   5.237  0.00  0.00    -0.070 NA
ATOM     33  N   UNL     1       0.017  -2.398   4.768  0.00  0.00    -0.179 N 
ATOM     34  N   UNL     1       1.207  -2.742   4.177  0.00  0.00    -0.183 NA
ATOM     35  H   UNL     1      -0.331  -1.496   4.846  0.00  0.00    +0.191 HD
BRANCH  34  36
ATOM     36  C   UNL     1       2.340  -2.100   4.857  0.00  0.00    +0.035 C 
ATOM     37  C   UNL     1       3.651  -2.593   4.241  0.00  0.00    +0.029 C 
ATOM     38  C   UNL     1       2.239  -0.582   4.695  0.00  0.00    +0.029 C 
ATOM     39  C   UNL     1       2.311  -2.458   6.345  0.00  0.00    +0.029 C 
ENDBRANCH  34  36
ENDBRANCH   1  30
TORSDOF 5
