REMARK  Name = ZINC05520185
REMARK  2 active torsions:
REMARK  status: ('A' for Active; 'I' for Inactive)
REMARK    1  A    between atoms: C_1  and  C_2
REMARK    2  A    between atoms: C_9  and  O_13
REMARK                            x       y       z     vdW  Elec       q    Type
REMARK                         _______ _______ _______ _____ _____    ______ ____
ROOT
ATOM      1  C   UNL     1      -2.902  -1.589   1.718  0.00  0.00    +0.051 C 
ATOM      2  C   UNL     1      -1.599  -1.024   1.214  0.00  0.00    +0.039 C 
ATOM      3  C   UNL     1      -1.407  -0.495  -0.017  0.00  0.00    +0.011 C 
ATOM      4  C   UNL     1      -2.449  -0.596  -1.076  0.00  0.00    +0.038 C 
ATOM      5  C   UNL     1      -2.262  -1.925  -1.838  0.00  0.00    +0.005 C 
ATOM      6  C   UNL     1      -0.908  -1.897  -2.480  0.00  0.00    +0.001 C 
ATOM      7  C   UNL     1       0.275  -1.896  -1.549  0.00  0.00    +0.007 C 
ATOM      8  C   UNL     1       0.744  -0.477  -1.266  0.00  0.00    +0.084 C 
ATOM      9  C   UNL     1       0.002  -0.004   0.002  0.00  0.00    +0.237 C 
ATOM     10  O   UNL     1       0.619  -0.459   1.221  0.00  0.00    -0.425 OA
ATOM     11  C   UNL     1      -0.356  -0.967   1.982  0.00  0.00    +0.338 C 
ATOM     12  O   UNL     1      -0.230  -1.324   3.138  0.00  0.00    -0.245 OA
ENDROOT
BRANCH   9  13
ATOM     13  O   UNL     1      -0.017   1.425   0.010  0.00  0.00    -0.352 OA
ATOM     14  H   UNL     1       0.861   1.830   0.004  0.00  0.00    +0.214 HD
ENDBRANCH   9  13
TORSDOF 1
