REMARK  Name = ZINC33435682
REMARK  9 active torsions:
REMARK  status: ('A' for Active; 'I' for Inactive)
REMARK    1  A    between atoms: C_1  and  O_2
REMARK    2  A    between atoms: O_2  and  C_3
REMARK    3  A    between atoms: C_5  and  N_11
REMARK    4  A    between atoms: C_7  and  O_9
REMARK    5  A    between atoms: O_9  and  C_10
REMARK    6  A    between atoms: C_12  and  C_14
REMARK    7  A    between atoms: C_14  and  N_19
REMARK    8  A    between atoms: N_19  and  C_20
REMARK    9  A    between atoms: C_20  and  C_21
REMARK                            x       y       z     vdW  Elec       q    Type
REMARK                         _______ _______ _______ _____ _____    ______ ____
ROOT
ATOM      1  C   UNL     1       1.805   3.938  -3.354  0.00  0.00    +0.113 C 
ATOM      2  C   UNL     1       0.648   4.530  -4.177  0.00  0.00    +0.035 C 
ATOM      3  C   UNL     1       0.800   3.982  -5.611  0.00  0.00    +0.003 C 
ATOM      4  C   UNL     1       1.615   2.676  -5.433  0.00  0.00    +0.003 C 
ATOM      5  C   UNL     1       2.621   3.050  -4.317  0.00  0.00    +0.035 C 
ENDROOT
BRANCH   1   7
ATOM      6  N   UNL     1       2.342   5.656  -1.657  0.00  0.00    -0.283 N 
ATOM      7  C   UNL     1       2.673   5.044  -2.812  0.00  0.00    +0.241 C 
ATOM      8  O   UNL     1       3.670   5.383  -3.414  0.00  0.00    -0.273 OA
ATOM      9  H   UNL     1       1.492   5.288  -1.064  0.00  0.00    +0.155 HD
BRANCH   6  12
ATOM     10  C   UNL     1       3.995   8.063   0.585  0.00  0.00    +0.125 A 
ATOM     11  C   UNL     1       3.264   6.970   0.146  0.00  0.00    +0.069 A 
ATOM     12  C   UNL     1       3.079   6.759  -1.214  0.00  0.00    +0.040 A 
ATOM     13  C   UNL     1       3.631   7.641  -2.133  0.00  0.00    +0.069 A 
ATOM     14  C   UNL     1       4.357   8.737  -1.693  0.00  0.00    +0.125 A 
ATOM     15  C   UNL     1       4.541   8.946  -0.335  0.00  0.00    +0.091 A 
BRANCH  10  17
ATOM     16  C   UNL     1       4.939   9.415   2.296  0.00  0.00    +0.277 C 
ATOM     17  O   UNL     1       4.176   8.269   1.915  0.00  0.00    -0.495 OA
ENDBRANCH  10  17
BRANCH  14  18
ATOM     18  O   UNL     1       4.893   9.603  -2.593  0.00  0.00    -0.495 OA
ATOM     19  C   UNL     1       5.633  10.707  -2.069  0.00  0.00    +0.277 C 
ENDBRANCH  14  18
ENDBRANCH   6  12
ENDBRANCH   1   7
BRANCH   1  20
ATOM     20  N   UNL     1       1.275   3.130  -2.253  0.00  0.00    -0.290 N 
ATOM     21  C   UNL     1       2.111   2.388  -1.500  0.00  0.00    +0.329 C 
ATOM     22  O   UNL     1       3.288   2.322  -1.785  0.00  0.00    -0.279 OA
BRANCH  20  23
ATOM     23  C   UNL     1      -0.162   3.129  -1.971  0.00  0.00    +0.110 C 
BRANCH  23  24
ATOM     24  C   UNL     1      -0.861   2.119  -2.883  0.00  0.00    -0.007 C 
ATOM     25  C   UNL     1      -0.360   0.710  -2.559  0.00  0.00    +0.002 C 
ATOM     26  C   UNL     1      -0.728   0.380  -1.109  0.00  0.00    -0.018 C 
ATOM     27  C   UNL     1      -2.244   0.479  -0.947  0.00  0.00    -0.078 C 
ATOM     28  N   UNL     1      -2.701   1.835  -1.279  0.00  0.00    +0.382 N 
ATOM     29  C   UNL     1      -2.375   2.196  -2.663  0.00  0.00    -0.064 C 
ATOM     30  C   UNL     1      -2.826   3.631  -2.955  0.00  0.00    -0.015 C 
ATOM     31  C   UNL     1      -4.328   3.765  -2.700  0.00  0.00    -0.003 C 
ATOM     32  C   UNL     1      -4.619   3.373  -1.248  0.00  0.00    -0.019 C 
ATOM     33  C   UNL     1      -4.146   1.938  -1.020  0.00  0.00    -0.078 C 
ATOM     34  H   UNL     1      -2.167   2.553  -0.640  0.00  0.00    -0.081 HD
ENDBRANCH  23  24
ENDBRANCH  20  23
ENDBRANCH   1  20
TORSDOF 7
