REMARK  Name = ZINC03340123
REMARK  7 active torsions:
REMARK  status: ('A' for Active; 'I' for Inactive)
REMARK    1  A    between atoms: C_11  and  C_13
REMARK    2  A    between atoms: C_13  and  O_14
REMARK    3  A    between atoms: O_14  and  C_15
REMARK    4  A    between atoms: C_15  and  C_17
REMARK    5  A    between atoms: C_22  and  N_23
REMARK    6  A    between atoms: N_23  and  S_24
REMARK    7  A    between atoms: S_24  and  C_27
REMARK                            x       y       z     vdW  Elec       q    Type
REMARK                         _______ _______ _______ _____ _____    ______ ____
ROOT
ATOM      1  C   UNL     1       1.894   5.638   0.284  0.00  0.00    +0.081 A 
ATOM      2  C   UNL     1       0.571   6.053   0.464  0.00  0.00    +0.017 A 
ATOM      3  C   UNL     1       0.277   7.395   0.549  0.00  0.00    +0.001 A 
ATOM      4  C   UNL     1       1.286   8.341   0.447  0.00  0.00    +0.002 A 
ATOM      5  C   UNL     1       2.596   7.949   0.264  0.00  0.00    +0.025 A 
ATOM      6  C   UNL     1       2.913   6.599   0.180  0.00  0.00    +0.062 A 
ENDROOT
BRANCH   1   7
ATOM      7  C   UNL     1       2.216   4.204   0.197  0.00  0.00    +0.341 C 
ATOM      8  O   UNL     1       3.367   3.848   0.035  0.00  0.00    -0.245 OA
BRANCH   7   9
ATOM      9  O   UNL     1       1.235   3.285   0.296  0.00  0.00    -0.452 OA
BRANCH   9  10
ATOM     10  C   UNL     1       1.625   1.890   0.202  0.00  0.00    +0.328 C 
BRANCH  10  21
ATOM     11  C   UNL     1       1.615  -4.121  -2.793  0.00  0.00    +0.000 A 
ATOM     12  C   UNL     1       2.838  -3.658  -2.343  0.00  0.00    +0.000 A 
ATOM     13  C   UNL     1       2.883  -2.635  -1.418  0.00  0.00    +0.005 A 
ATOM     14  C   UNL     1       1.711  -2.069  -0.935  0.00  0.00    -0.027 A 
ATOM     15  C   UNL     1       0.493  -2.524  -1.388  0.00  0.00    -0.041 A 
ATOM     16  C   UNL     1       0.451  -3.556  -2.317  0.00  0.00    +0.004 A 
ATOM     17  C   UNL     1      -0.819  -1.951  -0.920  0.00  0.00    +0.054 C 
ATOM     18  C   UNL     1      -0.646  -1.206   0.403  0.00  0.00    +0.113 C 
ATOM     19  N   UNL     1       0.526  -0.324   0.276  0.00  0.00    -0.294 N 
ATOM     20  C   UNL     1       1.831  -0.965   0.079  0.00  0.00    +0.143 C 
ATOM     21  C   UNL     1       0.405   1.017   0.334  0.00  0.00    +0.254 C 
ATOM     22  O   UNL     1      -0.688   1.520   0.488  0.00  0.00    -0.272 OA
ENDBRANCH  10  21
ENDBRANCH   9  10
ENDBRANCH   7   9
ENDBRANCH   1   7
BRANCH   6  23
ATOM     23  N   UNL     1       4.230   6.202  -0.004  0.00  0.00    -0.215 N 
ATOM     24  H   UNL     1       4.431   5.425  -0.549  0.00  0.00    +0.174 HD
BRANCH  23  25
ATOM     25  S   UNL     1       5.459   7.054   0.706  0.00  0.00    +0.079 S 
ATOM     26  O   UNL     1       6.656   6.333   0.449  0.00  0.00    -0.149 OA
ATOM     27  O   UNL     1       5.289   8.411   0.319  0.00  0.00    -0.149 OA
BRANCH  25  28
ATOM     28  C   UNL     1       5.198   6.991   2.448  0.00  0.00    +0.147 A 
ATOM     29  C   UNL     1       5.650   6.082   3.346  0.00  0.00    +0.038 A 
ATOM     30  C   UNL     1       5.316   6.234   4.679  0.00  0.00    +0.030 A 
ATOM     31  C   UNL     1       4.548   7.289   5.048  0.00  0.00    +0.080 A 
ATOM     32  S   UNL     1       4.277   8.113   3.487  0.00  0.00    -0.057 S 
ATOM     33 CL   UNL     1       3.980   7.728   6.629  0.00  0.00    -0.076 Cl
ENDBRANCH  25  28
ENDBRANCH  23  25
ENDBRANCH   6  23
TORSDOF 7
