REMARK  Name = ZINC20238791
REMARK  7 active torsions:
REMARK  status: ('A' for Active; 'I' for Inactive)
REMARK    1  A    between atoms: C_1  and  C_2
REMARK    2  A    between atoms: C_2  and  O_3
REMARK    3  A    between atoms: O_3  and  C_4
REMARK    4  A    between atoms: C_7  and  C_13
REMARK    5  A    between atoms: C_8  and  N_10
REMARK    6  A    between atoms: C_16  and  C_18
REMARK    7  A    between atoms: C_28  and  C_30
REMARK                            x       y       z     vdW  Elec       q    Type
REMARK                         _______ _______ _______ _____ _____    ______ ____
ROOT
ATOM      1  C   UNL     1      -3.334  -9.106   2.279  0.00  0.00    +0.063 C 
ATOM      2  C   UNL     1      -2.746 -10.314   2.647  0.00  0.00    +0.084 C 
ATOM      3  C   UNL     1      -1.456 -10.770   2.056  0.00  0.00    +0.153 C 
ATOM      4  N   UNL     1      -0.502  -9.955   1.704  0.00  0.00    -0.283 NA
ATOM      5  N   UNL     1      -1.366 -12.181   1.915  0.00  0.00    -0.151 N 
ATOM      6  C   UNL     1      -2.183 -12.947   2.738  0.00  0.00    +0.181 C 
ATOM      7  N   UNL     1      -3.086 -12.530   3.575  0.00  0.00    -0.152 NA
ATOM      8  C   UNL     1      -3.366 -11.208   3.647  0.00  0.00    +0.273 C 
ATOM      9  O   UNL     1      -4.111 -10.766   4.508  0.00  0.00    -0.268 OA
ATOM     10  S   UNL     1      -1.679 -14.594   2.309  0.00  0.00    -0.030 S 
ATOM     11  C   UNL     1      -0.507 -14.116   1.041  0.00  0.00    +0.165 C 
ATOM     12  N   UNL     1      -0.597 -12.778   1.105  0.00  0.00    -0.161 NA
ATOM     13  H   UNL     1       0.319 -10.304   1.324  0.00  0.00    +0.188 HD
ENDROOT
BRANCH   1  17
ATOM     14  C   UNL     1      -2.280  -6.672  -0.082  0.00  0.00    +0.138 A 
ATOM     15  C   UNL     1      -1.761  -7.816  -0.683  0.00  0.00    +0.050 A 
ATOM     16  C   UNL     1      -2.091  -8.887   0.130  0.00  0.00    +0.050 A 
ATOM     17  C   UNL     1      -2.807  -8.367   1.214  0.00  0.00    +0.129 A 
ATOM     18  O   UNL     1      -2.897  -7.029   1.057  0.00  0.00    -0.455 OA
BRANCH  14  22
ATOM     19  C   UNL     1      -1.950  -2.729  -1.583  0.00  0.00    +0.123 A 
ATOM     20  C   UNL     1      -0.801  -3.471  -1.325  0.00  0.00    +0.046 A 
ATOM     21  C   UNL     1      -0.901  -4.744  -0.841  0.00  0.00    +0.017 A 
ATOM     22  C   UNL     1      -2.165  -5.303  -0.603  0.00  0.00    +0.048 A 
ATOM     23  C   UNL     1      -3.320  -4.551  -0.864  0.00  0.00    +0.140 A 
ATOM     24  C   UNL     1      -3.207  -3.277  -1.344  0.00  0.00    +0.079 A 
BRANCH  23  25
ATOM     25  N   UNL     1      -4.657  -5.135  -0.616  0.00  0.00    +0.057 N 
ATOM     26  O   UNL     1      -5.735  -4.390  -0.746  0.00  0.00    -0.126 OA
ATOM     27  O   UNL     1      -4.769  -6.399  -0.265  0.00  0.00    -0.126 OA
ENDBRANCH  23  25
BRANCH  19  28
ATOM     28  O   UNL     1      -1.845  -1.465  -2.064  0.00  0.00    -0.492 OA
BRANCH  28  30
ATOM     29  C   UNL     1      -0.608   0.466  -2.826  0.00  0.00    +0.048 C 
ATOM     30  C   UNL     1      -0.526  -0.964  -2.287  0.00  0.00    +0.225 C 
ENDBRANCH  28  30
ENDBRANCH  19  28
ENDBRANCH  14  22
ENDBRANCH   1  17
BRANCH  11  31
ATOM     31  C   UNL     1       0.292 -14.924   0.205  0.00  0.00    +0.161 A 
ATOM     32  C   UNL     1       0.326 -16.322   0.196  0.00  0.00    +0.052 A 
ATOM     33  C   UNL     1       1.247 -16.688  -0.781  0.00  0.00    +0.042 A 
ATOM     34  C   UNL     1       1.739 -15.538  -1.327  0.00  0.00    +0.196 A 
ATOM     35  O   UNL     1       1.158 -14.487  -0.734  0.00  0.00    -0.461 OA
ENDBRANCH  11  31
TORSDOF 6
