REMARK  Name = ZINC54163330
REMARK  8 active torsions:
REMARK  status: ('A' for Active; 'I' for Inactive)
REMARK    1  A    between atoms: C_1  and  C_2
REMARK    2  A    between atoms: C_2  and  C_3
REMARK    3  A    between atoms: C_3  and  C_5
REMARK    4  A    between atoms: C_3  and  N_10
REMARK    5  A    between atoms: C_5  and  C_6
REMARK    6  A    between atoms: N_7  and  O_8
REMARK    7  A    between atoms: C_11  and  C_13
REMARK    8  A    between atoms: C_18  and  O_19
REMARK                            x       y       z     vdW  Elec       q    Type
REMARK                         _______ _______ _______ _____ _____    ______ ____
ROOT
ATOM      1  N   UNL     1      -0.008  -0.140   2.444  0.00  0.00    -0.308 N 
ATOM      2  C   UNL     1       0.164   1.077   2.997  0.00  0.00    +0.248 C 
ATOM      3  O   UNL     1       0.943   1.867   2.499  0.00  0.00    -0.270 OA
ATOM      4  H   UNL     1      -0.629  -0.770   2.842  0.00  0.00    +0.149 HD
ENDROOT
BRANCH   2   5
ATOM      5  C   UNL     1      -0.592   1.450   4.208  0.00  0.00    +0.078 A 
ATOM      6  C   UNL     1      -1.483   0.543   4.788  0.00  0.00    +0.017 A 
ATOM      7  C   UNL     1      -2.185   0.898   5.919  0.00  0.00    +0.001 A 
ATOM      8  C   UNL     1      -2.012   2.151   6.485  0.00  0.00    +0.004 A 
ATOM      9  C   UNL     1      -1.135   3.056   5.923  0.00  0.00    +0.046 A 
ATOM     10  C   UNL     1      -0.415   2.714   4.787  0.00  0.00    +0.129 A 
BRANCH  10  11
ATOM     11  O   UNL     1       0.451   3.601   4.236  0.00  0.00    -0.506 OA
ATOM     12  H   UNL     1       0.052   4.180   3.572  0.00  0.00    +0.292 HD
ENDBRANCH  10  11
ENDBRANCH   2   5
BRANCH   1  13
ATOM     13  C   UNL     1       0.742  -0.511   1.242  0.00  0.00    +0.080 C 
BRANCH  13  15
ATOM     14  C   UNL     1      -0.019   1.526   0.010  0.00  0.00    +0.006 C 
ATOM     15  C   UNL     1       0.002  -0.004   0.002  0.00  0.00    +0.019 C 
ENDBRANCH  13  15
BRANCH  13  16
ATOM     16  C   UNL     1       0.872  -2.034   1.171  0.00  0.00    +0.096 C 
BRANCH  16  17
ATOM     17  C   UNL     1       1.706  -2.521   2.328  0.00  0.00    +0.133 C 
ATOM     18  N   UNL     1       2.182  -1.677   3.182  0.00  0.00    -0.077 NA
ATOM     19  N   UNL     1       1.961  -3.866   2.474  0.00  0.00    -0.344 N 
ATOM     20  H   UNL     1       1.604  -4.500   1.833  0.00  0.00    +0.144 HD
ATOM     21  H   UNL     1       2.498  -4.180   3.218  0.00  0.00    +0.144 HD
BRANCH  18  22
ATOM     22  O   UNL     1       2.966  -2.135   4.268  0.00  0.00    -0.408 OA
ATOM     23  H   UNL     1       3.277  -1.430   4.853  0.00  0.00    +0.328 HD
ENDBRANCH  18  22
ENDBRANCH  16  17
ENDBRANCH  13  16
ENDBRANCH   1  13
TORSDOF 7
