REMARK  Name = ZINC11914360
REMARK  8 active torsions:
REMARK  status: ('A' for Active; 'I' for Inactive)
REMARK    1  A    between atoms: C_1  and  C_2
REMARK    2  A    between atoms: C_2  and  O_3
REMARK    3  A    between atoms: O_3  and  C_4
REMARK    4  A    between atoms: C_7  and  C_10
REMARK    5  A    between atoms: C_10  and  C_12
REMARK    6  A    between atoms: C_13  and  O_34
REMARK    7  A    between atoms: N_16  and  C_26
REMARK    8  A    between atoms: C_17  and  C_19
REMARK                            x       y       z     vdW  Elec       q    Type
REMARK                         _______ _______ _______ _____ _____    ______ ____
ROOT
ATOM      1  C   UNL     1      -4.700   2.827   3.503  0.00  0.00    +0.071 C 
ATOM      2  C   UNL     1      -4.000   3.946   3.205  0.00  0.00    +0.188 C 
ATOM      3  C   UNL     1      -2.939   3.610   2.232  0.00  0.00    +0.283 C 
ATOM      4  O   UNL     1      -2.139   4.401   1.773  0.00  0.00    -0.267 OA
ATOM      5  N   UNL     1      -2.992   2.301   1.929  0.00  0.00    -0.279 N 
ATOM      6  C   UNL     1      -4.090   1.704   2.698  0.00  0.00    +0.145 C 
ENDROOT
BRANCH   6   7
ATOM      7  C   UNL     1      -5.117   1.117   1.764  0.00  0.00    -0.021 A 
ATOM      8  C   UNL     1      -5.547   1.840   0.667  0.00  0.00    +0.006 A 
ATOM      9  C   UNL     1      -6.485   1.300  -0.193  0.00  0.00    +0.001 A 
ATOM     10  C   UNL     1      -7.002   0.041   0.050  0.00  0.00    +0.015 A 
ATOM     11  C   UNL     1      -6.577  -0.680   1.151  0.00  0.00    +0.018 A 
ATOM     12  C   UNL     1      -5.634  -0.142   2.008  0.00  0.00    +0.021 A 
ATOM     13 BR   UNL     1      -7.284  -2.402   1.484  0.00  0.00    -0.050 Br
ENDBRANCH   6   7
BRANCH   5  14
ATOM     14  C   UNL     1      -2.107   1.594   1.000  0.00  0.00    +0.100 C 
ATOM     15  C   UNL     1      -0.653   1.713   1.491  0.00  0.00    +0.047 C 
ATOM     16  C   UNL     1       0.284   1.237   0.344  0.00  0.00    +0.168 C 
ATOM     17  S   UNL     1      -0.555   1.990  -1.113  0.00  0.00    -0.029 S 
ATOM     18  O   UNL     1       0.015   3.267  -1.367  0.00  0.00    -0.174 OA
ATOM     19  O   UNL     1      -0.615   1.030  -2.159  0.00  0.00    -0.174 OA
ATOM     20  C   UNL     1      -2.240   2.217  -0.411  0.00  0.00    +0.188 C 
ENDBRANCH   5  14
BRANCH   1  21
ATOM     21  C   UNL     1      -5.833   2.725   4.429  0.00  0.00    +0.195 C 
ATOM     22  O   UNL     1      -6.879   3.292   4.176  0.00  0.00    -0.287 OA
BRANCH  21  26
ATOM     23  C   UNL     1      -5.460   0.450   7.996  0.00  0.00    +0.121 A 
ATOM     24  C   UNL     1      -6.689   0.999   7.649  0.00  0.00    +0.046 A 
ATOM     25  C   UNL     1      -6.814   1.737   6.494  0.00  0.00    +0.015 A 
ATOM     26  C   UNL     1      -5.703   1.935   5.669  0.00  0.00    +0.022 A 
ATOM     27  C   UNL     1      -4.470   1.377   6.019  0.00  0.00    +0.015 A 
ATOM     28  C   UNL     1      -4.352   0.644   7.179  0.00  0.00    +0.046 A 
BRANCH  23  29
ATOM     29  O   UNL     1      -5.340  -0.276   9.136  0.00  0.00    -0.492 OA
BRANCH  29  31
ATOM     30  C   UNL     1      -4.175  -1.775  10.631  0.00  0.00    +0.048 C 
ATOM     31  C   UNL     1      -4.081  -0.909   9.373  0.00  0.00    +0.225 C 
ENDBRANCH  29  31
ENDBRANCH  23  29
ENDBRANCH  21  26
ENDBRANCH   1  21
BRANCH   2  32
ATOM     32  O   UNL     1      -4.232   5.176   3.719  0.00  0.00    -0.502 OA
ATOM     33  H   UNL     1      -3.576   5.827   3.336  0.00  0.00    +0.292 HD
ENDBRANCH   2  32
TORSDOF 7
