REMARK  Name = ZINC00113294
REMARK  7 active torsions:
REMARK  status: ('A' for Active; 'I' for Inactive)
REMARK    1  A    between atoms: C_1  and  C_2
REMARK    2  A    between atoms: C_2  and  C_25
REMARK    3  A    between atoms: C_3  and  C_4
REMARK    4  A    between atoms: C_4  and  C_5
REMARK    5  A    between atoms: C_6  and  O_24
REMARK    6  A    between atoms: C_8  and  O_23
REMARK    7  A    between atoms: C_12  and  C_17
REMARK                            x       y       z     vdW  Elec       q    Type
REMARK                         _______ _______ _______ _____ _____    ______ ____
ROOT
ATOM      1  C   UNL     1      -0.864  -0.562   3.381  0.00  0.00    +0.040 A 
ATOM      2  C   UNL     1      -2.184  -0.131   3.398  0.00  0.00    +0.127 A 
ATOM      3  C   UNL     1      -3.108  -0.710   4.259  0.00  0.00    +0.092 A 
ATOM      4  C   UNL     1      -2.717  -1.726   5.113  0.00  0.00    +0.134 A 
ATOM      5  C   UNL     1      -1.384  -2.163   5.103  0.00  0.00    +0.101 A 
ATOM      6  C   UNL     1      -0.454  -1.582   4.221  0.00  0.00    +0.142 A 
ATOM      7  O   UNL     1       0.830  -2.010   4.187  0.00  0.00    -0.483 OA
ATOM      8  C   UNL     1       1.358  -2.682   5.331  0.00  0.00    +0.211 C 
ATOM      9  C   UNL     1       0.424  -3.838   5.718  0.00  0.00    +0.129 C 
ATOM     10  C   UNL     1      -0.939  -3.230   6.006  0.00  0.00    +0.174 C 
ATOM     11  O   UNL     1      -1.629  -3.616   6.927  0.00  0.00    -0.292 OA
ENDROOT
BRANCH   8  12
ATOM     12  C   UNL     1       2.726  -3.226   5.007  0.00  0.00    -0.007 A 
ATOM     13  C   UNL     1       3.001  -3.693   3.736  0.00  0.00    +0.007 A 
ATOM     14  C   UNL     1       4.255  -4.192   3.439  0.00  0.00    +0.000 A 
ATOM     15  C   UNL     1       5.235  -4.223   4.414  0.00  0.00    +0.000 A 
ATOM     16  C   UNL     1       4.960  -3.755   5.685  0.00  0.00    +0.000 A 
ATOM     17  C   UNL     1       3.707  -3.252   5.981  0.00  0.00    +0.007 A 
ENDBRANCH   8  12
BRANCH   4  18
ATOM     18  O   UNL     1      -3.616  -2.294   5.954  0.00  0.00    -0.506 OA
ATOM     19  H   UNL     1      -4.078  -3.057   5.580  0.00  0.00    +0.292 HD
ENDBRANCH   4  18
BRANCH   2  20
ATOM     20  O   UNL     1      -2.576   0.867   2.566  0.00  0.00    -0.506 OA
ATOM     21  H   UNL     1      -2.892   0.560   1.705  0.00  0.00    +0.292 HD
ENDBRANCH   2  20
BRANCH   1  22
ATOM     22  C   UNL     1       0.123   0.078   2.439  0.00  0.00    +0.069 C 
BRANCH  22  25
ATOM     23  C   UNL     1      -0.166   1.491   0.016  0.00  0.00    +0.038 C 
ATOM     24  C   UNL     1      -0.072  -0.013   0.007  0.00  0.00    -0.079 C 
ATOM     25  C   UNL     1       0.121  -0.664   1.128  0.00  0.00    -0.023 C 
ATOM     26  C   UNL     1      -0.200  -0.768  -1.291  0.00  0.00    +0.038 C 
ENDBRANCH  22  25
ENDBRANCH   1  22
TORSDOF 5
