REMARK  Name = ZINC15420405
REMARK  15 active torsions:
REMARK  status: ('A' for Active; 'I' for Inactive)
REMARK    1  A    between atoms: C_1  and  C_2
REMARK    2  A    between atoms: C_2  and  N_62
REMARK    3  A    between atoms: C_3  and  C_4
REMARK    4  A    between atoms: C_3  and  N_62
REMARK    5  A    between atoms: N_6  and  C_7
REMARK    6  A    between atoms: C_10  and  O_19
REMARK    7  A    between atoms: C_11  and  S_13
REMARK    8  A    between atoms: S_13  and  N_16
REMARK    9  A    between atoms: N_16  and  C_17
REMARK   10  A    between atoms: N_16  and  C_18
REMARK   11  A    between atoms: O_19  and  C_20
REMARK   12  A    between atoms: C_21  and  C_22
REMARK   13  A    between atoms: C_21  and  N_62
REMARK   14  A    between atoms: N_24  and  C_25
REMARK   15  A    between atoms: C_30  and  C_31
REMARK                            x       y       z     vdW  Elec       q    Type
REMARK                         _______ _______ _______ _____ _____    ______ ____
ROOT
ATOM      1  C   UNL     1       1.151   1.965  -0.102  0.00  0.00    +0.020 C 
ENDROOT
BRANCH   1   2
ATOM      2  C   UNL     1      -0.111   1.145  -0.177  0.00  0.00    +0.201 C 
ATOM      3  O   UNL     1      -0.049  -0.066  -0.169  0.00  0.00    -0.278 OA
ATOM      4  N   UNL     1      -1.308   1.758  -0.260  0.00  0.00    -0.287 N 
ATOM      5  H   UNL     1      -1.354   2.723  -0.348  0.00  0.00    +0.155 HD
BRANCH   4   6
ATOM      6  C   UNL     1      -2.487   1.002  -0.217  0.00  0.00    +0.035 A 
ATOM      7  C   UNL     1      -3.593   1.397  -0.959  0.00  0.00    +0.027 A 
ATOM      8  C   UNL     1      -4.752   0.648  -0.921  0.00  0.00    +0.049 A 
ATOM      9  C   UNL     1      -4.816  -0.493  -0.134  0.00  0.00    +0.146 A 
ATOM     10  C   UNL     1      -3.714  -0.884   0.612  0.00  0.00    +0.149 A 
ATOM     11  C   UNL     1      -2.552  -0.139   0.571  0.00  0.00    +0.055 A 
BRANCH  10  12
ATOM     12  S   UNL     1      -3.796  -2.333   1.611  0.00  0.00    +0.064 S 
ATOM     13  O   UNL     1      -4.328  -3.364   0.790  0.00  0.00    -0.153 OA
ATOM     14  O   UNL     1      -2.538  -2.450   2.261  0.00  0.00    -0.153 OA
BRANCH  12  15
ATOM     15  N   UNL     1      -4.917  -2.047   2.797  0.00  0.00    -0.183 NA
ATOM     16  C   UNL     1      -6.324  -2.386   2.572  0.00  0.00    +0.131 C 
ATOM     17  C   UNL     1      -4.500  -1.455   4.071  0.00  0.00    +0.131 C 
ENDBRANCH  12  15
ENDBRANCH  10  12
BRANCH   9  18
ATOM     18  O   UNL     1      -5.960  -1.227  -0.093  0.00  0.00    -0.493 OA
ATOM     19  C   UNL     1      -7.056  -0.766  -0.886  0.00  0.00    +0.277 C 
ENDBRANCH   9  18
ENDBRANCH   4   6
ENDBRANCH   1   2
BRANCH   1  20
ATOM     20  N   UNL     1       2.296   1.053   0.108  0.00  0.00    +0.391 N 
ATOM     21  H   UNL     1       2.032   0.340   0.798  0.00  0.00    -0.080 HD
BRANCH  20  23
ATOM     22  C   UNL     1       3.141   2.301   2.035  0.00  0.00    -0.017 C 
ATOM     23  C   UNL     1       3.457   1.810   0.621  0.00  0.00    -0.081 C 
ENDBRANCH  20  23
BRANCH  20  24
ATOM     24  C   UNL     1       2.650   0.385  -1.162  0.00  0.00    +0.020 C 
BRANCH  24  25
ATOM     25  C   UNL     1       3.664  -0.693  -0.878  0.00  0.00    +0.201 C 
ATOM     26  O   UNL     1       4.059  -0.870   0.255  0.00  0.00    -0.278 OA
ATOM     27  N   UNL     1       4.131  -1.460  -1.883  0.00  0.00    -0.287 N 
ATOM     28  H   UNL     1       3.856  -1.284  -2.796  0.00  0.00    +0.155 HD
BRANCH  27  29
ATOM     29  C   UNL     1       5.015  -2.510  -1.609  0.00  0.00    +0.038 A 
ATOM     30  C   UNL     1       5.819  -2.465  -0.478  0.00  0.00    +0.043 A 
ATOM     31  C   UNL     1       6.686  -3.507  -0.207  0.00  0.00    +0.043 A 
ATOM     32  C   UNL     1       6.761  -4.588  -1.069  0.00  0.00    +0.020 A 
ATOM     33  C   UNL     1       5.966  -4.631  -2.199  0.00  0.00    +0.006 A 
ATOM     34  C   UNL     1       5.093  -3.595  -2.471  0.00  0.00    -0.029 A 
ATOM     35  C   UNL     1       4.226  -3.644  -3.703  0.00  0.00    +0.045 C 
ATOM     36 CL   UNL     1       7.686  -3.457   1.211  0.00  0.00    -0.083 Cl
ENDBRANCH  27  29
ENDBRANCH  24  25
ENDBRANCH  20  24
ENDBRANCH   1  20
TORSDOF 10
