REMARK  Name = ZINC39763012
REMARK  9 active torsions:
REMARK  status: ('A' for Active; 'I' for Inactive)
REMARK    1  A    between atoms: C_1  and  C_2
REMARK    2  A    between atoms: C_8  and  C_10
REMARK    3  A    between atoms: C_10  and  C_12
REMARK    4  A    between atoms: C_10  and  S_13
REMARK    5  A    between atoms: S_13  and  C_14
REMARK    6  A    between atoms: C_17  and  C_20
REMARK    7  A    between atoms: N_18  and  C_19
REMARK    8  A    between atoms: C_20  and  C_21
REMARK    9  A    between atoms: N_23  and  C_24
REMARK                            x       y       z     vdW  Elec       q    Type
REMARK                         _______ _______ _______ _____ _____    ______ ____
ROOT
ATOM      1  C   UNL     1      -0.724  -8.092   3.559  0.00  0.00    +0.192 A 
ATOM      2  N   UNL     1      -0.460  -7.492   4.696  0.00  0.00    -0.122 NA
ATOM      3  N   UNL     1      -0.575  -8.325   5.667  0.00  0.00    -0.133 NA
ATOM      4  C   UNL     1      -0.917  -9.497   5.213  0.00  0.00    +0.143 A 
ATOM      5  N   UNL     1      -1.030  -9.390   3.854  0.00  0.00    -0.309 N 
ATOM      6  C   UNL     1      -1.398 -10.449   2.911  0.00  0.00    +0.152 C 
ENDROOT
BRANCH   1   7
ATOM      7  S   UNL     1      -0.697  -7.361   1.956  0.00  0.00    -0.074 S 
BRANCH   7   8
ATOM      8  C   UNL     1      -0.220  -5.639   2.268  0.00  0.00    +0.137 C 
ATOM      9  C   UNL     1       1.204  -5.597   2.826  0.00  0.00    +0.029 C 
BRANCH   8  17
ATOM     10  C   UNL     1      -0.641   0.528  -1.755  0.00  0.00    +0.066 C 
ATOM     11  C   UNL     1      -0.544  -0.963  -1.556  0.00  0.00    +0.047 A 
ATOM     12  C   UNL     1      -0.495  -1.816  -2.608  0.00  0.00    +0.071 A 
ATOM     13  S   UNL     1      -0.389  -3.384  -1.760  0.00  0.00    -0.060 S 
ATOM     14  C   UNL     1      -0.417  -2.798  -0.183  0.00  0.00    +0.165 A 
ATOM     15  N   UNL     1      -0.497  -1.496  -0.348  0.00  0.00    -0.230 NA
ATOM     16  N   UNL     1      -0.364  -3.516   1.006  0.00  0.00    -0.264 N 
ATOM     17  C   UNL     1      -0.278  -4.861   0.978  0.00  0.00    +0.232 C 
ATOM     18  O   UNL     1      -0.246  -5.444  -0.084  0.00  0.00    -0.274 OA
ATOM     19  H   UNL     1      -0.390  -3.049   1.856  0.00  0.00    +0.157 HD
ENDBRANCH   8  17
ENDBRANCH   7   8
ENDBRANCH   1   7
BRANCH   4  20
ATOM     20  C   UNL     1      -1.150 -10.740   6.033  0.00  0.00    +0.172 C 
BRANCH  20  21
ATOM     21  C   UNL     1      -2.599 -10.807   6.441  0.00  0.00    +0.225 C 
ATOM     22  O   UNL     1      -3.367  -9.932   6.099  0.00  0.00    -0.275 OA
ATOM     23  N   UNL     1      -3.043 -11.839   7.186  0.00  0.00    -0.285 N 
ATOM     24  H   UNL     1      -2.448 -12.577   7.394  0.00  0.00    +0.155 HD
BRANCH  23  25
ATOM     25  C   UNL     1      -4.360 -11.847   7.657  0.00  0.00    +0.035 A 
ATOM     26  C   UNL     1      -5.043 -13.049   7.794  0.00  0.00    +0.023 A 
ATOM     27  C   UNL     1      -6.343 -13.054   8.261  0.00  0.00    +0.003 A 
ATOM     28  C   UNL     1      -6.965 -11.864   8.591  0.00  0.00    +0.020 A 
ATOM     29  C   UNL     1      -6.288 -10.665   8.455  0.00  0.00    +0.043 A 
ATOM     30  C   UNL     1      -4.985 -10.654   7.995  0.00  0.00    +0.043 A 
ATOM     31 CL   UNL     1      -7.074  -9.173   8.870  0.00  0.00    -0.083 Cl
ENDBRANCH  23  25
ENDBRANCH  20  21
ENDBRANCH   4  20
TORSDOF 6
