REMARK  Name = ZINC09704228
REMARK  6 active torsions:
REMARK  status: ('A' for Active; 'I' for Inactive)
REMARK    1  A    between atoms: C_7  and  C_21
REMARK    2  A    between atoms: C_12  and  C_13
REMARK    3  A    between atoms: C_21  and  O_23
REMARK    4  A    between atoms: O_23  and  C_24
REMARK    5  A    between atoms: C_24  and  C_25
REMARK    6  A    between atoms: C_25  and  C_27
REMARK                            x       y       z     vdW  Elec       q    Type
REMARK                         _______ _______ _______ _____ _____    ______ ____
ROOT
ATOM      1  C   UNL     1      -9.378   4.063  -3.565  0.00  0.00    +0.001 A 
ATOM      2  C   UNL     1     -10.349   5.051  -3.422  0.00  0.00    +0.002 A 
ATOM      3  C   UNL     1     -10.613   5.606  -2.207  0.00  0.00    +0.028 A 
ATOM      4  C   UNL     1      -9.897   5.178  -1.074  0.00  0.00    +0.072 A 
ATOM      5  C   UNL     1      -8.907   4.174  -1.226  0.00  0.00    +0.015 A 
ATOM      6  C   UNL     1      -8.665   3.622  -2.488  0.00  0.00    +0.011 A 
ATOM      7  C   UNL     1      -8.174   3.727  -0.042  0.00  0.00    +0.073 A 
ATOM      8  C   UNL     1      -8.482   4.327   1.172  0.00  0.00    -0.007 A 
ATOM      9  C   UNL     1      -9.475   5.324   1.213  0.00  0.00    +0.072 A 
ATOM     10  N   UNL     1     -10.131   5.704   0.128  0.00  0.00    -0.247 NA
ATOM     11  C   UNL     1      -9.797   5.974   2.500  0.00  0.00    -0.018 C 
ATOM     12  C   UNL     1     -10.559   7.087   2.547  0.00  0.00    +0.052 C 
ATOM     13  C   UNL     1      -9.246   5.349   3.764  0.00  0.00    +0.038 C 
ATOM     14  C   UNL     1      -7.787   4.962   3.488  0.00  0.00    +0.009 C 
ATOM     15  C   UNL     1      -7.746   3.886   2.406  0.00  0.00    +0.038 C 
ENDROOT
BRANCH  12  16
ATOM     16  C   UNL     1     -10.898   7.795   1.313  0.00  0.00    +0.128 A 
ATOM     17  C   UNL     1     -12.075   8.440   1.054  0.00  0.00    +0.049 A 
ATOM     18  C   UNL     1     -11.965   8.976  -0.241  0.00  0.00    +0.042 A 
ATOM     19  C   UNL     1     -10.748   8.632  -0.712  0.00  0.00    +0.195 A 
ATOM     20  O   UNL     1     -10.107   7.919   0.228  0.00  0.00    -0.464 OA
ENDBRANCH  12  16
BRANCH   7  21
ATOM     21  C   UNL     1      -7.136   2.679  -0.135  0.00  0.00    +0.341 C 
ATOM     22  O   UNL     1      -7.438   1.511   0.005  0.00  0.00    -0.245 OA
BRANCH  21  23
ATOM     23  O   UNL     1      -5.855   3.018  -0.376  0.00  0.00    -0.453 OA
BRANCH  23  24
ATOM     24  C   UNL     1      -4.889   1.937  -0.454  0.00  0.00    +0.311 C 
BRANCH  24  25
ATOM     25  C   UNL     1      -3.520   2.504  -0.727  0.00  0.00    +0.200 C 
ATOM     26  O   UNL     1      -3.373   3.702  -0.844  0.00  0.00    -0.288 OA
BRANCH  25  27
ATOM     27  C   UNL     1      -2.365   1.606  -0.852  0.00  0.00    +0.023 A 
ATOM     28  C   UNL     1      -2.534   0.222  -0.723  0.00  0.00    +0.015 A 
ATOM     29  C   UNL     1      -1.450  -0.620  -0.835  0.00  0.00    +0.048 A 
ATOM     30  C   UNL     1      -0.188  -0.100  -1.086  0.00  0.00    +0.142 A 
ATOM     31  C   UNL     1      -0.011   1.280  -1.221  0.00  0.00    +0.076 A 
ATOM     32  C   UNL     1      -1.091   2.132  -1.105  0.00  0.00    +0.038 A 
ATOM     33  N   UNL     1       1.273   1.786  -1.473  0.00  0.00    -0.280 N 
ATOM     34  C   UNL     1       2.238   0.939  -1.893  0.00  0.00    +0.255 C 
ATOM     35  O   UNL     1       3.363   1.347  -2.089  0.00  0.00    -0.272 OA
ATOM     36  C   UNL     1       1.911  -0.516  -2.115  0.00  0.00    +0.325 C 
ATOM     37  O   UNL     1       0.886  -0.923  -1.205  0.00  0.00    -0.481 OA
ATOM     38  H   UNL     1       1.464   2.728  -1.349  0.00  0.00    +0.155 HD
ENDBRANCH  25  27
ENDBRANCH  24  25
ENDBRANCH  23  24
ENDBRANCH  21  23
ENDBRANCH   7  21
TORSDOF 6
