REMARK  Name = ZINC64460428
REMARK  4 active torsions:
REMARK  status: ('A' for Active; 'I' for Inactive)
REMARK    1  A    between atoms: C_1  and  C_2
REMARK    2  A    between atoms: C_2  and  C_3
REMARK    3  A    between atoms: C_6  and  N_9
REMARK    4  A    between atoms: C_10  and  C_12
REMARK                            x       y       z     vdW  Elec       q    Type
REMARK                         _______ _______ _______ _____ _____    ______ ____
ROOT
ATOM      1  C   UNL     1      -7.446  -2.518  -1.097  0.00  0.00    +0.205 C 
ATOM      2  C   UNL     1      -7.806  -3.334  -2.346  0.00  0.00    +0.142 A 
ATOM      3  N   UNL     1      -7.237  -4.495  -2.620  0.00  0.00    -0.193 NA
ATOM      4  C   UNL     1      -7.529  -5.231  -3.700  0.00  0.00    +0.281 A 
ATOM      5  O   UNL     1      -6.976  -6.298  -3.908  0.00  0.00    -0.265 OA
ATOM      6  C   UNL     1      -8.544  -4.700  -4.626  0.00  0.00    +0.065 A 
ATOM      7  C   UNL     1      -8.924  -5.383  -5.780  0.00  0.00    +0.017 A 
ATOM      8  C   UNL     1      -9.874  -4.837  -6.600  0.00  0.00    +0.021 A 
ATOM      9  C   UNL     1     -10.457  -3.615  -6.290  0.00  0.00    +0.043 A 
ATOM     10  C   UNL     1     -10.089  -2.927  -5.150  0.00  0.00    +0.047 A 
ATOM     11  C   UNL     1      -9.127  -3.470  -4.309  0.00  0.00    +0.063 A 
ATOM     12  N   UNL     1      -8.742  -2.781  -3.142  0.00  0.00    -0.284 N 
ATOM     13  C   UNL     1      -9.314  -1.577  -2.835  0.00  0.00    +0.128 C 
ATOM     14  S   UNL     1     -10.509  -0.737  -3.728  0.00  0.00    -0.025 S 
ATOM     15  S   UNL     1      -8.552  -1.070  -1.309  0.00  0.00    -0.079 S 
ATOM     16 CL   UNL     1     -11.659  -2.944  -7.348  0.00  0.00    -0.083 Cl
ENDROOT
BRANCH   1  18
ATOM     17  N   UNL     1      -5.320  -1.968   0.042  0.00  0.00    -0.284 N 
ATOM     18  C   UNL     1      -5.997  -2.104  -1.115  0.00  0.00    +0.238 C 
ATOM     19  O   UNL     1      -5.440  -1.894  -2.172  0.00  0.00    -0.274 OA
ATOM     20  H   UNL     1      -5.742  -2.209   0.882  0.00  0.00    +0.155 HD
BRANCH  17  24
ATOM     21  C   UNL     1      -1.419  -0.507   0.015  0.00  0.00    -0.048 A 
ATOM     22  C   UNL     1      -2.333  -0.051  -0.916  0.00  0.00    +0.005 A 
ATOM     23  C   UNL     1      -3.627  -0.533  -0.910  0.00  0.00    +0.023 A 
ATOM     24  C   UNL     1      -4.010  -1.478   0.033  0.00  0.00    +0.033 A 
ATOM     25  C   UNL     1      -3.089  -1.935   0.967  0.00  0.00    +0.023 A 
ATOM     26  C   UNL     1      -1.795  -1.452   0.952  0.00  0.00    +0.005 A 
BRANCH  21  28
ATOM     27  C   UNL     1       0.858  -0.854  -0.904  0.00  0.00    +0.009 C 
ATOM     28  C   UNL     1      -0.007   0.021   0.005  0.00  0.00    +0.032 C 
ENDBRANCH  21  28
ENDBRANCH  17  24
ENDBRANCH   1  18
TORSDOF 3
