REMARK  Name = ZINC39736620
REMARK  4 active torsions:
REMARK  status: ('A' for Active; 'I' for Inactive)
REMARK    1  A    between atoms: C_1  and  C_2
REMARK    2  A    between atoms: C_2  and  C_4
REMARK    3  A    between atoms: C_2  and  N_17
REMARK    4  A    between atoms: C_21  and  C_24
REMARK                            x       y       z     vdW  Elec       q    Type
REMARK                         _______ _______ _______ _____ _____    ______ ____
ROOT
ATOM      1  C   UNL     1       1.010   0.752  -0.527  0.00  0.00    -0.004 C 
ATOM      2  C   UNL     1       0.199  -0.419   0.031  0.00  0.00    +0.016 C 
ENDROOT
BRANCH   2   3
ATOM      3  C   UNL     1       0.797  -0.867   1.339  0.00  0.00    +0.203 C 
ATOM      4  O   UNL     1       1.653  -1.726   1.352  0.00  0.00    -0.277 OA
ATOM      5  N   UNL     1       0.382  -0.312   2.495  0.00  0.00    -0.287 N 
ATOM      6  C   UNL     1       1.258   0.230   3.319  0.00  0.00    +0.035 C 
ATOM      7  C   UNL     1       2.665   0.352   2.918  0.00  0.00    +0.025 C 
ATOM      8  C   UNL     1       3.565   0.905   3.755  0.00  0.00    +0.032 C 
ATOM      9  C   UNL     1       3.144   1.389   5.073  0.00  0.00    +0.095 C 
ATOM     10  N   UNL     1       3.767   1.960   6.085  0.00  0.00    -0.190 NA
ATOM     11  C   UNL     1       2.885   2.202   7.070  0.00  0.00    +0.369 C 
ATOM     12  O   UNL     1       3.202   2.782   8.252  0.00  0.00    -0.243 OA
ATOM     13  N   UNL     1       1.677   1.805   6.741  0.00  0.00    -0.190 NA
ATOM     14  C   UNL     1       1.732   1.272   5.486  0.00  0.00    +0.097 C 
ATOM     15  C   UNL     1       0.821   0.721   4.644  0.00  0.00    +0.053 C 
ATOM     16  H   UNL     1      -0.562  -0.311   2.721  0.00  0.00    +0.155 HD
ENDBRANCH   2   3
BRANCH   2  17
ATOM     17  N   UNL     1       0.226  -1.533  -0.926  0.00  0.00    +0.388 N 
ATOM     18  C   UNL     1      -0.348  -1.093  -2.204  0.00  0.00    -0.078 C 
ATOM     19  C   UNL     1      -0.248  -2.225  -3.229  0.00  0.00    -0.018 C 
ATOM     20  C   UNL     1      -1.021  -3.442  -2.714  0.00  0.00    +0.006 C 
ATOM     21  C   UNL     1      -0.463  -3.847  -1.346  0.00  0.00    +0.028 C 
ATOM     22  C   UNL     1      -0.555  -2.655  -0.391  0.00  0.00    -0.068 C 
ATOM     23  H   UNL     1       1.180  -1.828  -1.072  0.00  0.00    -0.081 HD
BRANCH  21  24
ATOM     24  C   UNL     1      -1.266  -4.997  -0.795  0.00  0.00    +0.081 A 
ATOM     25  N   UNL     1      -2.540  -5.028  -0.534  0.00  0.00    -0.244 NA
ATOM     26  C   UNL     1      -3.147  -6.127  -0.041  0.00  0.00    +0.078 A 
ATOM     27  C   UNL     1      -4.500  -6.339   0.299  0.00  0.00    +0.029 A 
ATOM     28  C   UNL     1      -4.910  -7.540   0.789  0.00  0.00    +0.002 A 
ATOM     29  C   UNL     1      -4.023  -8.592   0.973  0.00  0.00    +0.001 A 
ATOM     30  C   UNL     1      -2.690  -8.422   0.652  0.00  0.00    +0.017 A 
ATOM     31  C   UNL     1      -2.265  -7.214   0.156  0.00  0.00    +0.039 A 
ATOM     32  S   UNL     1      -0.719  -6.536  -0.387  0.00  0.00    -0.072 S 
ENDBRANCH  21  24
ENDBRANCH   2  17
TORSDOF 3
