REMARK  Name = ZINC13583207
REMARK  8 active torsions:
REMARK  status: ('A' for Active; 'I' for Inactive)
REMARK    1  A    between atoms: C_1  and  C_2
REMARK    2  A    between atoms: C_9  and  C_30
REMARK    3  A    between atoms: N_11  and  C_12
REMARK    4  A    between atoms: C_12  and  C_13
REMARK    5  A    between atoms: C_13  and  C_15
REMARK    6  A    between atoms: C_13  and  O_29
REMARK    7  A    between atoms: C_15  and  N_16
REMARK    8  A    between atoms: N_19  and  C_22
REMARK                            x       y       z     vdW  Elec       q    Type
REMARK                         _______ _______ _______ _____ _____    ______ ____
ROOT
ATOM      1  C   UNL     1       5.303   3.651  -1.296  0.00  0.00    +0.109 C 
ATOM      2  C   UNL     1       4.874   2.224  -1.070  0.00  0.00    +0.213 C 
ATOM      3  O   UNL     1       5.435   1.323  -1.656  0.00  0.00    -0.276 OA
ATOM      4  N   UNL     1       3.866   1.950  -0.218  0.00  0.00    -0.297 N 
ATOM      5  C   UNL     1       3.174   3.030   0.502  0.00  0.00    +0.114 C 
ATOM      6  C   UNL     1       1.710   3.080   0.046  0.00  0.00    +0.074 C 
ATOM      7  C   UNL     1       1.161   1.676   0.016  0.00  0.00    +0.046 A 
ATOM      8  C   UNL     1       1.922   0.555  -0.003  0.00  0.00    +0.018 A 
ATOM      9  C   UNL     1       1.065  -0.553  -0.038  0.00  0.00    +0.098 A 
ATOM     10  N   UNL     1      -0.175  -0.103  -0.037  0.00  0.00    -0.171 NA
ATOM     11  N   UNL     1      -0.131   1.298  -0.002  0.00  0.00    -0.265 N 
ATOM     12  C   UNL     1       3.432   0.561   0.017  0.00  0.00    +0.146 C 
ENDROOT
BRANCH   9  13
ATOM     13  C   UNL     1       1.478  -1.979  -0.071  0.00  0.00    +0.003 A 
ATOM     14  C   UNL     1       2.623  -2.358  -0.767  0.00  0.00    +0.011 A 
ATOM     15  C   UNL     1       3.006  -3.684  -0.791  0.00  0.00    +0.020 A 
ATOM     16  C   UNL     1       2.247  -4.638  -0.134  0.00  0.00    +0.041 A 
ATOM     17  C   UNL     1       1.106  -4.266   0.555  0.00  0.00    +0.020 A 
ATOM     18  C   UNL     1       0.718  -2.942   0.589  0.00  0.00    +0.011 A 
ATOM     19 CL   UNL     1       2.730  -6.305  -0.173  0.00  0.00    -0.084 Cl
ENDBRANCH   9  13
BRANCH  11  20
ATOM     20  C   UNL     1      -1.289   2.195   0.009  0.00  0.00    +0.176 C 
BRANCH  20  21
ATOM     21  C   UNL     1      -1.707   2.472   1.454  0.00  0.00    +0.150 C 
BRANCH  21  22
ATOM     22  O   UNL     1      -2.163   1.260   2.058  0.00  0.00    -0.389 OA
ATOM     23  H   UNL     1      -2.507   1.262   3.103  0.00  0.00    +0.210 HD
ENDBRANCH  21  22
BRANCH  21  24
ATOM     24  C   UNL     1      -2.836   3.505   1.469  0.00  0.00    +0.117 C 
BRANCH  24  25
ATOM     25  N   UNL     1      -3.229   3.780   2.858  0.00  0.00    -0.297 NA
ATOM     26  C   UNL     1      -4.570   4.378   2.917  0.00  0.00    +0.103 C 
ATOM     27  C   UNL     1      -4.974   4.575   4.380  0.00  0.00    +0.120 C 
ATOM     28  N   UNL     1      -3.986   5.436   5.046  0.00  0.00    -0.326 N 
ATOM     29  C   UNL     1      -2.646   4.837   4.987  0.00  0.00    +0.120 C 
ATOM     30  C   UNL     1      -2.242   4.640   3.524  0.00  0.00    +0.103 C 
BRANCH  28  31
ATOM     31  C   UNL     1      -4.360   5.697   6.367  0.00  0.00    +0.048 A 
ATOM     32  C   UNL     1      -5.406   4.991   6.947  0.00  0.00    +0.024 A 
ATOM     33  C   UNL     1      -5.770   5.248   8.255  0.00  0.00    +0.002 A 
ATOM     34  C   UNL     1      -5.101   6.216   8.983  0.00  0.00    +0.002 A 
ATOM     35  C   UNL     1      -4.063   6.925   8.407  0.00  0.00    +0.022 A 
ATOM     36  C   UNL     1      -3.690   6.669   7.101  0.00  0.00    +0.062 A 
ATOM     37 CL   UNL     1      -2.388   7.560   6.379  0.00  0.00    -0.082 Cl
ENDBRANCH  28  31
ENDBRANCH  24  25
ENDBRANCH  21  24
ENDBRANCH  20  21
ENDBRANCH  11  20
TORSDOF 7
