REMARK  Name = ZINC39226863
REMARK  5 active torsions:
REMARK  status: ('A' for Active; 'I' for Inactive)
REMARK    1  A    between atoms: C_1  and  O_2
REMARK    2  A    between atoms: O_2  and  C_3
REMARK    3  A    between atoms: N_16  and  C_19
REMARK    4  A    between atoms: C_19  and  C_20
REMARK    5  A    between atoms: C_24  and  C_26
REMARK                            x       y       z     vdW  Elec       q    Type
REMARK                         _______ _______ _______ _____ _____    ______ ____
ROOT
ATOM      1  C   UNL     1       0.626  -0.619   1.042  0.00  0.00    +0.121 A 
ATOM      2  C   UNL     1       1.203   0.142   2.053  0.00  0.00    +0.049 A 
ATOM      3  C   UNL     1       1.844  -0.467   3.113  0.00  0.00    +0.050 A 
ATOM      4  C   UNL     1       1.917  -1.852   3.182  0.00  0.00    +0.132 A 
ATOM      5  C   UNL     1       1.329  -2.622   2.166  0.00  0.00    +0.063 A 
ATOM      6  C   UNL     1       0.681  -1.999   1.096  0.00  0.00    +0.060 A 
ATOM      7  C   UNL     1       1.394  -4.091   2.252  0.00  0.00    +0.171 C 
ATOM      8  O   UNL     1       0.728  -4.803   1.531  0.00  0.00    -0.292 OA
ATOM      9  C   UNL     1       2.338  -4.669   3.292  0.00  0.00    +0.127 C 
ATOM     10  C   UNL     1       2.222  -3.793   4.547  0.00  0.00    +0.114 C 
ATOM     11  O   UNL     1       2.553  -2.445   4.220  0.00  0.00    -0.485 OA
ATOM     12  C   UNL     1       3.181  -4.315   5.619  0.00  0.00    +0.030 C 
ATOM     13  C   UNL     1       3.000  -3.498   6.900  0.00  0.00    -0.074 C 
ATOM     14  N   UNL     1       1.617  -3.623   7.373  0.00  0.00    +0.384 N 
ATOM     15  C   UNL     1       0.697  -3.056   6.380  0.00  0.00    -0.074 C 
ATOM     16  C   UNL     1       0.788  -3.857   5.079  0.00  0.00    +0.030 C 
ATOM     17  H   UNL     1       1.397  -4.598   7.515  0.00  0.00    -0.081 HD
ENDROOT
BRANCH   1  19
ATOM     18  C   UNL     1      -0.017   1.425   0.010  0.00  0.00    +0.277 C 
ATOM     19  O   UNL     1       0.002  -0.004   0.002  0.00  0.00    -0.495 OA
ENDBRANCH   1  19
BRANCH  14  20
ATOM     20  C   UNL     1       1.468  -2.901   8.644  0.00  0.00    -0.022 C 
BRANCH  20  21
ATOM     21  C   UNL     1       0.083  -3.130   9.193  0.00  0.00    +0.032 A 
ATOM     22  C   UNL     1      -0.084  -3.806  10.363  0.00  0.00    +0.091 A 
ATOM     23  C   UNL     1      -1.393  -4.002  10.849  0.00  0.00    +0.252 A 
ATOM     24  N   UNL     1      -2.428  -3.511  10.133  0.00  0.00    -0.311 N 
ATOM     25  C   UNL     1      -2.195  -2.851   8.982  0.00  0.00    +0.113 A 
ATOM     26  N   UNL     1      -0.982  -2.665   8.535  0.00  0.00    -0.240 NA
ATOM     27  O   UNL     1      -1.587  -4.602  11.893  0.00  0.00    -0.268 OA
ATOM     28  H   UNL     1      -3.337  -3.635  10.447  0.00  0.00    +0.170 HD
BRANCH  25  29
ATOM     29  C   UNL     1      -3.361  -2.310   8.195  0.00  0.00    +0.055 C 
ATOM     30  C   UNL     1      -3.343  -2.508   6.678  0.00  0.00    +0.012 C 
ATOM     31  C   UNL     1      -3.098  -1.119   7.271  0.00  0.00    +0.012 C 
ENDBRANCH  25  29
ENDBRANCH  20  21
ENDBRANCH  14  20
TORSDOF 4
