REMARK  Name = ZINC40987953
REMARK  6 active torsions:
REMARK  status: ('A' for Active; 'I' for Inactive)
REMARK    1  A    between atoms: C_3  and  C_8
REMARK    2  A    between atoms: C_8  and  N_9
REMARK    3  A    between atoms: N_9  and  C_10
REMARK    4  A    between atoms: C_10  and  C_11
REMARK    5  A    between atoms: C_16  and  C_18
REMARK    6  A    between atoms: N_21  and  C_23
REMARK                            x       y       z     vdW  Elec       q    Type
REMARK                         _______ _______ _______ _____ _____    ______ ____
ROOT
ATOM      1  N   UNL     1       4.129   2.572   1.470  0.00  0.00    -0.285 N 
ATOM      2  C   UNL     1       3.533   3.696   1.917  0.00  0.00    +0.268 C 
ATOM      3  O   UNL     1       2.714   4.267   1.223  0.00  0.00    -0.268 OA
ENDROOT
BRANCH   2   4
ATOM      4  C   UNL     1       3.876   4.234   3.249  0.00  0.00    +0.151 A 
ATOM      5  C   UNL     1       3.295   5.347   3.879  0.00  0.00    +0.006 A 
ATOM      6  C   UNL     1       3.920   5.466   5.077  0.00  0.00    +0.044 A 
ATOM      7  N   UNL     1       4.822   4.474   5.154  0.00  0.00    -0.263 N 
ATOM      8  N   UNL     1       4.784   3.758   4.084  0.00  0.00    -0.166 NA
ATOM      9  C   UNL     1       3.608   6.543   6.084  0.00  0.00    +0.055 C 
ATOM     10  C   UNL     1       2.826   7.655   5.375  0.00  0.00    +0.006 C 
ATOM     11  C   UNL     1       1.660   7.046   4.592  0.00  0.00    +0.005 C 
ATOM     12  C   UNL     1       2.205   6.261   3.391  0.00  0.00    +0.039 C 
BRANCH   7  13
ATOM     13  C   UNL     1       5.715   4.237   6.291  0.00  0.00    +0.130 C 
ATOM     14  C   UNL     1       7.179   4.293   5.823  0.00  0.00    +0.051 C 
ATOM     15  C   UNL     1       8.108   3.734   6.928  0.00  0.00    +0.168 C 
ATOM     16  S   UNL     1       7.016   2.546   7.810  0.00  0.00    -0.029 S 
ATOM     17  O   UNL     1       7.474   1.224   7.559  0.00  0.00    -0.174 OA
ATOM     18  O   UNL     1       6.845   2.983   9.151  0.00  0.00    -0.174 OA
ATOM     19  C   UNL     1       5.449   2.823   6.882  0.00  0.00    +0.192 C 
ENDBRANCH   7  13
ENDBRANCH   2   4
BRANCH   1  20
ATOM     20  C   UNL     1       3.854   2.086   0.116  0.00  0.00    +0.143 C 
BRANCH  20  23
ATOM     21  C   UNL     1       0.313   0.778   0.014  0.00  0.00    +0.002 A 
ATOM     22  C   UNL     1       1.395   1.639  -0.016  0.00  0.00    +0.005 A 
ATOM     23  C   UNL     1       2.676   1.147   0.149  0.00  0.00    -0.029 A 
ATOM     24  C   UNL     1       2.876  -0.207   0.345  0.00  0.00    +0.025 A 
ATOM     25  C   UNL     1       1.795  -1.069   0.376  0.00  0.00    +0.041 A 
ATOM     26  C   UNL     1       0.513  -0.575   0.210  0.00  0.00    +0.020 A 
ATOM     27 CL   UNL     1       2.046  -2.769   0.621  0.00  0.00    -0.084 Cl
ENDBRANCH  20  23
ENDBRANCH   1  20
BRANCH   1  28
ATOM     28  C   UNL     1       5.052   1.838   2.339  0.00  0.00    +0.182 C 
BRANCH  28  29
ATOM     29  C   UNL     1       6.469   2.235   2.017  0.00  0.00    +0.122 A 
ATOM     30  C   UNL     1       7.154   3.241   2.591  0.00  0.00    +0.046 A 
ATOM     31  C   UNL     1       8.435   3.258   1.993  0.00  0.00    +0.041 A 
ATOM     32  C   UNL     1       8.456   2.262   1.089  0.00  0.00    +0.195 A 
ATOM     33  O   UNL     1       7.265   1.642   1.112  0.00  0.00    -0.466 OA
ENDBRANCH  28  29
ENDBRANCH   1  28
TORSDOF 6
