REMARK  Name = ZINC33413165
REMARK  6 active torsions:
REMARK  status: ('A' for Active; 'I' for Inactive)
REMARK    1  A    between atoms: C_1  and  C_2
REMARK    2  A    between atoms: N_5  and  C_7
REMARK    3  A    between atoms: C_14  and  N_34
REMARK    4  A    between atoms: C_15  and  C_32
REMARK    5  A    between atoms: C_16  and  C_18
REMARK    6  A    between atoms: C_21  and  C_23
REMARK                            x       y       z     vdW  Elec       q    Type
REMARK                         _______ _______ _______ _____ _____    ______ ____
ROOT
ATOM      1  C   UNL     1       3.611   0.771  -0.028  0.00  0.00    +0.068 C 
ATOM      2  C   UNL     1       2.104   0.743  -0.013  0.00  0.00    +0.068 A 
ATOM      3  C   UNL     1       1.311  -0.397  -0.011  0.00  0.00    +0.053 A 
ATOM      4  C   UNL     1       0.002  -0.004   0.002  0.00  0.00    +0.230 A 
ATOM      5  N   UNL     1      -0.016   1.347   0.009  0.00  0.00    -0.200 N 
ATOM      6  N   UNL     1       1.315   1.792  -0.001  0.00  0.00    -0.168 NA
ATOM      7  O   UNL     1      -1.028  -0.886   0.005  0.00  0.00    -0.423 OA
ATOM      8  C   UNL     1      -0.748  -2.174  -0.282  0.00  0.00    +0.201 C 
ATOM      9  C   UNL     1       0.503  -2.682  -0.313  0.00  0.00    +0.101 C 
ATOM     10  C   UNL     1       1.725  -1.846  -0.021  0.00  0.00    +0.137 C 
ENDROOT
BRANCH   5  11
ATOM     11  C   UNL     1      -1.159   2.158   0.019  0.00  0.00    +0.069 A 
ATOM     12  C   UNL     1      -2.298   1.764  -0.671  0.00  0.00    +0.028 A 
ATOM     13  C   UNL     1      -3.424   2.564  -0.655  0.00  0.00    +0.002 A 
ATOM     14  C   UNL     1      -3.415   3.760   0.039  0.00  0.00    +0.000 A 
ATOM     15  C   UNL     1      -2.281   4.157   0.723  0.00  0.00    +0.002 A 
ATOM     16  C   UNL     1      -1.153   3.360   0.715  0.00  0.00    +0.028 A 
ENDBRANCH   5  11
BRANCH  10  17
ATOM     17  C   UNL     1       2.289  -2.223   1.324  0.00  0.00    +0.119 A 
ATOM     18  C   UNL     1       3.530  -2.703   1.549  0.00  0.00    +0.046 A 
ATOM     19  C   UNL     1       3.644  -2.920   2.934  0.00  0.00    +0.052 A 
ATOM     20  C   UNL     1       2.453  -2.556   3.488  0.00  0.00    +0.160 A 
ATOM     21  O   UNL     1       1.644  -2.130   2.497  0.00  0.00    -0.457 OA
BRANCH  20  22
ATOM     22  C   UNL     1       2.111  -2.612   4.917  0.00  0.00    +0.144 A 
ATOM     23  N   UNL     1       2.852  -3.017   5.929  0.00  0.00    -0.236 NA
ATOM     24  C   UNL     1       2.406  -3.009   7.200  0.00  0.00    +0.079 A 
ATOM     25  C   UNL     1       3.095  -3.409   8.370  0.00  0.00    +0.029 A 
ATOM     26  C   UNL     1       2.494  -3.345   9.588  0.00  0.00    +0.002 A 
ATOM     27  C   UNL     1       1.192  -2.888   9.736  0.00  0.00    +0.001 A 
ATOM     28  C   UNL     1       0.483  -2.488   8.618  0.00  0.00    +0.017 A 
ATOM     29  C   UNL     1       1.080  -2.549   7.383  0.00  0.00    +0.040 A 
ATOM     30  S   UNL     1       0.582  -2.157   5.723  0.00  0.00    -0.064 S 
ENDBRANCH  20  22
ENDBRANCH  10  17
BRANCH   8  31
ATOM     31  N   UNL     1      -1.796  -3.017  -0.558  0.00  0.00    -0.328 N 
ATOM     32  H   UNL     1      -1.603  -4.073  -0.796  0.00  0.00    +0.145 HD
ATOM     33  H   UNL     1      -2.827  -2.636  -0.542  0.00  0.00    +0.145 HD
ENDBRANCH   8  31
BRANCH   9  34
ATOM     34  C   UNL     1       0.677  -4.067  -0.634  0.00  0.00    +0.101 C 
ATOM     35  N   UNL     1       0.815  -5.165  -0.890  0.00  0.00    -0.191 NA
ENDBRANCH   9  34
TORSDOF 5
