REMARK  Name = ZINC13088163
REMARK  10 active torsions:
REMARK  status: ('A' for Active; 'I' for Inactive)
REMARK    1  A    between atoms: C_1  and  N_2
REMARK    2  A    between atoms: N_2  and  C_3
REMARK    3  A    between atoms: N_2  and  S_16
REMARK    4  A    between atoms: C_3  and  C_4
REMARK    5  A    between atoms: N_6  and  C_7
REMARK    6  A    between atoms: C_12  and  O_13
REMARK    7  A    between atoms: O_13  and  C_14
REMARK    8  A    between atoms: S_16  and  C_19
REMARK    9  A    between atoms: C_22  and  C_25
REMARK   10  A    between atoms: C_26  and  C_27
REMARK                            x       y       z     vdW  Elec       q    Type
REMARK                         _______ _______ _______ _____ _____    ______ ____
ROOT
ATOM      1  C   UNL     1      -2.893   0.399   1.300  0.00  0.00    +0.132 C 
ATOM      2  N   UNL     1      -2.430   0.978   0.037  0.00  0.00    -0.171 NA
ENDROOT
BRANCH   2   3
ATOM      3  S   UNL     1      -3.151   0.541  -1.388  0.00  0.00    +0.061 S 
ATOM      4  O   UNL     1      -4.457   0.086  -1.060  0.00  0.00    -0.153 OA
ATOM      5  O   UNL     1      -2.921   1.604  -2.303  0.00  0.00    -0.153 OA
BRANCH   3   6
ATOM      6  C   UNL     1      -2.273  -0.855  -2.009  0.00  0.00    +0.106 A 
ATOM      7  C   UNL     1      -1.193  -0.669  -2.855  0.00  0.00    +0.029 A 
ATOM      8  C   UNL     1      -0.497  -1.756  -3.340  0.00  0.00    +0.010 A 
ATOM      9  C   UNL     1      -0.892  -3.050  -2.984  0.00  0.00    -0.025 A 
ATOM     10  C   UNL     1      -1.988  -3.230  -2.134  0.00  0.00    +0.010 A 
ATOM     11  C   UNL     1      -2.670  -2.132  -1.653  0.00  0.00    +0.029 A 
BRANCH   9  12
ATOM     12  C   UNL     1      -0.159  -4.216  -3.503  0.00  0.00    +0.015 C 
ATOM     13  C   UNL     1       0.898  -4.038  -4.323  0.00  0.00    +0.096 C 
BRANCH  13  14
ATOM     14  C   UNL     1       1.627  -5.196  -4.838  0.00  0.00    +0.380 C 
ATOM     15  O   UNL     1       1.280  -6.320  -4.527  0.00  0.00    -0.241 OA
ATOM     16  O   UNL     1       2.683  -5.019  -5.658  0.00  0.00    -0.241 OA
ENDBRANCH  13  14
ENDBRANCH   9  12
ENDBRANCH   3   6
ENDBRANCH   2   3
BRANCH   2  17
ATOM     17  C   UNL     1      -1.329   1.945   0.035  0.00  0.00    +0.205 C 
BRANCH  17  18
ATOM     18  C   UNL     1      -0.015   1.209   0.013  0.00  0.00    +0.233 C 
ATOM     19  O   UNL     1       0.002  -0.004  -0.000  0.00  0.00    -0.274 OA
ATOM     20  N   UNL     1       1.143   1.898   0.001  0.00  0.00    -0.281 N 
ATOM     21  H   UNL     1       1.131   2.866  -0.069  0.00  0.00    +0.155 HD
BRANCH  20  22
ATOM     22  C   UNL     1       2.365   1.218   0.092  0.00  0.00    +0.077 A 
ATOM     23  C   UNL     1       2.422  -0.033   0.690  0.00  0.00    +0.047 A 
ATOM     24  C   UNL     1       3.627  -0.705   0.773  0.00  0.00    +0.043 A 
ATOM     25  C   UNL     1       4.781  -0.128   0.271  0.00  0.00    +0.024 A 
ATOM     26  C   UNL     1       4.732   1.121  -0.322  0.00  0.00    +0.049 A 
ATOM     27  C   UNL     1       3.526   1.798  -0.413  0.00  0.00    +0.141 A 
ATOM     28 CL   UNL     1       3.696  -2.272   1.516  0.00  0.00    -0.083 Cl
BRANCH  27  29
ATOM     29  O   UNL     1       3.477   3.025  -0.996  0.00  0.00    -0.493 OA
ATOM     30  C   UNL     1       4.707   3.558  -1.492  0.00  0.00    +0.277 C 
ENDBRANCH  27  29
ENDBRANCH  20  22
ENDBRANCH  17  18
ENDBRANCH   2  17
TORSDOF 8
