REMARK  Name = ZINC47930094
REMARK  4 active torsions:
REMARK  status: ('A' for Active; 'I' for Inactive)
REMARK    1  A    between atoms: C_1  and  C_2
REMARK    2  A    between atoms: C_2  and  N_3
REMARK    3  A    between atoms: C_7  and  C_12
REMARK    4  A    between atoms: N_14  and  C_15
REMARK                            x       y       z     vdW  Elec       q    Type
REMARK                         _______ _______ _______ _____ _____    ______ ____
ROOT
ATOM      1  C   UNL     1      -5.116  -2.088   3.881  0.00  0.00    +0.248 C 
ATOM      2  O   UNL     1      -6.138  -2.626   3.502  0.00  0.00    -0.270 OA
ATOM      3  N   UNL     1      -4.931  -1.843   5.194  0.00  0.00    -0.277 N 
ATOM      4  H   UNL     1      -4.087  -1.481   5.505  0.00  0.00    +0.155 HD
ENDROOT
BRANCH   1   9
ATOM      5  N   UNL     1      -1.341  -0.731  -0.018  0.00  0.00    -0.244 N 
ATOM      6  C   UNL     1      -2.108  -0.968   1.096  0.00  0.00    +0.089 A 
ATOM      7  C   UNL     1      -1.933  -0.723   2.456  0.00  0.00    +0.030 A 
ATOM      8  C   UNL     1      -2.899  -1.083   3.346  0.00  0.00    +0.015 A 
ATOM      9  C   UNL     1      -4.077  -1.703   2.905  0.00  0.00    +0.039 A 
ATOM     10  C   UNL     1      -4.271  -1.956   1.553  0.00  0.00    +0.044 A 
ATOM     11  C   UNL     1      -3.283  -1.589   0.634  0.00  0.00    +0.113 A 
ATOM     12  N   UNL     1      -3.185  -1.702  -0.712  0.00  0.00    -0.129 NA
ATOM     13  N   UNL     1      -2.070  -1.206  -1.118  0.00  0.00    -0.065 NA
BRANCH   5  15
ATOM     14  C   UNL     1      -0.183   1.415  -0.209  0.00  0.00    +0.029 C 
ATOM     15  C   UNL     1      -0.020  -0.098  -0.051  0.00  0.00    +0.142 C 
ENDBRANCH   5  15
ENDBRANCH   1   9
BRANCH   3  16
ATOM     16  C   UNL     1      -5.959  -2.114   6.110  0.00  0.00    +0.097 A 
ATOM     17  C   UNL     1      -5.754  -2.973   7.139  0.00  0.00    +0.110 A 
ATOM     18  N   UNL     1      -6.747  -3.237   8.027  0.00  0.00    -0.365 N 
ATOM     19  C   UNL     1      -7.966  -2.656   7.918  0.00  0.00    +0.086 A 
ATOM     20  C   UNL     1      -8.235  -1.791   6.915  0.00  0.00    +0.070 A 
ATOM     21  C   UNL     1      -7.225  -1.487   5.975  0.00  0.00    +0.203 A 
ATOM     22  O   UNL     1      -7.439  -0.704   5.061  0.00  0.00    -0.286 OA
ATOM     23  H   UNL     1      -6.580  -3.855   8.755  0.00  0.00    +0.165 HD
ENDBRANCH   3  16
TORSDOF 3
