REMARK  Name = ZINC09480206
REMARK  10 active torsions:
REMARK  status: ('A' for Active; 'I' for Inactive)
REMARK    1  A    between atoms: C_1  and  C_2
REMARK    2  A    between atoms: C_3  and  C_29
REMARK    3  A    between atoms: C_11  and  C_13
REMARK    4  A    between atoms: C_13  and  C_15
REMARK    5  A    between atoms: C_13  and  O_16
REMARK    6  A    between atoms: O_16  and  C_17
REMARK    7  A    between atoms: C_17  and  C_19
REMARK    8  A    between atoms: C_22  and  C_25
REMARK    9  A    between atoms: C_25  and  O_27
REMARK   10  A    between atoms: O_27  and  C_28
REMARK                            x       y       z     vdW  Elec       q    Type
REMARK                         _______ _______ _______ _____ _____    ______ ____
ROOT
ATOM      1  C   UNL     1       2.360  -4.273  -0.044  0.00  0.00    +0.239 C 
ATOM      2  C   UNL     1       2.353  -4.791   1.395  0.00  0.00    +0.060 C 
ENDROOT
BRANCH   1  13
ATOM      3  C   UNL     1       7.269  -6.422  -4.073  0.00  0.00    +0.045 C 
ATOM      4  C   UNL     1       6.990  -6.390  -2.592  0.00  0.00    -0.026 A 
ATOM      5  C   UNL     1       7.880  -6.894  -1.722  0.00  0.00    -0.008 A 
ATOM      6  S   UNL     1       7.108  -6.625  -0.138  0.00  0.00    -0.073 S 
ATOM      7  C   UNL     1       5.614  -5.843  -0.690  0.00  0.00    +0.116 A 
ATOM      8  C   UNL     1       5.758  -5.814  -2.089  0.00  0.00    +0.075 A 
ATOM      9  C   UNL     1       4.670  -5.222  -2.811  0.00  0.00    +0.260 A 
ATOM     10  O   UNL     1       4.701  -5.150  -4.027  0.00  0.00    -0.267 OA
ATOM     11  N   UNL     1       3.612  -4.752  -2.125  0.00  0.00    -0.307 N 
ATOM     12  H   UNL     1       2.871  -4.354  -2.608  0.00  0.00    +0.170 HD
ATOM     13  C   UNL     1       3.563  -4.819  -0.769  0.00  0.00    +0.152 A 
ATOM     14  N   UNL     1       4.538  -5.352  -0.083  0.00  0.00    -0.223 NA
ATOM     15  C   UNL     1       9.213  -7.535  -2.015  0.00  0.00    +0.052 C 
ENDBRANCH   1  13
BRANCH   1  16
ATOM     16  O   UNL     1       2.416  -2.822  -0.037  0.00  0.00    -0.450 OA
BRANCH  16  17
ATOM     17  C   UNL     1       1.240  -2.165  -0.022  0.00  0.00    +0.340 C 
ATOM     18  O   UNL     1       0.197  -2.786  -0.016  0.00  0.00    -0.245 OA
BRANCH  17  19
ATOM     19  C   UNL     1       1.220  -0.685  -0.013  0.00  0.00    +0.059 A 
ATOM     20  C   UNL     1       0.002  -0.004   0.002  0.00  0.00    +0.016 A 
ATOM     21  C   UNL     1      -0.017   1.374   0.010  0.00  0.00    +0.016 A 
ATOM     22  C   UNL     1       1.183   2.088   0.002  0.00  0.00    +0.059 A 
ATOM     23  C   UNL     1       2.401   1.407  -0.013  0.00  0.00    +0.016 A 
ATOM     24  C   UNL     1       2.420   0.029  -0.021  0.00  0.00    +0.016 A 
BRANCH  22  25
ATOM     25  C   UNL     1       1.163   3.567   0.010  0.00  0.00    +0.339 C 
ATOM     26  O   UNL     1       0.103   4.160   0.023  0.00  0.00    -0.245 OA
BRANCH  25  27
ATOM     27  O   UNL     1       2.320   4.257   0.002  0.00  0.00    -0.464 OA
ATOM     28  C   UNL     1       2.224   5.706   0.011  0.00  0.00    +0.280 C 
ENDBRANCH  25  27
ENDBRANCH  22  25
ENDBRANCH  17  19
ENDBRANCH  16  17
ENDBRANCH   1  16
TORSDOF 6
