REMARK  Name = ZINC18188017
REMARK  8 active torsions:
REMARK  status: ('A' for Active; 'I' for Inactive)
REMARK    1  A    between atoms: C_1  and  C_2
REMARK    2  A    between atoms: C_2  and  O_3
REMARK    3  A    between atoms: O_3  and  C_4
REMARK    4  A    between atoms: C_4  and  C_6
REMARK    5  A    between atoms: C_6  and  N_7
REMARK    6  A    between atoms: C_13  and  C_32
REMARK    7  A    between atoms: N_22  and  C_25
REMARK    8  A    between atoms: C_28  and  C_31
REMARK                            x       y       z     vdW  Elec       q    Type
REMARK                         _______ _______ _______ _____ _____    ______ ____
ROOT
ATOM      1  N   UNL     1      -2.784  -3.888   0.008  0.00  0.00    -0.286 N 
ATOM      2  C   UNL     1      -2.745  -4.568  -1.185  0.00  0.00    +0.091 A 
ATOM      3  C   UNL     1      -2.668  -5.909  -1.084  0.00  0.00    +0.033 A 
ATOM      4  S   UNL     1      -2.624  -6.171   0.674  0.00  0.00    -0.030 S 
ATOM      5  C   UNL     1      -2.728  -4.567   1.168  0.00  0.00    +0.292 A 
ATOM      6  O   UNL     1      -2.750  -4.127   2.304  0.00  0.00    -0.259 OA
ATOM      7  C   UNL     1      -2.654  -6.934  -2.150  0.00  0.00    +0.072 C 
ATOM      8  C   UNL     1      -2.309  -6.447  -3.554  0.00  0.00    +0.110 C 
ATOM      9  C   UNL     1      -2.999  -5.124  -3.915  0.00  0.00    +0.152 C 
ATOM     10  S   UNL     1      -2.761  -3.791  -2.781  0.00  0.00    -0.093 S 
ATOM     11  C   UNL     1      -4.428  -5.532  -4.111  0.00  0.00    +0.240 C 
ATOM     12  O   UNL     1      -5.418  -4.862  -3.912  0.00  0.00    -0.274 OA
ATOM     13  N   UNL     1      -4.375  -6.812  -4.556  0.00  0.00    -0.209 N 
ATOM     14  C   UNL     1      -3.127  -7.388  -4.467  0.00  0.00    +0.232 C 
ATOM     15  O   UNL     1      -2.736  -8.409  -4.991  0.00  0.00    -0.274 OA
ENDROOT
BRANCH  13  16
ATOM     16  C   UNL     1      -5.491  -7.493  -5.062  0.00  0.00    +0.044 A 
ATOM     17  C   UNL     1      -5.367  -8.806  -5.496  0.00  0.00    +0.024 A 
ATOM     18  C   UNL     1      -6.468  -9.474  -5.994  0.00  0.00    +0.005 A 
ATOM     19  C   UNL     1      -7.694  -8.837  -6.062  0.00  0.00    -0.050 A 
ATOM     20  C   UNL     1      -7.820  -7.529  -5.631  0.00  0.00    +0.005 A 
ATOM     21  C   UNL     1      -6.724  -6.857  -5.126  0.00  0.00    +0.024 A 
ATOM     22  C   UNL     1      -8.893  -9.568  -6.607  0.00  0.00    +0.044 C 
ENDBRANCH  13  16
BRANCH   7  23
ATOM     23  C   UNL     1      -1.654  -7.994  -1.765  0.00  0.00    -0.038 A 
ATOM     24  C   UNL     1      -0.327  -7.656  -1.574  0.00  0.00    +0.007 A 
ATOM     25  C   UNL     1       0.590  -8.627  -1.220  0.00  0.00    +0.038 A 
ATOM     26  C   UNL     1       0.180  -9.940  -1.058  0.00  0.00    +0.123 A 
ATOM     27  C   UNL     1      -1.149 -10.277  -1.250  0.00  0.00    +0.038 A 
ATOM     28  C   UNL     1      -2.066  -9.303  -1.598  0.00  0.00    +0.007 A 
ATOM     29  F   UNL     1       1.076 -10.890  -0.713  0.00  0.00    -0.205 F 
ENDBRANCH   7  23
BRANCH   1  30
ATOM     30  C   UNL     1      -2.881  -2.427   0.017  0.00  0.00    +0.246 C 
BRANCH  30  31
ATOM     31  C   UNL     1      -1.496  -1.832   0.006  0.00  0.00    +0.327 C 
ATOM     32  O   UNL     1      -0.528  -2.555  -0.007  0.00  0.00    -0.249 OA
BRANCH  31  33
ATOM     33  O   UNL     1      -1.339  -0.499   0.012  0.00  0.00    -0.464 OA
BRANCH  33  35
ATOM     34  C   UNL     1      -0.019   1.526   0.010  0.00  0.00    +0.048 C 
ATOM     35  C   UNL     1       0.002  -0.004   0.002  0.00  0.00    +0.229 C 
ENDBRANCH  33  35
ENDBRANCH  31  33
ENDBRANCH  30  31
ENDBRANCH   1  30
TORSDOF 6
