REMARK  Name = ZINC05260023
REMARK  7 active torsions:
REMARK  status: ('A' for Active; 'I' for Inactive)
REMARK    1  A    between atoms: C_1  and  C_2
REMARK    2  A    between atoms: C_2  and  C_3
REMARK    3  A    between atoms: C_3  and  C_11
REMARK    4  A    between atoms: C_14  and  N_17
REMARK    5  A    between atoms: N_17  and  S_18
REMARK    6  A    between atoms: S_18  and  C_21
REMARK    7  A    between atoms: C_26  and  N_27
REMARK                            x       y       z     vdW  Elec       q    Type
REMARK                         _______ _______ _______ _____ _____    ______ ____
ROOT
ATOM      1  C   UNL     1       0.405   8.101  -2.025  0.00  0.00    -0.032 A 
ATOM      2  C   UNL     1       1.753   8.220  -2.309  0.00  0.00    +0.006 A 
ATOM      3  C   UNL     1       2.599   7.147  -2.113  0.00  0.00    +0.025 A 
ATOM      4  C   UNL     1       2.096   5.946  -1.629  0.00  0.00    +0.048 A 
ATOM      5  C   UNL     1       0.741   5.828  -1.350  0.00  0.00    +0.025 A 
ATOM      6  C   UNL     1      -0.100   6.907  -1.543  0.00  0.00    +0.006 A 
ENDROOT
BRANCH   1   7
ATOM      7  C   UNL     1      -0.516   9.274  -2.240  0.00  0.00    +0.072 C 
ATOM      8  C   UNL     1      -1.919   8.924  -1.730  0.00  0.00    +0.030 C 
ATOM      9  C   UNL     1      -2.862  10.085  -2.061  0.00  0.00    +0.097 C 
ATOM     10  C   UNL     1      -2.808  10.361  -3.540  0.00  0.00    +0.219 C 
ATOM     11  O   UNL     1      -3.783  10.819  -4.095  0.00  0.00    -0.275 OA
ATOM     12  N   UNL     1      -1.701  10.109  -4.255  0.00  0.00    -0.256 N 
ATOM     13  C   UNL     1      -0.590   9.593  -3.709  0.00  0.00    +0.230 C 
ATOM     14  O   UNL     1       0.374   9.380  -4.413  0.00  0.00    -0.274 OA
ATOM     15  H   UNL     1      -1.705  10.309  -5.205  0.00  0.00    +0.157 HD
BRANCH   7  17
ATOM     16  C   UNL     1       0.203  10.125  -0.004  0.00  0.00    +0.005 C 
ATOM     17  C   UNL     1       0.017  10.489  -1.478  0.00  0.00    +0.017 C 
ENDBRANCH   7  17
ENDBRANCH   1   7
BRANCH   4  18
ATOM     18  N   UNL     1       2.950   4.859  -1.430  0.00  0.00    -0.216 N 
ATOM     19  H   UNL     1       3.595   4.617  -2.113  0.00  0.00    +0.174 HD
BRANCH  18  20
ATOM     20  S   UNL     1       2.860   3.982  -0.029  0.00  0.00    +0.075 S 
ATOM     21  O   UNL     1       2.840   4.921   1.038  0.00  0.00    -0.150 OA
ATOM     22  O   UNL     1       3.844   2.961  -0.125  0.00  0.00    -0.150 OA
BRANCH  20  23
ATOM     23  C   UNL     1       1.294   3.174  -0.018  0.00  0.00    +0.139 A 
ATOM     24  C   UNL     1       0.393   3.427   0.999  0.00  0.00    +0.031 A 
ATOM     25  C   UNL     1      -0.836   2.793   1.007  0.00  0.00    +0.002 A 
ATOM     26  C   UNL     1      -1.160   1.902   0.001  0.00  0.00    +0.002 A 
ATOM     27  C   UNL     1      -0.261   1.654  -1.019  0.00  0.00    +0.035 A 
ATOM     28  C   UNL     1       0.967   2.288  -1.027  0.00  0.00    +0.153 A 
BRANCH  28  29
ATOM     29  N   UNL     1       1.932   2.018  -2.116  0.00  0.00    +0.058 N 
ATOM     30  O   UNL     1       1.625   1.277  -3.033  0.00  0.00    -0.126 OA
ATOM     31  O   UNL     1       3.034   2.537  -2.097  0.00  0.00    -0.126 OA
ENDBRANCH  28  29
ENDBRANCH  20  23
ENDBRANCH  18  20
ENDBRANCH   4  18
TORSDOF 6
