REMARK  Name = ZINC35295166
REMARK  3 active torsions:
REMARK  status: ('A' for Active; 'I' for Inactive)
REMARK    1  A    between atoms: C_1  and  C_2
REMARK    2  A    between atoms: C_7  and  N_8
REMARK    3  A    between atoms: C_11  and  C_15
REMARK                            x       y       z     vdW  Elec       q    Type
REMARK                         _______ _______ _______ _____ _____    ______ ____
ROOT
ATOM      1  C   UNL     1       2.055   0.602   0.514  0.00  0.00    +0.046 C 
ATOM      2  C   UNL     1       0.996  -0.437   0.244  0.00  0.00    -0.025 A 
ATOM      3  C   UNL     1       0.992  -1.124  -0.953  0.00  0.00    +0.007 A 
ATOM      4  C   UNL     1       0.021  -2.077  -1.203  0.00  0.00    +0.020 A 
ATOM      5  C   UNL     1      -0.952  -2.349  -0.255  0.00  0.00    +0.043 A 
ATOM      6  C   UNL     1      -0.958  -1.669   0.946  0.00  0.00    +0.048 A 
ATOM      7  C   UNL     1       0.022  -0.710   1.206  0.00  0.00    +0.071 A 
ATOM      8 CL   UNL     1      -2.165  -3.547  -0.579  0.00  0.00    -0.083 Cl
ENDROOT
BRANCH   7   9
ATOM      9  N   UNL     1       0.026  -0.036   2.398  0.00  0.00    -0.226 NA
ATOM     10  C   UNL     1      -0.054  -0.701   3.529  0.00  0.00    +0.155 C 
ATOM     11  N   UNL     1      -0.165  -0.207   4.814  0.00  0.00    -0.320 N 
ATOM     12  C   UNL     1      -0.914  -1.006   5.769  0.00  0.00    +0.079 C 
ATOM     13  C   UNL     1      -0.951  -2.505   5.389  0.00  0.00    +0.099 C 
ATOM     14  S   UNL     1      -0.052  -2.470   3.787  0.00  0.00    -0.089 S 
ATOM     15  C   UNL     1      -2.350  -0.480   5.836  0.00  0.00    +0.028 C 
ATOM     16  H   UNL     1       0.239   0.638   5.067  0.00  0.00    +0.148 HD
ENDBRANCH   7   9
TORSDOF 1
