REMARK  Name = ZINC09817670
REMARK  6 active torsions:
REMARK  status: ('A' for Active; 'I' for Inactive)
REMARK    1  A    between atoms: C_10  and  C_12
REMARK    2  A    between atoms: C_12  and  O_14
REMARK    3  A    between atoms: O_14  and  C_15
REMARK    4  A    between atoms: C_15  and  C_16
REMARK    5  A    between atoms: N_18  and  C_19
REMARK    6  A    between atoms: N_18  and  C_27
REMARK                            x       y       z     vdW  Elec       q    Type
REMARK                         _______ _______ _______ _____ _____    ______ ____
ROOT
ATOM      1  C   UNL     1      -0.365  -8.130  -0.118  0.00  0.00    +0.328 C 
ENDROOT
BRANCH   1   2
ATOM      2  C   UNL     1      -1.775  -8.458  -0.536  0.00  0.00    +0.254 C 
ATOM      3  O   UNL     1      -2.616  -7.585  -0.571  0.00  0.00    -0.272 OA
ATOM      4  N   UNL     1      -2.101  -9.722  -0.872  0.00  0.00    -0.291 N 
BRANCH   4   5
ATOM      5  C   UNL     1      -1.139 -10.807  -0.665  0.00  0.00    +0.099 C 
ATOM      6  C   UNL     1       0.114 -10.546  -1.518  0.00  0.00    +0.047 C 
ATOM      7  C   UNL     1       1.230 -11.524  -1.050  0.00  0.00    +0.168 C 
ATOM      8  S   UNL     1       0.988 -11.464   0.775  0.00  0.00    -0.029 S 
ATOM      9  O   UNL     1       1.045 -12.786   1.293  0.00  0.00    -0.174 OA
ATOM     10  O   UNL     1       1.834 -10.462   1.321  0.00  0.00    -0.174 OA
ATOM     11  C   UNL     1      -0.752 -10.873   0.832  0.00  0.00    +0.188 C 
ENDBRANCH   4   5
BRANCH   4  12
ATOM     12  C   UNL     1      -3.419 -10.011  -1.444  0.00  0.00    +0.077 C 
ATOM     13  C   UNL     1      -4.507  -9.600  -0.450  0.00  0.00    +0.022 C 
ATOM     14  C   UNL     1      -5.883  -9.901  -1.047  0.00  0.00    +0.002 C 
ATOM     15  C   UNL     1      -6.058  -9.116  -2.349  0.00  0.00    +0.000 C 
ATOM     16  C   UNL     1      -4.969  -9.527  -3.342  0.00  0.00    +0.002 C 
ATOM     17  C   UNL     1      -3.593  -9.226  -2.745  0.00  0.00    +0.022 C 
ENDBRANCH   4  12
ENDBRANCH   1   2
BRANCH   1  18
ATOM     18  O   UNL     1      -0.310  -6.784   0.357  0.00  0.00    -0.451 OA
BRANCH  18  19
ATOM     19  C   UNL     1       0.890  -6.329   0.774  0.00  0.00    +0.346 C 
ATOM     20  O   UNL     1       1.864  -7.058   0.734  0.00  0.00    -0.244 OA
BRANCH  19  30
ATOM     21  C   UNL     1      -0.860   0.792   3.125  0.00  0.00    +0.001 A 
ATOM     22  C   UNL     1       0.266   1.567   3.348  0.00  0.00    +0.004 A 
ATOM     23  C   UNL     1       1.530   1.050   3.139  0.00  0.00    +0.046 A 
ATOM     24  C   UNL     1       1.685  -0.255   2.708  0.00  0.00    +0.129 A 
ATOM     25  C   UNL     1       0.534  -1.047   2.496  0.00  0.00    +0.031 A 
ATOM     26  C   UNL     1      -0.729  -0.515   2.698  0.00  0.00    +0.012 A 
ATOM     27  C   UNL     1       0.786  -2.424   2.089  0.00  0.00    +0.030 A 
ATOM     28  C   UNL     1       2.059  -3.010   2.168  0.00  0.00    +0.005 A 
ATOM     29  C   UNL     1       2.154  -4.308   1.743  0.00  0.00    +0.030 A 
ATOM     30  C   UNL     1       1.021  -4.961   1.273  0.00  0.00    +0.097 A 
ATOM     31  S   UNL     1      -0.236  -3.699   1.435  0.00  0.00    -0.081 S 
ATOM     32  C   UNL     1       3.192  -2.154   2.722  0.00  0.00    +0.265 C 
ATOM     33  O   UNL     1       2.910  -0.778   2.470  0.00  0.00    -0.487 OA
ENDBRANCH  19  30
ENDBRANCH  18  19
ENDBRANCH   1  18
TORSDOF 6
