REMARK  Name = ZINC09942116
REMARK  6 active torsions:
REMARK  status: ('A' for Active; 'I' for Inactive)
REMARK    1  A    between atoms: C_1  and  C_2
REMARK    2  A    between atoms: C_5  and  N_9
REMARK    3  A    between atoms: C_6  and  C_8
REMARK    4  A    between atoms: C_10  and  C_12
REMARK    5  A    between atoms: C_13  and  C_29
REMARK    6  A    between atoms: C_20  and  C_22
REMARK                            x       y       z     vdW  Elec       q    Type
REMARK                         _______ _______ _______ _____ _____    ______ ____
ROOT
ATOM      1  C   UNL     1      -4.843   3.554   5.721  0.00  0.00    +0.060 C 
ATOM      2  C   UNL     1      -6.172   3.673   5.584  0.00  0.00    +0.018 C 
ATOM      3  N   UNL     1      -6.982   4.083   6.615  0.00  0.00    -0.286 N 
ATOM      4  C   UNL     1      -6.422   4.139   7.883  0.00  0.00    +0.240 A 
ATOM      5  N   UNL     1      -6.974   4.278   9.055  0.00  0.00    -0.092 NA
ATOM      6  N   UNL     1      -6.073   4.268   9.977  0.00  0.00    -0.021 NA
ATOM      7  N   UNL     1      -4.897   4.124   9.457  0.00  0.00    -0.042 NA
ATOM      8  N   UNL     1      -5.081   4.038   8.079  0.00  0.00    -0.201 N 
ATOM      9  C   UNL     1      -4.115   3.878   6.998  0.00  0.00    +0.179 C 
ATOM     10  C   UNL     1      -6.800   3.340   4.255  0.00  0.00    +0.061 C 
ATOM     11  H   UNL     1      -7.908   4.328   6.462  0.00  0.00    +0.155 HD
ENDROOT
BRANCH   9  12
ATOM     12  C   UNL     1      -3.339   5.157   6.824  0.00  0.00    -0.018 A 
ATOM     13  C   UNL     1      -4.000   6.329   6.505  0.00  0.00    +0.007 A 
ATOM     14  C   UNL     1      -3.289   7.504   6.350  0.00  0.00    +0.015 A 
ATOM     15  C   UNL     1      -1.914   7.505   6.503  0.00  0.00    +0.018 A 
ATOM     16  C   UNL     1      -1.252   6.332   6.818  0.00  0.00    +0.015 A 
ATOM     17  C   UNL     1      -1.965   5.159   6.978  0.00  0.00    +0.007 A 
ATOM     18 BR   UNL     1      -0.940   9.111   6.284  0.00  0.00    -0.050 Br
ENDBRANCH   9  12
BRANCH   1  20
ATOM     19  N   UNL     1      -3.686   3.989   3.672  0.00  0.00    -0.281 N 
ATOM     20  C   UNL     1      -4.089   3.108   4.609  0.00  0.00    +0.248 C 
ATOM     21  O   UNL     1      -3.804   1.929   4.500  0.00  0.00    -0.270 OA
ATOM     22  H   UNL     1      -3.842   4.938   3.799  0.00  0.00    +0.155 HD
BRANCH  19  27
ATOM     23  C   UNL     1      -1.080   2.145  -1.017  0.00  0.00    +0.044 C 
ATOM     24  C   UNL     1      -1.772   2.635   0.229  0.00  0.00    -0.050 A 
ATOM     25  C   UNL     1      -2.625   1.794   0.921  0.00  0.00    +0.005 A 
ATOM     26  C   UNL     1      -3.257   2.238   2.065  0.00  0.00    +0.024 A 
ATOM     27  C   UNL     1      -3.043   3.534   2.516  0.00  0.00    +0.037 A 
ATOM     28  C   UNL     1      -2.190   4.378   1.817  0.00  0.00    -0.029 A 
ATOM     29  C   UNL     1      -1.557   3.925   0.676  0.00  0.00    +0.008 A 
ATOM     30  C   UNL     1      -1.955   5.785   2.303  0.00  0.00    +0.045 C 
ENDBRANCH  19  27
ENDBRANCH   1  20
TORSDOF 3
