REMARK  Name = ZINC66952656
REMARK  9 active torsions:
REMARK  status: ('A' for Active; 'I' for Inactive)
REMARK    1  A    between atoms: C_1  and  C_2
REMARK    2  A    between atoms: C_2  and  C_3
REMARK    3  A    between atoms: C_3  and  C_4
REMARK    4  A    between atoms: N_6  and  C_7
REMARK    5  A    between atoms: C_11  and  N_14
REMARK    6  A    between atoms: C_12  and  C_13
REMARK    7  A    between atoms: N_17  and  C_18
REMARK    8  A    between atoms: C_18  and  C_19
REMARK    9  A    between atoms: C_19  and  O_29
REMARK                            x       y       z     vdW  Elec       q    Type
REMARK                         _______ _______ _______ _____ _____    ______ ____
ROOT
ATOM      1  N   UNL     1       3.098  -6.723  -4.003  0.00  0.00    -0.269 N 
ATOM      2  C   UNL     1       3.025  -8.067  -4.085  0.00  0.00    +0.304 C 
ATOM      3  O   UNL     1       2.435  -8.697  -3.229  0.00  0.00    -0.253 OA
ATOM      4  N   UNL     1       3.605  -8.711  -5.117  0.00  0.00    -0.296 N 
ATOM      5  H   UNL     1       3.625  -6.226  -4.648  0.00  0.00    +0.156 HD
ATOM      6  H   UNL     1       4.075  -8.209  -5.800  0.00  0.00    +0.150 HD
ENDROOT
BRANCH   1  11
ATOM      7  C   UNL     1       1.192  -4.126  -2.221  0.00  0.00    +0.038 A 
ATOM      8  C   UNL     1       1.065  -4.712  -0.968  0.00  0.00    +0.024 A 
ATOM      9  C   UNL     1       1.610  -5.958  -0.727  0.00  0.00    +0.004 A 
ATOM     10  C   UNL     1       2.284  -6.626  -1.731  0.00  0.00    +0.024 A 
ATOM     11  C   UNL     1       2.415  -6.046  -2.986  0.00  0.00    +0.039 A 
ATOM     12  C   UNL     1       1.863  -4.797  -3.233  0.00  0.00    -0.008 A 
ATOM     13  C   UNL     1       1.998  -4.168  -4.596  0.00  0.00    +0.047 C 
BRANCH   7  16
ATOM     14  C   UNL     1      -0.398  -2.428  -1.722  0.00  0.00    +0.217 C 
ATOM     15  O   UNL     1      -0.916  -3.167  -0.911  0.00  0.00    -0.275 OA
ATOM     16  N   UNL     1       0.640  -2.864  -2.464  0.00  0.00    -0.285 N 
ATOM     17  H   UNL     1       1.003  -2.302  -3.167  0.00  0.00    +0.155 HD
BRANCH  14  18
ATOM     18  C   UNL     1      -0.914  -1.024  -1.900  0.00  0.00    +0.096 C 
BRANCH  18  20
ATOM     19  C   UNL     1      -2.610   0.640  -1.126  0.00  0.00    +0.004 C 
ATOM     20  C   UNL     1      -2.085  -0.786  -0.945  0.00  0.00    +0.006 C 
ENDBRANCH  18  20
ENDBRANCH  14  18
ENDBRANCH   7  16
ENDBRANCH   1  11
BRANCH   4  21
ATOM     21  C   UNL     1       3.525 -10.171  -5.206  0.00  0.00    +0.145 C 
BRANCH  21  22
ATOM     22  C   UNL     1       4.361 -10.656  -6.392  0.00  0.00    +0.107 C 
ATOM     23  C   UNL     1       3.918  -9.920  -7.655  0.00  0.00    +0.041 C 
ATOM     24  C   UNL     1       4.608 -10.570  -8.861  0.00  0.00    +0.008 C 
ATOM     25  C   UNL     1       4.006 -11.957  -9.070  0.00  0.00    +0.035 C 
ATOM     26  C   UNL     1       4.020 -12.741  -7.784  0.00  0.00    -0.041 A 
ATOM     27  C   UNL     1       4.179 -12.143  -6.554  0.00  0.00    -0.011 A 
ATOM     28  C   UNL     1       4.176 -12.922  -5.405  0.00  0.00    +0.007 A 
ATOM     29  C   UNL     1       4.018 -14.291  -5.486  0.00  0.00    +0.000 A 
ATOM     30  C   UNL     1       3.862 -14.891  -6.721  0.00  0.00    +0.000 A 
ATOM     31  C   UNL     1       3.863 -14.118  -7.864  0.00  0.00    +0.004 A 
BRANCH  22  32
ATOM     32  O   UNL     1       5.740 -10.375  -6.143  0.00  0.00    -0.382 OA
ATOM     33  H   UNL     1       6.091 -10.802  -5.350  0.00  0.00    +0.211 HD
ENDBRANCH  22  32
ENDBRANCH  21  22
ENDBRANCH   4  21
TORSDOF 7
