REMARK  Name = ZINC09288071
REMARK  9 active torsions:
REMARK  status: ('A' for Active; 'I' for Inactive)
REMARK    1  A    between atoms: C_1  and  C_2
REMARK    2  A    between atoms: C_2  and  C_24
REMARK    3  A    between atoms: N_3  and  N_4
REMARK    4  A    between atoms: C_9  and  C_12
REMARK    5  A    between atoms: C_12  and  C_13
REMARK    6  A    between atoms: N_15  and  C_16
REMARK    7  A    between atoms: C_19  and  C_22
REMARK    8  A    between atoms: C_27  and  O_30
REMARK    9  A    between atoms: O_30  and  C_31
REMARK                            x       y       z     vdW  Elec       q    Type
REMARK                         _______ _______ _______ _____ _____    ______ ____
ROOT
ATOM      1  N   UNL     1      -2.748  -0.063   3.979  0.00  0.00    -0.126 NA
ATOM      2  C   UNL     1      -1.904   0.561   3.184  0.00  0.00    +0.183 C 
ATOM      3  N   UNL     1      -0.564   0.810   3.393  0.00  0.00    -0.263 N 
ATOM      4  C   UNL     1       0.182   1.452   2.510  0.00  0.00    +0.233 C 
ATOM      5  O   UNL     1       1.360   1.669   2.697  0.00  0.00    -0.274 OA
ATOM      6  C   UNL     1      -0.530   1.902   1.244  0.00  0.00    +0.149 C 
ATOM      7  S   UNL     1      -2.227   1.285   1.582  0.00  0.00    -0.075 S 
ATOM      8  H   UNL     1      -0.153   0.503   4.216  0.00  0.00    +0.157 HD
ENDROOT
BRANCH   1  11
ATOM      9  C   UNL     1      -4.618  -1.319   5.486  0.00  0.00    +0.068 C 
ATOM     10  C   UNL     1      -3.180  -1.147   5.900  0.00  0.00    +0.068 C 
ATOM     11  N   UNL     1      -2.343  -0.528   5.112  0.00  0.00    -0.152 NA
BRANCH  10  12
ATOM     12  C   UNL     1      -2.718  -1.677   7.193  0.00  0.00    -0.002 A 
ATOM     13  C   UNL     1      -3.614  -2.336   8.042  0.00  0.00    +0.013 A 
ATOM     14  C   UNL     1      -3.175  -2.836   9.248  0.00  0.00    +0.046 A 
ATOM     15  C   UNL     1      -1.848  -2.675   9.628  0.00  0.00    +0.120 A 
ATOM     16  C   UNL     1      -0.956  -2.017   8.791  0.00  0.00    +0.046 A 
ATOM     17  C   UNL     1      -1.383  -1.519   7.580  0.00  0.00    +0.013 A 
BRANCH  15  18
ATOM     18  O   UNL     1      -1.422  -3.165  10.822  0.00  0.00    -0.495 OA
ATOM     19  C   UNL     1      -2.391  -3.831  11.633  0.00  0.00    +0.277 C 
ENDBRANCH  15  18
ENDBRANCH  10  12
ENDBRANCH   1  11
BRANCH   6  20
ATOM     20  C   UNL     1       0.067   1.233   0.005  0.00  0.00    +0.120 C 
BRANCH  20  21
ATOM     21  C   UNL     1      -0.647   1.728  -1.227  0.00  0.00    +0.219 C 
ATOM     22  O   UNL     1      -1.545   2.537  -1.123  0.00  0.00    -0.275 OA
ATOM     23  N   UNL     1      -0.288   1.272  -2.443  0.00  0.00    -0.285 N 
ATOM     24  H   UNL     1       0.478   0.685  -2.534  0.00  0.00    +0.155 HD
BRANCH  23  25
ATOM     25  C   UNL     1      -1.019   1.645  -3.571  0.00  0.00    +0.033 A 
ATOM     26  C   UNL     1      -2.392   1.845  -3.473  0.00  0.00    +0.024 A 
ATOM     27  C   UNL     1      -3.116   2.219  -4.583  0.00  0.00    +0.017 A 
ATOM     28  C   UNL     1      -2.471   2.385  -5.812  0.00  0.00    +0.063 A 
ATOM     29  C   UNL     1      -1.091   2.178  -5.907  0.00  0.00    +0.017 A 
ATOM     30  C   UNL     1      -0.373   1.810  -4.792  0.00  0.00    +0.024 A 
BRANCH  28  31
ATOM     31  C   UNL     1      -3.243   2.780  -7.004  0.00  0.00    +0.387 C 
ATOM     32  O   UNL     1      -2.681   2.925  -8.072  0.00  0.00    -0.241 OA
ATOM     33  O   UNL     1      -4.573   2.979  -6.910  0.00  0.00    -0.241 OA
ENDBRANCH  28  31
ENDBRANCH  23  25
ENDBRANCH  20  21
ENDBRANCH   6  20
TORSDOF 7
