REMARK  Name = ZINC39710630
REMARK  14 active torsions:
REMARK  status: ('A' for Active; 'I' for Inactive)
REMARK    1  A    between atoms: C_1  and  C_2
REMARK    2  A    between atoms: C_7  and  C_14
REMARK    3  A    between atoms: C_14  and  C_16
REMARK    4  A    between atoms: C_14  and  N_25
REMARK    5  A    between atoms: N_20  and  C_21
REMARK    6  A    between atoms: C_21  and  C_22
REMARK    7  A    between atoms: C_22  and  O_23
REMARK    8  A    between atoms: O_23  and  C_24
REMARK    9  A    between atoms: N_25  and  C_26
REMARK   10  A    between atoms: N_25  and  C_35
REMARK   11  A    between atoms: C_26  and  C_27
REMARK   12  A    between atoms: C_30  and  O_33
REMARK   13  A    between atoms: O_33  and  C_34
REMARK   14  A    between atoms: C_35  and  C_36
REMARK                            x       y       z     vdW  Elec       q    Type
REMARK                         _______ _______ _______ _____ _____    ______ ____
ROOT
ATOM      1  C   UNL     1      -1.600  -6.006   1.675  0.00  0.00    +0.019 C 
ENDROOT
BRANCH   1   8
ATOM      2  C   UNL     1      -2.692   1.167  -0.215  0.00  0.00    +0.044 C 
ATOM      3  C   UNL     1      -2.271  -0.278  -0.143  0.00  0.00    -0.049 A 
ATOM      4  C   UNL     1      -2.290  -1.040  -1.312  0.00  0.00    +0.004 A 
ATOM      5  C   UNL     1      -1.922  -2.347  -1.311  0.00  0.00    +0.010 A 
ATOM      6  C   UNL     1      -1.498  -2.959  -0.051  0.00  0.00    -0.007 A 
ATOM      7  C   UNL     1      -1.119  -4.268  -0.002  0.00  0.00    -0.006 C 
ATOM      8  C   UNL     1      -0.694  -4.818   1.345  0.00  0.00    +0.092 C 
ATOM      9  C   UNL     1      -0.724  -3.872   2.524  0.00  0.00    +0.223 C 
ATOM     10  O   UNL     1      -0.392  -4.260   3.628  0.00  0.00    -0.275 OA
ATOM     11  N   UNL     1      -1.111  -2.619   2.349  0.00  0.00    -0.285 N 
ATOM     12  C   UNL     1      -1.486  -2.131   1.167  0.00  0.00    +0.041 A 
ATOM     13  C   UNL     1      -1.882  -0.786   1.056  0.00  0.00    +0.027 A 
ATOM     14  H   UNL     1      -1.124  -2.028   3.118  0.00  0.00    +0.155 HD
ENDBRANCH   1   8
BRANCH   1  15
ATOM     15  C   UNL     1      -3.007  -5.516   1.901  0.00  0.00    +0.139 A 
ATOM     16  N   UNL     1      -3.454  -4.880   2.956  0.00  0.00    -0.115 NA
ATOM     17  N   UNL     1      -4.705  -4.633   2.771  0.00  0.00    -0.023 NA
ATOM     18  N   UNL     1      -5.067  -5.094   1.625  0.00  0.00    -0.044 NA
ATOM     19  N   UNL     1      -4.047  -5.641   1.056  0.00  0.00    -0.229 N 
BRANCH  19  20
ATOM     20  C   UNL     1      -4.026  -6.281  -0.262  0.00  0.00    +0.175 C 
BRANCH  20  21
ATOM     21  C   UNL     1      -4.361  -7.767  -0.113  0.00  0.00    +0.183 C 
BRANCH  21  22
ATOM     22  O   UNL     1      -4.340  -8.391  -1.398  0.00  0.00    -0.381 OA
ATOM     23  C   UNL     1      -4.641  -9.788  -1.371  0.00  0.00    +0.194 C 
ENDBRANCH  21  22
ENDBRANCH  20  21
ENDBRANCH  19  20
ENDBRANCH   1  15
BRANCH   1  24
ATOM     24  N   UNL     1      -1.112  -6.672   2.889  0.00  0.00    +0.392 N 
ATOM     25  H   UNL     1      -0.994  -5.989   3.623  0.00  0.00    -0.080 HD
BRANCH  24  26
ATOM     26  C   UNL     1      -2.086  -7.686   3.316  0.00  0.00    -0.042 C 
BRANCH  26  27
ATOM     27  C   UNL     1      -1.646  -8.284   4.628  0.00  0.00    -0.064 A 
ATOM     28  C   UNL     1      -0.823  -9.395   4.639  0.00  0.00    +0.005 A 
ATOM     29  C   UNL     1      -0.419  -9.945   5.840  0.00  0.00    +0.046 A 
ATOM     30  C   UNL     1      -0.839  -9.381   7.036  0.00  0.00    +0.120 A 
ATOM     31  C   UNL     1      -1.665  -8.266   7.022  0.00  0.00    +0.046 A 
ATOM     32  C   UNL     1      -2.062  -7.717   5.818  0.00  0.00    +0.005 A 
BRANCH  30  33
ATOM     33  O   UNL     1      -0.444  -9.921   8.219  0.00  0.00    -0.495 OA
ATOM     34  C   UNL     1      -0.915  -9.288   9.410  0.00  0.00    +0.277 C 
ENDBRANCH  30  33
ENDBRANCH  26  27
ENDBRANCH  24  26
BRANCH  24  35
ATOM     35  C   UNL     1       0.177  -7.318   2.610  0.00  0.00    -0.040 C 
BRANCH  35  36
ATOM     36  C   UNL     1       1.294  -6.338   2.861  0.00  0.00    -0.046 A 
ATOM     37  C   UNL     1       2.021  -5.815   1.801  0.00  0.00    +0.005 A 
ATOM     38  C   UNL     1       3.040  -4.917   2.079  0.00  0.00    +0.020 A 
ATOM     39  C   UNL     1       3.296  -4.575   3.394  0.00  0.00    +0.111 A 
ATOM     40  N   UNL     1       2.585  -5.093   4.376  0.00  0.00    -0.263 NA
ATOM     41  C   UNL     1       1.604  -5.945   4.149  0.00  0.00    +0.112 A 
ENDBRANCH  35  36
ENDBRANCH  24  35
ENDBRANCH   1  24
TORSDOF 11
