REMARK  Name = ZINC38830046
REMARK  8 active torsions:
REMARK  status: ('A' for Active; 'I' for Inactive)
REMARK    1  A    between atoms: C_1  and  O_2
REMARK    2  A    between atoms: O_2  and  C_3
REMARK    3  A    between atoms: C_3  and  C_4
REMARK    4  A    between atoms: C_4  and  N_5
REMARK    5  A    between atoms: C_9  and  S_25
REMARK    6  A    between atoms: N_14  and  C_15
REMARK    7  A    between atoms: C_15  and  C_17
REMARK    8  A    between atoms: S_25  and  C_28
REMARK                            x       y       z     vdW  Elec       q    Type
REMARK                         _______ _______ _______ _____ _____    ______ ____
ROOT
ATOM      1  N   UNL     1       1.401  -2.532  -0.162  0.00  0.00    -0.319 N 
ATOM      2  C   UNL     1       0.781  -2.651  -1.391  0.00  0.00    +0.058 A 
ATOM      3  C   UNL     1      -0.559  -2.420  -1.733  0.00  0.00    +0.029 A 
ATOM      4  C   UNL     1      -0.992  -2.596  -3.026  0.00  0.00    +0.029 A 
ATOM      5  C   UNL     1      -0.124  -3.006  -4.024  0.00  0.00    +0.089 A 
ATOM      6  C   UNL     1       1.204  -3.242  -3.713  0.00  0.00    +0.044 A 
ATOM      7  C   UNL     1       1.639  -3.065  -2.421  0.00  0.00    +0.041 A 
ATOM      8  S   UNL     1       3.199  -3.245  -1.597  0.00  0.00    -0.052 S 
ATOM      9  C   UNL     1       2.727  -2.803  -0.046  0.00  0.00    +0.167 A 
ATOM     10  N   UNL     1       3.480  -2.735   1.046  0.00  0.00    -0.152 NA
ENDROOT
BRANCH   5  11
ATOM     11  S   UNL     1      -0.704  -3.227  -5.673  0.00  0.00    -0.006 S 
ATOM     12  O   UNL     1       0.181  -4.181  -6.245  0.00  0.00    -0.170 OA
ATOM     13  O   UNL     1      -2.088  -3.514  -5.536  0.00  0.00    -0.170 OA
ATOM     14  C   UNL     1      -0.477  -1.611  -6.467  0.00  0.00    +0.200 C 
ENDBRANCH   5  11
BRANCH  10  15
ATOM     15  C   UNL     1       4.780  -3.040   0.982  0.00  0.00    +0.271 C 
ATOM     16  O   UNL     1       5.275  -3.379  -0.079  0.00  0.00    -0.268 OA
BRANCH  15  17
ATOM     17  C   UNL     1       5.620  -2.965   2.200  0.00  0.00    +0.058 A 
ATOM     18  C   UNL     1       5.055  -2.582   3.417  0.00  0.00    +0.029 A 
ATOM     19  C   UNL     1       5.842  -2.514   4.548  0.00  0.00    +0.019 A 
ATOM     20  C   UNL     1       7.190  -2.825   4.478  0.00  0.00    +0.017 A 
ATOM     21  C   UNL     1       7.756  -3.204   3.275  0.00  0.00    +0.022 A 
ATOM     22  C   UNL     1       6.978  -3.282   2.136  0.00  0.00    +0.053 A 
ATOM     23 CL   UNL     1       7.688  -3.765   0.627  0.00  0.00    -0.083 Cl
ATOM     24 BR   UNL     1       5.079  -1.996   6.199  0.00  0.00    -0.050 Br
ENDBRANCH  15  17
ENDBRANCH  10  15
BRANCH   1  25
ATOM     25  C   UNL     1       0.633  -2.108   1.011  0.00  0.00    +0.152 C 
BRANCH  25  26
ATOM     26  C   UNL     1       0.673  -0.582   1.123  0.00  0.00    +0.181 C 
BRANCH  26  28
ATOM     27  C   UNL     1      -0.017   1.425   0.010  0.00  0.00    +0.194 C 
ATOM     28  O   UNL     1       0.002  -0.004   0.002  0.00  0.00    -0.381 OA
ENDBRANCH  26  28
ENDBRANCH  25  26
ENDBRANCH   1  25
TORSDOF 6
