REMARK  Name = ZINC58865389
REMARK  15 active torsions:
REMARK  status: ('A' for Active; 'I' for Inactive)
REMARK    1  A    between atoms: C_1  and  C_2
REMARK    2  A    between atoms: C_2  and  N_3
REMARK    3  A    between atoms: N_3  and  C_4
REMARK    4  A    between atoms: N_3  and  C_6
REMARK    5  A    between atoms: C_4  and  C_5
REMARK    6  A    between atoms: C_6  and  C_8
REMARK    7  A    between atoms: C_6  and  C_27
REMARK    8  A    between atoms: C_8  and  N_9
REMARK    9  A    between atoms: N_12  and  C_13
REMARK   10  A    between atoms: C_16  and  S_19
REMARK   11  A    between atoms: S_19  and  N_22
REMARK   12  A    between atoms: N_22  and  C_23
REMARK   13  A    between atoms: N_22  and  C_24
REMARK   14  A    between atoms: C_24  and  C_25
REMARK   15  A    between atoms: C_24  and  C_26
REMARK                            x       y       z     vdW  Elec       q    Type
REMARK                         _______ _______ _______ _____ _____    ______ ____
ROOT
ATOM      1  N   UNL     1      -1.559   1.225  -0.023  0.00  0.00    -0.300 N 
ATOM      2  C   UNL     1      -1.944   2.428  -0.492  0.00  0.00    +0.304 C 
ATOM      3  O   UNL     1      -3.097   2.605  -0.837  0.00  0.00    -0.253 OA
ATOM      4  N   UNL     1      -1.053   3.435  -0.578  0.00  0.00    -0.269 N 
ATOM      5  H   UNL     1      -0.640   1.083   0.252  0.00  0.00    +0.150 HD
ATOM      6  H   UNL     1      -0.120   3.276  -0.364  0.00  0.00    +0.156 HD
ENDROOT
BRANCH   4   7
ATOM      7  C   UNL     1      -1.472   4.709  -0.975  0.00  0.00    +0.035 A 
ATOM      8  C   UNL     1      -0.629   5.517  -1.726  0.00  0.00    +0.025 A 
ATOM      9  C   UNL     1      -1.046   6.774  -2.117  0.00  0.00    +0.030 A 
ATOM     10  C   UNL     1      -2.303   7.229  -1.761  0.00  0.00    +0.106 A 
ATOM     11  C   UNL     1      -3.145   6.427  -1.013  0.00  0.00    +0.030 A 
ATOM     12  C   UNL     1      -2.736   5.167  -0.624  0.00  0.00    +0.025 A 
BRANCH  10  13
ATOM     13  S   UNL     1      -2.832   8.833  -2.262  0.00  0.00    +0.061 S 
ATOM     14  O   UNL     1      -3.836   9.236  -1.341  0.00  0.00    -0.153 OA
ATOM     15  O   UNL     1      -1.655   9.597  -2.487  0.00  0.00    -0.153 OA
BRANCH  13  16
ATOM     16  N   UNL     1      -3.577   8.667  -3.731  0.00  0.00    -0.177 NA
ATOM     17  C   UNL     1      -5.017   8.409  -3.797  0.00  0.00    +0.132 C 
BRANCH  16  18
ATOM     18  C   UNL     1      -2.795   8.777  -4.965  0.00  0.00    +0.073 C 
ATOM     19  C   UNL     1      -2.901   7.471  -5.755  0.00  0.00    +0.025 C 
ATOM     20  C   UNL     1      -3.338   9.931  -5.812  0.00  0.00    +0.025 C 
ENDBRANCH  16  18
ENDBRANCH  13  16
ENDBRANCH  10  13
ENDBRANCH   4   7
BRANCH   1  21
ATOM     21  C   UNL     1      -2.528   0.130   0.070  0.00  0.00    +0.095 C 
BRANCH  21  22
ATOM     22  C   UNL     1      -1.873  -1.075   0.747  0.00  0.00    -0.020 C 
BRANCH  22  23
ATOM     23  C   UNL     1      -2.818  -2.248   0.710  0.00  0.00    -0.052 A 
ATOM     24  C   UNL     1      -2.923  -3.100   1.794  0.00  0.00    +0.009 A 
ATOM     25  C   UNL     1      -3.783  -4.145   1.728  0.00  0.00    +0.045 A 
ATOM     26  S   UNL     1      -4.481  -3.947   0.097  0.00  0.00    -0.105 S 
ATOM     27  C   UNL     1      -3.583  -2.480  -0.385  0.00  0.00    +0.047 A 
ENDBRANCH  22  23
BRANCH  22  28
ATOM     28  N   UNL     1      -0.634  -1.422   0.038  0.00  0.00    +0.385 N 
ATOM     29  H   UNL     1      -0.022  -0.620   0.018  0.00  0.00    -0.081 HD
BRANCH  28  31
ATOM     30  C   UNL     1       0.522  -2.055   2.102  0.00  0.00    -0.017 C 
ATOM     31  C   UNL     1       0.034  -2.531   0.732  0.00  0.00    -0.081 C 
ENDBRANCH  28  31
BRANCH  28  32
ATOM     32  C   UNL     1      -0.955  -1.827  -1.337  0.00  0.00    -0.081 C 
ATOM     33  C   UNL     1      -0.947  -0.597  -2.247  0.00  0.00    -0.017 C 
ENDBRANCH  28  32
ENDBRANCH  22  28
ENDBRANCH  21  22
ENDBRANCH   1  21
TORSDOF 10
