REMARK  Name = ZINC18059700
REMARK  3 active torsions:
REMARK  status: ('A' for Active; 'I' for Inactive)
REMARK    1  A    between atoms: C_3  and  C_10
REMARK    2  A    between atoms: C_5  and  N_7
REMARK    3  A    between atoms: N_19  and  C_22
REMARK                            x       y       z     vdW  Elec       q    Type
REMARK                         _______ _______ _______ _____ _____    ______ ____
ROOT
ATOM      1  C   UNL     1       3.656   2.159  -0.022  0.00  0.00    +0.080 C 
ATOM      2  N   UNL     1       4.925   1.598  -0.043  0.00  0.00    -0.264 N 
ATOM      3  O   UNL     1       5.796   2.610  -0.589  0.00  0.00    -0.256 OA
ATOM      4  C   UNL     1       5.284   3.770   0.085  0.00  0.00    +0.272 C 
ATOM      5  C   UNL     1       3.772   3.511  -0.016  0.00  0.00    +0.081 C 
ATOM      6  H   UNL     1       5.175   0.708   0.250  0.00  0.00    +0.194 HD
ATOM      7  C   UNL     1       3.253   4.804  -0.150  0.00  0.00    +0.258 C 
ATOM      8  O   UNL     1       2.137   5.154   0.191  0.00  0.00    -0.269 OA
ATOM      9  N   UNL     1       4.181   5.601  -0.715  0.00  0.00    -0.204 N 
ATOM     10  C   UNL     1       5.431   5.058  -0.675  0.00  0.00    +0.263 C 
ATOM     11  O   UNL     1       6.446   5.508  -1.163  0.00  0.00    -0.271 OA
ENDROOT
BRANCH   9  12
ATOM     12  C   UNL     1       3.897   6.858  -1.267  0.00  0.00    +0.044 A 
ATOM     13  C   UNL     1       4.913   7.613  -1.837  0.00  0.00    +0.025 A 
ATOM     14  C   UNL     1       4.631   8.851  -2.379  0.00  0.00    +0.017 A 
ATOM     15  C   UNL     1       3.336   9.339  -2.356  0.00  0.00    +0.018 A 
ATOM     16  C   UNL     1       2.322   8.588  -1.789  0.00  0.00    +0.017 A 
ATOM     17  C   UNL     1       2.598   7.347  -1.250  0.00  0.00    +0.025 A 
ATOM     18 BR   UNL     1       2.953  11.035  -3.099  0.00  0.00    -0.050 Br
ENDBRANCH   9  12
BRANCH   1  21
ATOM     19  C   UNL     1      -0.017   1.379   0.010  0.00  0.00    +0.003 A 
ATOM     20  C   UNL     1       1.167   2.088   0.002  0.00  0.00    +0.010 A 
ATOM     21  C   UNL     1       2.385   1.407  -0.013  0.00  0.00    +0.003 A 
ATOM     22  C   UNL     1       2.397   0.010  -0.021  0.00  0.00    +0.042 A 
ATOM     23  C   UNL     1       1.206  -0.686  -0.013  0.00  0.00    +0.127 A 
ATOM     24  C   UNL     1       0.002  -0.004   0.002  0.00  0.00    +0.033 A 
BRANCH  23  25
ATOM     25  N   UNL     1       1.216  -2.166  -0.021  0.00  0.00    +0.056 N 
ATOM     26  O   UNL     1       2.268  -2.764  -0.034  0.00  0.00    -0.126 OA
ATOM     27  O   UNL     1       0.174  -2.778  -0.014  0.00  0.00    -0.126 OA
ENDBRANCH  23  25
ENDBRANCH   1  21
TORSDOF 3
