REMARK  Name = ZINC48945388
REMARK  5 active torsions:
REMARK  status: ('A' for Active; 'I' for Inactive)
REMARK    1  A    between atoms: C_1  and  C_2
REMARK    2  A    between atoms: C_2  and  C_4
REMARK    3  A    between atoms: C_2  and  N_18
REMARK    4  A    between atoms: N_9  and  C_12
REMARK    5  A    between atoms: C_12  and  C_13
REMARK                            x       y       z     vdW  Elec       q    Type
REMARK                         _______ _______ _______ _____ _____    ______ ____
ROOT
ATOM      1  C   UNL     1      -1.420  -0.486   0.130  0.00  0.00    +0.236 C 
ATOM      2  O   UNL     1      -1.880  -1.244  -0.698  0.00  0.00    -0.274 OA
ATOM      3  N   UNL     1      -2.181  -0.075   1.163  0.00  0.00    -0.298 N 
ATOM      4  C   UNL     1      -1.683   0.933   2.112  0.00  0.00    +0.123 C 
ATOM      5  C   UNL     1      -1.869   0.395   3.535  0.00  0.00    +0.104 C 
ATOM      6  N   UNL     1      -3.271  -0.000   3.727  0.00  0.00    -0.294 NA
ATOM      7  C   UNL     1      -3.643  -1.098   2.824  0.00  0.00    +0.104 C 
ATOM      8  C   UNL     1      -3.533  -0.616   1.369  0.00  0.00    +0.123 C 
ENDROOT
BRANCH   1  10
ATOM      9  C   UNL     1       0.018   1.371  -0.665  0.00  0.00    +0.038 C 
ATOM     10  C   UNL     1       0.003  -0.005   0.003  0.00  0.00    +0.157 C 
BRANCH  10  11
ATOM     11  N   UNL     1       0.767  -0.952  -0.813  0.00  0.00    -0.289 N 
ATOM     12  C   UNL     1       2.104  -1.040  -0.668  0.00  0.00    +0.298 C 
ATOM     13  O   UNL     1       2.676  -0.333   0.140  0.00  0.00    -0.253 OA
ATOM     14  N   UNL     1       2.808  -1.911  -1.418  0.00  0.00    -0.313 N 
ATOM     15  H   UNL     1       0.311  -1.516  -1.457  0.00  0.00    +0.151 HD
ATOM     16  H   UNL     1       2.352  -2.474  -2.063  0.00  0.00    +0.146 HD
ATOM     17  H   UNL     1       3.770  -1.974  -1.314  0.00  0.00    +0.146 HD
ENDBRANCH  10  11
ENDBRANCH   1  10
BRANCH   6  18
ATOM     18  C   UNL     1      -3.530  -0.360   5.127  0.00  0.00    +0.140 C 
BRANCH  18  19
ATOM     19  C   UNL     1      -5.014  -0.520   5.339  0.00  0.00    +0.062 A 
ATOM     20  C   UNL     1      -5.613  -1.736   5.269  0.00  0.00    +0.071 A 
ATOM     21  S   UNL     1      -7.310  -1.286   5.597  0.00  0.00    -0.084 S 
ATOM     22  C   UNL     1      -7.077   0.370   5.784  0.00  0.00    +0.156 A 
ATOM     23  N   UNL     1      -5.787   0.513   5.606  0.00  0.00    -0.251 NA
ENDBRANCH  18  19
ENDBRANCH   6  18
TORSDOF 4
