REMARK  Name = ZINC12387155
REMARK  11 active torsions:
REMARK  status: ('A' for Active; 'I' for Inactive)
REMARK    1  A    between atoms: C_10  and  C_11
REMARK    2  A    between atoms: C_10  and  N_62
REMARK    3  A    between atoms: C_11  and  C_13
REMARK    4  A    between atoms: C_11  and  O_29
REMARK    5  A    between atoms: C_13  and  O_14
REMARK    6  A    between atoms: O_14  and  C_15
REMARK    7  A    between atoms: C_20  and  C_21
REMARK    8  A    between atoms: C_21  and  N_64
REMARK    9  A    between atoms: C_22  and  C_23
REMARK   10  A    between atoms: C_22  and  C_26
REMARK   11  A    between atoms: C_22  and  N_64
REMARK                            x       y       z     vdW  Elec       q    Type
REMARK                         _______ _______ _______ _____ _____    ______ ____
ROOT
ATOM      1  O   UNL     1      -2.604   1.142   0.351  0.00  0.00    -0.489 OA
ENDROOT
BRANCH   1   2
ATOM      2  C   UNL     1      -1.462   1.812   0.654  0.00  0.00    +0.122 A 
ATOM      3  C   UNL     1      -1.507   3.168   0.945  0.00  0.00    +0.046 A 
ATOM      4  C   UNL     1      -0.344   3.848   1.246  0.00  0.00    +0.004 A 
ATOM      5  C   UNL     1       0.866   3.178   1.264  0.00  0.00    +0.000 A 
ATOM      6  C   UNL     1       0.913   1.826   0.980  0.00  0.00    +0.005 A 
ATOM      7  C   UNL     1      -0.248   1.141   0.677  0.00  0.00    -0.023 A 
BRANCH   7   8
ATOM      8  C   UNL     1      -0.195  -0.333   0.367  0.00  0.00    -0.043 C 
BRANCH   8   9
ATOM      9  N   UNL     1      -0.241  -0.521  -1.096  0.00  0.00    +0.384 N 
ATOM     10  H   UNL     1       0.532  -0.001  -1.528  0.00  0.00    -0.085 HD
ATOM     11  H   UNL     1      -1.135  -0.166  -1.455  0.00  0.00    -0.085 HD
BRANCH   9  12
ATOM     12  C   UNL     1      -0.115  -1.951  -1.432  0.00  0.00    -0.065 C 
BRANCH  12  13
ATOM     13  C   UNL     1      -0.779  -2.209  -2.786  0.00  0.00    -0.025 C 
ATOM     14  C   UNL     1      -1.237  -0.991  -3.592  0.00  0.00    +0.002 C 
ATOM     15  C   UNL     1      -2.271  -1.892  -2.913  0.00  0.00    +0.002 C 
ENDBRANCH  12  13
BRANCH  12  16
ATOM     16  C   UNL     1       1.366  -2.329  -1.511  0.00  0.00    -0.025 C 
ATOM     17  C   UNL     1       2.387  -1.277  -1.073  0.00  0.00    +0.002 C 
ATOM     18  C   UNL     1       2.223  -1.612  -2.557  0.00  0.00    +0.002 C 
ENDBRANCH  12  16
ENDBRANCH   9  12
ENDBRANCH   8   9
ENDBRANCH   7   8
ENDBRANCH   1   2
BRANCH   1  19
ATOM     19  C   UNL     1      -3.817   1.897   0.347  0.00  0.00    +0.258 C 
BRANCH  19  20
ATOM     20  C   UNL     1      -4.988   0.980  -0.013  0.00  0.00    +0.135 C 
BRANCH  20  21
ATOM     21  O   UNL     1      -4.830   0.509  -1.353  0.00  0.00    -0.390 OA
ATOM     22  H   UNL     1      -4.804   1.213  -2.017  0.00  0.00    +0.210 HD
ENDBRANCH  20  21
BRANCH  20  23
ATOM     23  C   UNL     1      -6.300   1.758   0.103  0.00  0.00    -0.043 C 
BRANCH  23  33
ATOM     24  C   UNL     1     -10.953  -2.662   0.464  0.00  0.00    +0.000 A 
ATOM     25  C   UNL     1      -9.909  -3.047   1.284  0.00  0.00    +0.000 A 
ATOM     26  C   UNL     1      -8.808  -2.226   1.427  0.00  0.00    +0.002 A 
ATOM     27  C   UNL     1      -8.743  -1.016   0.751  0.00  0.00    -0.061 A 
ATOM     28  C   UNL     1      -9.783  -0.634  -0.069  0.00  0.00    -0.048 A 
ATOM     29  C   UNL     1     -10.889  -1.459  -0.210  0.00  0.00    +0.004 A 
ATOM     30  C   UNL     1      -9.756   0.667  -0.828  0.00  0.00    +0.017 C 
ATOM     31  C   UNL     1      -8.694   1.595  -0.235  0.00  0.00    -0.074 C 
ATOM     32  C   UNL     1      -7.523  -0.153   0.942  0.00  0.00    -0.043 C 
ATOM     33  N   UNL     1      -7.430   0.835  -0.146  0.00  0.00    +0.384 N 
ATOM     34  H   UNL     1      -7.270   0.344  -1.033  0.00  0.00    -0.081 HD
ENDBRANCH  23  33
ENDBRANCH  20  23
ENDBRANCH  19  20
ENDBRANCH   1  19
TORSDOF 11
