REMARK  Name = ZINC35488451
REMARK  4 active torsions:
REMARK  status: ('A' for Active; 'I' for Inactive)
REMARK    1  A    between atoms: C_1  and  N_2
REMARK    2  A    between atoms: N_2  and  C_3
REMARK    3  A    between atoms: C_3  and  C_5
REMARK    4  A    between atoms: C_3  and  C_12
REMARK                            x       y       z     vdW  Elec       q    Type
REMARK                         _______ _______ _______ _____ _____    ______ ____
ROOT
ATOM      1  C   UNL     1      -1.376  -0.512   0.012  0.00  0.00    -0.010 C 
ENDROOT
BRANCH   1   2
ATOM      2  C   UNL     1      -1.356  -2.015   0.128  0.00  0.00    -0.055 A 
ATOM      3  C   UNL     1      -0.408  -2.747  -0.566  0.00  0.00    +0.004 A 
ATOM      4  C   UNL     1      -0.382  -4.125  -0.466  0.00  0.00    +0.028 A 
ATOM      5  C   UNL     1      -1.310  -4.776   0.332  0.00  0.00    +0.067 A 
ATOM      6  C   UNL     1      -2.266  -4.038   1.032  0.00  0.00    +0.067 A 
ATOM      7  C   UNL     1      -2.280  -2.655   0.930  0.00  0.00    +0.030 A 
ATOM      8  N   UNL     1      -3.045  -4.953   1.736  0.00  0.00    -0.306 N 
ATOM      9  H   UNL     1      -3.792  -4.735   2.315  0.00  0.00    +0.170 HD
ATOM     10  C   UNL     1      -2.584  -6.191   1.476  0.00  0.00    +0.325 A 
ATOM     11  O   UNL     1      -3.044  -7.220   1.934  0.00  0.00    -0.247 OA
ATOM     12  N   UNL     1      -1.538  -6.117   0.632  0.00  0.00    -0.306 N 
ATOM     13  H   UNL     1      -1.029  -6.870   0.292  0.00  0.00    +0.170 HD
ENDBRANCH   1   2
BRANCH   1  14
ATOM     14  C   UNL     1      -2.067  -0.116  -1.267  0.00  0.00    -0.056 A 
ATOM     15  C   UNL     1      -1.384  -0.170  -2.467  0.00  0.00    +0.002 A 
ATOM     16  C   UNL     1      -2.018   0.193  -3.641  0.00  0.00    +0.001 A 
ATOM     17  C   UNL     1      -3.335   0.611  -3.614  0.00  0.00    +0.014 A 
ATOM     18  C   UNL     1      -4.019   0.665  -2.413  0.00  0.00    +0.014 A 
ATOM     19  C   UNL     1      -3.386   0.296  -1.240  0.00  0.00    +0.016 A 
ATOM     20  I   UNL     1      -6.015   1.299  -2.372  0.00  0.00    -0.044 I 
ENDBRANCH   1  14
BRANCH   1  22
ATOM     21  C   UNL     1      -0.018   1.465   0.010  0.00  0.00    -0.099 C 
ATOM     22  N   UNL     1       0.002  -0.004   0.002  0.00  0.00    +0.384 N 
ATOM     23  H   UNL     1       0.474  -0.330  -0.828  0.00  0.00    -0.085 HD
ATOM     24  H   UNL     1       0.490  -0.338   0.820  0.00  0.00    -0.085 HD
ENDBRANCH   1  22
TORSDOF 3
