REMARK  Name = ZINC20103588
REMARK  9 active torsions:
REMARK  status: ('A' for Active; 'I' for Inactive)
REMARK    1  A    between atoms: C_1  and  C_2
REMARK    2  A    between atoms: C_5  and  O_31
REMARK    3  A    between atoms: C_6  and  N_8
REMARK    4  A    between atoms: C_9  and  C_11
REMARK    5  A    between atoms: C_11  and  C_12
REMARK    6  A    between atoms: C_12  and  N_13
REMARK    7  A    between atoms: C_14  and  C_16
REMARK    8  A    between atoms: C_16  and  N_17
REMARK    9  A    between atoms: O_31  and  C_32
REMARK                            x       y       z     vdW  Elec       q    Type
REMARK                         _______ _______ _______ _____ _____    ______ ____
ROOT
ATOM      1  N   UNL     1       2.891  -7.062  -2.545  0.00  0.00    -0.313 N 
ATOM      2  C   UNL     1       2.123  -6.060  -2.072  0.00  0.00    +0.233 C 
ATOM      3  O   UNL     1       1.387  -5.455  -2.823  0.00  0.00    -0.274 OA
ATOM      4  H   UNL     1       3.559  -7.611  -1.864  0.00  0.00    +0.149 HD
ENDROOT
BRANCH   1   5
ATOM      5  C   UNL     1       2.835  -7.421  -3.964  0.00  0.00    +0.113 C 
BRANCH   5   6
ATOM      6  C   UNL     1       3.796  -8.581  -4.234  0.00  0.00    +0.115 C 
BRANCH   6   8
ATOM      7  N   UNL     1       4.506  -9.953  -6.166  0.00  0.00    -0.283 N 
ATOM      8  C   UNL     1       3.738  -8.951  -5.694  0.00  0.00    +0.219 C 
ATOM      9  O   UNL     1       3.002  -8.346  -6.444  0.00  0.00    -0.275 OA
ATOM     10  H   UNL     1       5.239 -10.441  -5.508  0.00  0.00    +0.155 HD
BRANCH   7  16
ATOM     11  C   UNL     1       1.747 -10.352 -10.217  0.00  0.00    +0.044 C 
ATOM     12  C   UNL     1       3.043 -10.580  -9.484  0.00  0.00    -0.048 A 
ATOM     13  C   UNL     1       4.098 -11.205 -10.124  0.00  0.00    +0.007 A 
ATOM     14  C   UNL     1       5.289 -11.417  -9.457  0.00  0.00    +0.048 A 
ATOM     15  C   UNL     1       5.430 -11.004  -8.142  0.00  0.00    +0.141 A 
ATOM     16  C   UNL     1       4.369 -10.374  -7.496  0.00  0.00    +0.076 A 
ATOM     17  C   UNL     1       3.174 -10.169  -8.170  0.00  0.00    +0.030 A 
BRANCH  15  18
ATOM     18  O   UNL     1       6.602 -11.211  -7.484  0.00  0.00    -0.493 OA
ATOM     19  C   UNL     1       7.647 -11.863  -8.209  0.00  0.00    +0.277 C 
ENDBRANCH  15  18
ENDBRANCH   7  16
ENDBRANCH   6   8
ENDBRANCH   5   6
ENDBRANCH   1   5
BRANCH   2  20
ATOM     20  C   UNL     1       2.181  -5.690  -0.613  0.00  0.00    +0.221 C 
BRANCH  20  21
ATOM     21  N   UNL     1       1.261  -4.580  -0.353  0.00  0.00    -0.290 N 
ATOM     22  C   UNL     1      -0.017  -4.867  -0.009  0.00  0.00    +0.203 A 
ATOM     23  N   UNL     1      -0.917  -3.941   0.242  0.00  0.00    -0.230 NA
ATOM     24  C   UNL     1      -0.531  -2.672   0.147  0.00  0.00    +0.116 A 
ATOM     25  C   UNL     1       0.777  -2.272  -0.204  0.00  0.00    +0.076 A 
ATOM     26  C   UNL     1       1.729  -3.314  -0.470  0.00  0.00    +0.263 A 
ATOM     27  O   UNL     1       2.883  -3.075  -0.781  0.00  0.00    -0.267 OA
ATOM     28  C   UNL     1       1.017  -0.841  -0.259  0.00  0.00    -0.023 A 
ATOM     29  C   UNL     1      -0.034  -0.039   0.031  0.00  0.00    -0.004 A 
ATOM     30  S   UNL     1      -1.378  -1.143   0.387  0.00  0.00    -0.073 S 
ATOM     31  C   UNL     1      -0.054   1.459   0.048  0.00  0.00    +0.043 C 
ATOM     32  C   UNL     1       1.395   1.965   0.048  0.00  0.00    +0.005 C 
ATOM     33  C   UNL     1       2.176   1.216  -1.036  0.00  0.00    +0.005 C 
ATOM     34  C   UNL     1       2.373  -0.242  -0.621  0.00  0.00    +0.037 C 
ENDBRANCH  20  21
ENDBRANCH   2  20
TORSDOF 7
