REMARK  Name = ZINC39623072
REMARK  4 active torsions:
REMARK  status: ('A' for Active; 'I' for Inactive)
REMARK    1  A    between atoms: C_5  and  C_7
REMARK    2  A    between atoms: C_7  and  N_8
REMARK    3  A    between atoms: C_9  and  C_11
REMARK    4  A    between atoms: C_22  and  C_24
REMARK                            x       y       z     vdW  Elec       q    Type
REMARK                         _______ _______ _______ _____ _____    ______ ____
ROOT
ATOM      1  C   UNL     1       1.819  -4.511   2.961  0.00  0.00    +0.100 C 
ATOM      2  C   UNL     1       3.261  -4.161   3.393  0.00  0.00    +0.121 C 
ATOM      3  N   UNL     1       3.713  -5.336   4.175  0.00  0.00    -0.296 N 
ATOM      4  C   UNL     1       3.163  -6.501   3.441  0.00  0.00    +0.115 C 
ATOM      5  C   UNL     1       1.760  -6.048   2.993  0.00  0.00    -0.004 C 
ATOM      6  C   UNL     1       1.448  -6.593   1.603  0.00  0.00    -0.010 C 
ATOM      7  C   UNL     1       1.336  -8.119   1.671  0.00  0.00    -0.082 C 
ATOM      8  N   UNL     1       0.274  -8.492   2.614  0.00  0.00    +0.379 N 
ATOM      9  C   UNL     1       0.626  -8.044   3.967  0.00  0.00    -0.082 C 
ATOM     10  C   UNL     1       0.708  -6.515   3.995  0.00  0.00    -0.010 C 
ATOM     11  C   UNL     1       4.456  -5.344   5.300  0.00  0.00    +0.249 C 
ATOM     12  O   UNL     1       4.748  -6.399   5.828  0.00  0.00    -0.270 OA
ATOM     13  H   UNL     1      -0.592  -8.057   2.332  0.00  0.00    -0.086 HD
ATOM     14  H   UNL     1       0.161  -9.494   2.612  0.00  0.00    -0.086 HD
ENDROOT
BRANCH  11  15
ATOM     15  C   UNL     1       4.916  -4.071   5.890  0.00  0.00    +0.073 A 
ATOM     16  C   UNL     1       4.130  -3.413   6.840  0.00  0.00    +0.054 A 
ATOM     17  C   UNL     1       4.567  -2.223   7.388  0.00  0.00    +0.021 A 
ATOM     18  C   UNL     1       5.778  -1.682   6.998  0.00  0.00    +0.003 A 
ATOM     19  C   UNL     1       6.561  -2.326   6.057  0.00  0.00    +0.021 A 
ATOM     20  C   UNL     1       6.141  -3.520   5.505  0.00  0.00    +0.054 A 
ATOM     21 CL   UNL     1       7.129  -4.331   4.330  0.00  0.00    -0.083 Cl
ATOM     22 CL   UNL     1       2.609  -4.091   7.331  0.00  0.00    -0.083 Cl
ENDBRANCH  11  15
BRANCH   1  24
ATOM     23  N   UNL     1       0.298  -3.671   1.201  0.00  0.00    -0.311 N 
ATOM     24  C   UNL     1       1.552  -4.005   1.567  0.00  0.00    +0.218 C 
ATOM     25  O   UNL     1       2.464  -3.897   0.776  0.00  0.00    -0.275 OA
ATOM     26  H   UNL     1      -0.431  -3.756   1.834  0.00  0.00    +0.149 HD
BRANCH  23  27
ATOM     27  C   UNL     1       0.038  -3.178  -0.154  0.00  0.00    +0.141 C 
BRANCH  27  32
ATOM     28  C   UNL     1      -3.607  -3.511  -1.079  0.00  0.00    +0.000 A 
ATOM     29  C   UNL     1      -4.127  -2.328  -0.586  0.00  0.00    +0.001 A 
ATOM     30  C   UNL     1      -3.299  -1.420   0.046  0.00  0.00    +0.020 A 
ATOM     31  C   UNL     1      -1.950  -1.694   0.187  0.00  0.00    +0.046 A 
ATOM     32  C   UNL     1      -1.431  -2.878  -0.306  0.00  0.00    -0.012 A 
ATOM     33  C   UNL     1      -2.259  -3.786  -0.939  0.00  0.00    +0.006 A 
ATOM     34 CL   UNL     1      -0.910  -0.554   0.981  0.00  0.00    -0.083 Cl
ENDBRANCH  27  32
ENDBRANCH  23  27
ENDBRANCH   1  24
TORSDOF 4
