REMARK  Name = ZINC58189619
REMARK  5 active torsions:
REMARK  status: ('A' for Active; 'I' for Inactive)
REMARK    1  A    between atoms: C_7  and  C_16
REMARK    2  A    between atoms: C_9  and  C_11
REMARK    3  A    between atoms: N_18  and  N_19
REMARK    4  A    between atoms: C_20  and  C_22
REMARK    5  A    between atoms: C_23  and  C_24
REMARK                            x       y       z     vdW  Elec       q    Type
REMARK                         _______ _______ _______ _____ _____    ______ ____
ROOT
ATOM      1  C   UNL     1      -0.017   1.359  -0.035  0.00  0.00    +0.001 A 
ATOM      2  C   UNL     1       1.170   2.089  -0.042  0.00  0.00    +0.002 A 
ATOM      3  C   UNL     1       2.379   1.465  -0.042  0.00  0.00    +0.028 A 
ATOM      4  C   UNL     1       2.438   0.059  -0.035  0.00  0.00    +0.073 A 
ATOM      5  C   UNL     1       1.227  -0.679  -0.029  0.00  0.00    +0.013 A 
ATOM      6  C   UNL     1       0.002  -0.004  -0.029  0.00  0.00    +0.011 A 
ATOM      7  C   UNL     1       1.295  -2.141  -0.022  0.00  0.00    +0.049 A 
ATOM      8  C   UNL     1       2.554  -2.721  -0.022  0.00  0.00    +0.045 A 
ATOM      9  C   UNL     1       3.693  -1.897  -0.029  0.00  0.00    +0.107 A 
ATOM     10  N   UNL     1       3.609  -0.581  -0.035  0.00  0.00    -0.244 NA
ENDROOT
BRANCH   9  11
ATOM     11  C   UNL     1       5.027  -2.526  -0.029  0.00  0.00    +0.153 A 
ATOM     12  C   UNL     1       6.220  -1.870  -0.030  0.00  0.00    +0.051 A 
ATOM     13  C   UNL     1       7.225  -2.856  -0.030  0.00  0.00    +0.042 A 
ATOM     14  C   UNL     1       6.604  -4.053  -0.029  0.00  0.00    +0.196 A 
ATOM     15  O   UNL     1       5.278  -3.850  -0.022  0.00  0.00    -0.461 OA
ENDBRANCH   9  11
BRANCH   7  16
ATOM     16  C   UNL     1       0.068  -2.967  -0.014  0.00  0.00    +0.261 C 
ATOM     17  O   UNL     1      -1.021  -2.437   0.091  0.00  0.00    -0.269 OA
ATOM     18  N   UNL     1       0.157  -4.307  -0.123  0.00  0.00    -0.230 N 
ATOM     19  H   UNL     1       1.026  -4.730  -0.207  0.00  0.00    +0.173 HD
BRANCH  18  20
ATOM     20  N   UNL     1      -1.005  -5.089  -0.116  0.00  0.00    -0.231 N 
ATOM     21  C   UNL     1      -0.916  -6.430  -0.225  0.00  0.00    +0.253 C 
ATOM     22  O   UNL     1       0.175  -6.961  -0.330  0.00  0.00    -0.269 OA
ATOM     23  H   UNL     1      -1.874  -4.666  -0.032  0.00  0.00    +0.173 HD
BRANCH  21  24
ATOM     24  C   UNL     1      -2.090  -7.220  -0.217  0.00  0.00    +0.072 C 
ATOM     25  C   UNL     1      -2.001  -8.569  -0.327  0.00  0.00    +0.051 C 
BRANCH  25  26
ATOM     26  C   UNL     1      -3.175  -9.360  -0.320  0.00  0.00    +0.128 A 
ATOM     27  C   UNL     1      -3.230 -10.735  -0.418  0.00  0.00    +0.049 A 
ATOM     28  C   UNL     1      -4.588 -11.085  -0.367  0.00  0.00    +0.042 A 
ATOM     29  C   UNL     1      -5.292  -9.938  -0.243  0.00  0.00    +0.195 A 
ATOM     30  O   UNL     1      -4.440  -8.903  -0.210  0.00  0.00    -0.464 OA
ENDBRANCH  25  26
ENDBRANCH  21  24
ENDBRANCH  18  20
ENDBRANCH   7  16
TORSDOF 5
