REMARK  Name = ZINC08781916
REMARK  11 active torsions:
REMARK  status: ('A' for Active; 'I' for Inactive)
REMARK    1  A    between atoms: C_1  and  C_2
REMARK    2  A    between atoms: C_2  and  O_3
REMARK    3  A    between atoms: O_3  and  C_4
REMARK    4  A    between atoms: C_4  and  C_6
REMARK    5  A    between atoms: C_8  and  C_30
REMARK    6  A    between atoms: C_13  and  N_14
REMARK    7  A    between atoms: N_17  and  C_20
REMARK    8  A    between atoms: C_23  and  C_25
REMARK    9  A    between atoms: C_30  and  O_32
REMARK   10  A    between atoms: O_32  and  C_33
REMARK   11  A    between atoms: C_33  and  C_34
REMARK                            x       y       z     vdW  Elec       q    Type
REMARK                         _______ _______ _______ _____ _____    ______ ____
ROOT
ATOM      1  C   UNL     1      -1.012   1.420  -3.620  0.00  0.00    +0.098 A 
ATOM      2  C   UNL     1      -2.223   2.121  -3.550  0.00  0.00    +0.038 A 
ATOM      3  C   UNL     1      -2.737   2.696  -4.711  0.00  0.00    +0.124 A 
ATOM      4  C   UNL     1      -1.992   2.548  -5.962  0.00  0.00    +0.264 A 
ATOM      5  O   UNL     1      -2.420   3.043  -6.990  0.00  0.00    -0.267 OA
ATOM      6  N   UNL     1      -0.832   1.865  -5.974  0.00  0.00    -0.309 N 
ATOM      7  H   UNL     1      -0.343   1.770  -6.807  0.00  0.00    +0.170 HD
ATOM      8  C   UNL     1      -0.333   1.311  -4.841  0.00  0.00    +0.116 A 
ENDROOT
BRANCH   8   9
ATOM      9  N   UNL     1       0.847   0.631  -4.892  0.00  0.00    -0.313 N 
ATOM     10  C   UNL     1       1.884   1.426  -5.566  0.00  0.00    +0.125 C 
ATOM     11  C   UNL     1       3.210   0.663  -5.532  0.00  0.00    +0.125 C 
ATOM     12  N   UNL     1       3.039  -0.640  -6.189  0.00  0.00    -0.313 N 
ATOM     13  C   UNL     1       2.003  -1.435  -5.516  0.00  0.00    +0.125 C 
ATOM     14  C   UNL     1       0.677  -0.672  -5.549  0.00  0.00    +0.125 C 
BRANCH  12  15
ATOM     15  C   UNL     1       4.244  -1.333  -6.241  0.00  0.00    +0.118 A 
ATOM     16  C   UNL     1       4.816  -1.631  -7.476  0.00  0.00    +0.079 A 
ATOM     17  C   UNL     1       6.018  -2.316  -7.512  0.00  0.00    +0.037 A 
ATOM     18  C   UNL     1       6.603  -2.692  -6.310  0.00  0.00    +0.072 A 
ATOM     19  C   UNL     1       5.977  -2.369  -5.123  0.00  0.00    +0.096 A 
ATOM     20 CL   UNL     1       4.037  -1.142  -8.948  0.00  0.00    -0.080 Cl
ATOM     21  N   UNL     1       4.799  -1.692  -5.048  0.00  0.00    -0.348 N 
ATOM     22  H   UNL     1       4.356  -1.466  -4.150  0.00  0.00    +0.167 HD
BRANCH  18  23
ATOM     23  C   UNL     1       7.908  -3.446  -6.301  0.00  0.00    +0.419 C 
ATOM     24  F   UNL     1       8.287  -3.706  -4.980  0.00  0.00    -0.166 F 
ATOM     25  F   UNL     1       7.754  -4.654  -6.989  0.00  0.00    -0.166 F 
ATOM     26  F   UNL     1       8.895  -2.675  -6.926  0.00  0.00    -0.166 F 
ENDBRANCH  18  23
ENDBRANCH  12  15
ENDBRANCH   8   9
BRANCH   1  27
ATOM     27  C   UNL     1      -0.450   0.804  -2.411  0.00  0.00    +0.342 C 
ATOM     28  O   UNL     1       0.559   0.129  -2.485  0.00  0.00    -0.245 OA
BRANCH  27  29
ATOM     29  O   UNL     1      -1.053   0.986  -1.219  0.00  0.00    -0.461 OA
BRANCH  29  31
ATOM     30  C   UNL     1      -1.261   0.666   1.186  0.00  0.00    +0.048 C 
ATOM     31  C   UNL     1      -0.442   0.348  -0.066  0.00  0.00    +0.229 C 
ENDBRANCH  29  31
ENDBRANCH  27  29
ENDBRANCH   1  27
BRANCH   3  32
ATOM     32  C   UNL     1      -4.003   3.438  -4.680  0.00  0.00    +0.344 C 
ATOM     33  O   UNL     1      -4.613   3.554  -3.635  0.00  0.00    -0.245 OA
BRANCH  32  34
ATOM     34  O   UNL     1      -4.489   3.990  -5.810  0.00  0.00    -0.461 OA
BRANCH  34  35
ATOM     35  C   UNL     1      -5.746   4.709  -5.705  0.00  0.00    +0.229 C 
ATOM     36  C   UNL     1      -6.134   5.261  -7.078  0.00  0.00    +0.048 C 
ENDBRANCH  34  35
ENDBRANCH  32  34
ENDBRANCH   3  32
TORSDOF 9
