REMARK  Name = ZINC54830302
REMARK  4 active torsions:
REMARK  status: ('A' for Active; 'I' for Inactive)
REMARK    1  A    between atoms: C_1  and  C_2
REMARK    2  A    between atoms: CA_4  and  C_14
REMARK    3  A    between atoms: C_6  and  C_8
REMARK    4  A    between atoms: C_14  and  O_15
REMARK                            x       y       z     vdW  Elec       q    Type
REMARK                         _______ _______ _______ _____ _____    ______ ____
ROOT
ATOM      1  C   UNL     1      -0.018   1.503   0.010  0.00  0.00    +0.066 C 
ATOM      2  C   UNL     1       0.002  -0.004   0.002  0.00  0.00    +0.042 A 
ATOM      3  C   UNL     1       0.006  -0.700  -1.197  0.00  0.00    +0.048 A 
ATOM      4  CA  UNL     1       0.025  -2.085  -1.155  0.00  0.00    +0.070 A 
ATOM      5  N   UNL     1       0.039  -2.693   0.020  0.00  0.00    -0.234 NA
ATOM      6  C   UNL     1       0.034  -1.999   1.140  0.00  0.00    +0.133 A 
ATOM      7  N   UNL     1       0.022  -0.681   1.139  0.00  0.00    -0.237 NA
ENDROOT
BRANCH   6   8
ATOM      8  C   UNL     1       0.050  -2.731   2.457  0.00  0.00    +0.057 C 
ATOM      9  C   UNL     1       1.298  -2.332   3.248  0.00  0.00    +0.011 C 
ATOM     10  C   UNL     1       1.313  -3.075   4.585  0.00  0.00    +0.001 C 
ATOM     11  C   UNL     1       0.063  -2.709   5.387  0.00  0.00    +0.000 C 
ATOM     12  C   UNL     1      -1.185  -3.108   4.596  0.00  0.00    +0.001 C 
ATOM     13  C   UNL     1      -1.201  -2.365   3.259  0.00  0.00    +0.011 C 
ENDBRANCH   6   8
BRANCH   4  14
ATOM     14  C   UNL     1       0.029  -2.888  -2.430  0.00  0.00    +0.211 C 
BRANCH  14  15
ATOM     15  O   UNL     1       0.012  -2.001  -3.551  0.00  0.00    -0.389 OA
ATOM     16  H   UNL     1       0.013  -2.450  -4.408  0.00  0.00    +0.210 HD
ENDBRANCH  14  15
ENDBRANCH   4  14
TORSDOF 3
