REMARK  Name = ZINC41107559
REMARK  4 active torsions:
REMARK  status: ('A' for Active; 'I' for Inactive)
REMARK    1  A    between atoms: C_6  and  C_7
REMARK    2  A    between atoms: C_7  and  S_9
REMARK    3  A    between atoms: S_9  and  C_10
REMARK    4  A    between atoms: N_14  and  N_15
REMARK                            x       y       z     vdW  Elec       q    Type
REMARK                         _______ _______ _______ _____ _____    ______ ____
ROOT
ATOM      1  C   UNL     1      -1.265  -0.763   0.011  0.00  0.00    +0.227 C 
ATOM      2  O   UNL     1      -2.328  -0.172   0.024  0.00  0.00    -0.279 OA
ENDROOT
BRANCH   1   8
ATOM      3  C   UNL     1      -0.017   1.392   0.010  0.00  0.00    +0.013 A 
ATOM      4  C   UNL     1       1.170   2.095   0.002  0.00  0.00    +0.016 A 
ATOM      5  C   UNL     1       2.378   1.419  -0.013  0.00  0.00    +0.018 A 
ATOM      6  C   UNL     1       2.404   0.034  -0.021  0.00  0.00    +0.016 A 
ATOM      7  C   UNL     1       1.224  -0.680  -0.014  0.00  0.00    +0.013 A 
ATOM      8  C   UNL     1       0.002  -0.004   0.002  0.00  0.00    +0.029 A 
ATOM      9 BR   UNL     1       4.000   2.390  -0.023  0.00  0.00    -0.050 Br
ENDBRANCH   1   8
BRANCH   1  10
ATOM     10  S   UNL     1      -1.237  -2.525   0.001  0.00  0.00    -0.006 S 
BRANCH  10  11
ATOM     11  C   UNL     1      -2.940  -2.978   0.015  0.00  0.00    +0.216 A 
ATOM     12  N   UNL     1      -3.965  -2.160   0.024  0.00  0.00    -0.121 NA
ATOM     13  N   UNL     1      -5.060  -2.832   0.033  0.00  0.00    -0.135 NA
ATOM     14  C   UNL     1      -4.800  -4.110   0.031  0.00  0.00    +0.244 A 
ATOM     15  N   UNL     1      -3.441  -4.248   0.013  0.00  0.00    -0.231 N 
BRANCH  15  16
ATOM     16  N   UNL     1      -2.731  -5.415   0.000  0.00  0.00    -0.295 N 
ATOM     17  H   UNL     1      -2.534  -5.729   0.939  0.00  0.00    +0.163 HD
ATOM     18  H   UNL     1      -3.216  -6.127  -0.525  0.00  0.00    +0.163 HD
ENDBRANCH  15  16
ENDBRANCH  10  11
ENDBRANCH   1  10
TORSDOF 4
