REMARK  Name = ZINC39462115
REMARK  6 active torsions:
REMARK  status: ('A' for Active; 'I' for Inactive)
REMARK    1  A    between atoms: C_1  and  C_2
REMARK    2  A    between atoms: C_5  and  C_30
REMARK    3  A    between atoms: C_12  and  N_15
REMARK    4  A    between atoms: C_16  and  C_18
REMARK    5  A    between atoms: C_18  and  N_19
REMARK    6  A    between atoms: C_23  and  C_26
REMARK                            x       y       z     vdW  Elec       q    Type
REMARK                         _______ _______ _______ _____ _____    ______ ____
ROOT
ATOM      1  N   UNL     1      -0.606   0.540   2.937  0.00  0.00    -0.285 N 
ATOM      2  C   UNL     1      -0.064   0.624   4.168  0.00  0.00    +0.229 C 
ATOM      3  O   UNL     1       0.572  -0.307   4.615  0.00  0.00    -0.274 OA
ATOM      4  H   UNL     1      -1.114   1.284   2.579  0.00  0.00    +0.152 HD
ENDROOT
BRANCH   1  15
ATOM      5  C   UNL     1      -0.019   1.526   0.010  0.00  0.00    +0.043 C 
ATOM      6  C   UNL     1       0.002  -0.004   0.002  0.00  0.00    +0.150 C 
ATOM      7  C   UNL     1      -1.405  -0.543   0.038  0.00  0.00    +0.016 A 
ATOM      8  C   UNL     1      -2.412  -0.692  -0.924  0.00  0.00    +0.065 A 
ATOM      9  N   UNL     1      -3.565  -1.206  -0.589  0.00  0.00    -0.176 NA
ATOM     10  N   UNL     1      -3.830  -1.592   0.607  0.00  0.00    -0.243 N 
ATOM     11  C   UNL     1      -2.926  -1.489   1.603  0.00  0.00    +0.272 A 
ATOM     12  O   UNL     1      -3.201  -1.863   2.732  0.00  0.00    -0.266 OA
ATOM     13  C   UNL     1      -1.661  -0.945   1.319  0.00  0.00    +0.072 A 
ATOM     14  H   UNL     1      -4.704  -1.966   0.800  0.00  0.00    +0.192 HD
ATOM     15  C   UNL     1      -0.427  -0.676   2.139  0.00  0.00    +0.243 C 
ATOM     16  O   UNL     1       0.646  -0.498   1.192  0.00  0.00    -0.347 OA
ATOM     17  C   UNL     1      -2.165  -0.259  -2.346  0.00  0.00    +0.068 C 
ENDBRANCH   1  15
BRANCH   2  18
ATOM     18  C   UNL     1      -0.247   1.875   4.988  0.00  0.00    +0.180 C 
BRANCH  18  19
ATOM     19  N   UNL     1       0.434   1.717   6.280  0.00  0.00    -0.293 NA
ATOM     20  C   UNL     1      -0.203   0.668   7.086  0.00  0.00    +0.085 C 
ATOM     21  C   UNL     1       0.616   0.431   8.357  0.00  0.00    +0.016 C 
ATOM     22  C   UNL     1       0.698   1.735   9.155  0.00  0.00    +0.015 C 
ATOM     23  C   UNL     1       1.320   2.824   8.277  0.00  0.00    +0.107 C 
ATOM     24  C   UNL     1       0.481   2.991   7.008  0.00  0.00    +0.097 C 
BRANCH  23  25
ATOM     25  C   UNL     1       1.352   4.146   9.047  0.00  0.00    +0.394 C 
ATOM     26  F   UNL     1       2.116   3.991  10.209  0.00  0.00    -0.170 F 
ATOM     27  F   UNL     1       1.920   5.140   8.244  0.00  0.00    -0.170 F 
ATOM     28  F   UNL     1       0.048   4.515   9.393  0.00  0.00    -0.170 F 
ENDBRANCH  23  25
ENDBRANCH  18  19
ENDBRANCH   2  18
TORSDOF 4
