REMARK  Name = ZINC51105342
REMARK  5 active torsions:
REMARK  status: ('A' for Active; 'I' for Inactive)
REMARK    1  A    between atoms: C_5  and  C_8
REMARK    2  A    between atoms: C_5  and  N_10
REMARK    3  A    between atoms: C_11  and  C_13
REMARK    4  A    between atoms: C_13  and  N_14
REMARK    5  A    between atoms: C_18  and  C_20
REMARK                            x       y       z     vdW  Elec       q    Type
REMARK                         _______ _______ _______ _____ _____    ______ ____
ROOT
ATOM      1  N   UNL     1       2.800  -1.692   1.676  0.00  0.00    -0.296 N 
ATOM      2  C   UNL     1       2.420  -2.932   1.308  0.00  0.00    +0.228 C 
ATOM      3  O   UNL     1       1.568  -3.077   0.458  0.00  0.00    -0.274 OA
ATOM      4  H   UNL     1       3.482  -1.576   2.356  0.00  0.00    +0.150 HD
ENDROOT
BRANCH   1   9
ATOM      5  C   UNL     1      -0.018   1.451   0.010  0.00  0.00    +0.000 C 
ATOM      6  C   UNL     1       1.400   2.058  -0.000  0.00  0.00    +0.000 C 
ATOM      7  C   UNL     1       1.950   2.011   1.399  0.00  0.00    +0.003 C 
ATOM      8  C   UNL     1       2.801   0.753   1.656  0.00  0.00    +0.041 C 
ATOM      9  C   UNL     1       2.183  -0.521   1.050  0.00  0.00    +0.121 C 
ATOM     10  C   UNL     1       0.693  -0.589   1.251  0.00  0.00    +0.041 C 
ATOM     11  C   UNL     1       0.002  -0.004   0.002  0.00  0.00    +0.003 C 
BRANCH   9  12
ATOM     12  C   UNL     1       2.470  -0.549  -0.394  0.00  0.00    +0.088 C 
ATOM     13  N   UNL     1       2.692  -0.570  -1.508  0.00  0.00    -0.194 NA
ENDBRANCH   9  12
ENDBRANCH   1   9
BRANCH   2  14
ATOM     14  C   UNL     1       3.055  -4.137   1.952  0.00  0.00    +0.180 C 
BRANCH  14  15
ATOM     15  N   UNL     1       2.474  -5.360   1.383  0.00  0.00    -0.289 NA
ATOM     16  C   UNL     1       1.055  -5.486   1.743  0.00  0.00    +0.113 C 
ATOM     17  C   UNL     1       0.475  -6.739   1.081  0.00  0.00    +0.176 C 
ATOM     18  O   UNL     1       1.239  -7.880   1.482  0.00  0.00    -0.365 OA
ATOM     19  C   UNL     1       2.626  -7.791   1.146  0.00  0.00    +0.217 C 
ATOM     20  C   UNL     1       3.228  -6.549   1.808  0.00  0.00    +0.126 C 
BRANCH  19  21
ATOM     21  C   UNL     1       3.344  -9.021   1.639  0.00  0.00    +0.241 C 
ATOM     22  O   UNL     1       2.749  -9.846   2.300  0.00  0.00    -0.273 OA
ATOM     23  N   UNL     1       4.646  -9.205   1.346  0.00  0.00    -0.327 N 
ATOM     24  H   UNL     1       5.122  -8.545   0.818  0.00  0.00    +0.145 HD
ATOM     25  H   UNL     1       5.108  -9.996   1.664  0.00  0.00    +0.145 HD
ENDBRANCH  19  21
ENDBRANCH  14  15
ENDBRANCH   2  14
TORSDOF 5
