REMARK  Name = ZINC15859204
REMARK  10 active torsions:
REMARK  status: ('A' for Active; 'I' for Inactive)
REMARK    1  A    between atoms: C_1  and  C_2
REMARK    2  A    between atoms: C_5  and  N_9
REMARK    3  A    between atoms: C_10  and  C_12
REMARK    4  A    between atoms: C_12  and  S_13
REMARK    5  A    between atoms: S_13  and  C_14
REMARK    6  A    between atoms: C_17  and  C_20
REMARK    7  A    between atoms: N_18  and  C_19
REMARK    8  A    between atoms: C_20  and  C_21
REMARK    9  A    between atoms: C_22  and  C_33
REMARK   10  A    between atoms: C_27  and  C_32
REMARK                            x       y       z     vdW  Elec       q    Type
REMARK                         _______ _______ _______ _____ _____    ______ ____
ROOT
ATOM      1  C   UNL     1       4.060   1.356  -2.748  0.00  0.00    +0.192 A 
ATOM      2  N   UNL     1       3.228   0.371  -2.995  0.00  0.00    -0.122 NA
ATOM      3  N   UNL     1       2.506   0.138  -1.957  0.00  0.00    -0.133 NA
ATOM      4  C   UNL     1       2.825   0.959  -0.997  0.00  0.00    +0.138 A 
ATOM      5  N   UNL     1       3.829   1.762  -1.465  0.00  0.00    -0.309 N 
ATOM      6  C   UNL     1       4.513   2.835  -0.740  0.00  0.00    +0.152 C 
ENDROOT
BRANCH   1   7
ATOM      7  S   UNL     1       5.249   2.027  -3.861  0.00  0.00    -0.077 S 
BRANCH   7   8
ATOM      8  C   UNL     1       4.947   0.985  -5.309  0.00  0.00    +0.173 C 
BRANCH   8  10
ATOM      9  N   UNL     1       5.834   0.747  -7.606  0.00  0.00    -0.284 N 
ATOM     10  C   UNL     1       5.879   1.389  -6.423  0.00  0.00    +0.228 C 
ATOM     11  O   UNL     1       6.670   2.293  -6.253  0.00  0.00    -0.275 OA
ATOM     12  H   UNL     1       5.276  -0.040  -7.710  0.00  0.00    +0.155 HD
BRANCH   9  17
ATOM     13  C   UNL     1       8.912   2.639 -11.982  0.00  0.00    +0.044 C 
ATOM     14  C   UNL     1       8.094   2.137 -10.820  0.00  0.00    -0.049 A 
ATOM     15  C   UNL     1       8.530   2.351  -9.525  0.00  0.00    +0.005 A 
ATOM     16  C   UNL     1       7.783   1.892  -8.458  0.00  0.00    +0.025 A 
ATOM     17  C   UNL     1       6.593   1.214  -8.686  0.00  0.00    +0.052 A 
ATOM     18  C   UNL     1       6.160   0.995  -9.988  0.00  0.00    +0.062 A 
ATOM     19  C   UNL     1       6.909   1.462 -11.051  0.00  0.00    +0.025 A 
ATOM     20 CL   UNL     1       4.676   0.142 -10.279  0.00  0.00    -0.082 Cl
ENDBRANCH   9  17
ENDBRANCH   8  10
ENDBRANCH   7   8
ENDBRANCH   1   7
BRANCH   4  21
ATOM     21  C   UNL     1       2.207   1.011   0.376  0.00  0.00    +0.118 C 
BRANCH  21  22
ATOM     22  C   UNL     1       0.913   1.783   0.316  0.00  0.00    +0.046 A 
ATOM     23  C   UNL     1      -0.296   1.121   0.236  0.00  0.00    +0.049 A 
ATOM     24  N   UNL     1      -1.426   1.808   0.179  0.00  0.00    -0.234 NA
ATOM     25  C   UNL     1      -1.429   3.139   0.207  0.00  0.00    +0.140 A 
ATOM     26  C   UNL     1      -2.652   3.832   0.151  0.00  0.00    +0.047 A 
ATOM     27  C   UNL     1      -2.653   5.194   0.175  0.00  0.00    +0.008 A 
ATOM     28  C   UNL     1      -1.436   5.885   0.256  0.00  0.00    -0.034 A 
ATOM     29  C   UNL     1      -0.270   5.203   0.310  0.00  0.00    +0.099 A 
ATOM     30  N   UNL     1      -0.258   3.841   0.287  0.00  0.00    -0.268 N 
ATOM     31  C   UNL     1       0.919   3.182   0.342  0.00  0.00    +0.262 A 
ATOM     32  O   UNL     1       1.971   3.797   0.412  0.00  0.00    -0.267 OA
ATOM     33  C   UNL     1      -1.427   7.392   0.283  0.00  0.00    +0.045 C 
ATOM     34  C   UNL     1      -0.329  -0.386   0.207  0.00  0.00    +0.066 C 
ENDBRANCH  21  22
ENDBRANCH   4  21
TORSDOF 6
