REMARK  Name = ZINC46538363
REMARK  8 active torsions:
REMARK  status: ('A' for Active; 'I' for Inactive)
REMARK    1  A    between atoms: C_1  and  C_2
REMARK    2  A    between atoms: C_3  and  C_32
REMARK    3  A    between atoms: C_11  and  C_13
REMARK    4  A    between atoms: C_13  and  S_14
REMARK    5  A    between atoms: S_14  and  C_15
REMARK    6  A    between atoms: C_15  and  C_17
REMARK    7  A    between atoms: C_15  and  C_18
REMARK    8  A    between atoms: N_20  and  C_21
REMARK                            x       y       z     vdW  Elec       q    Type
REMARK                         _______ _______ _______ _____ _____    ______ ____
ROOT
ATOM      1  C   UNL     1       0.143  -6.145   5.440  0.00  0.00    +0.130 C 
ATOM      2  C   UNL     1      -1.158  -5.933   6.218  0.00  0.00    +0.029 C 
ENDROOT
BRANCH   1   3
ATOM      3  C   UNL     1       0.276  -7.601   5.073  0.00  0.00    +0.230 C 
ATOM      4  O   UNL     1      -0.013  -7.973   3.956  0.00  0.00    -0.274 OA
ATOM      5  N   UNL     1       0.716  -8.489   5.987  0.00  0.00    -0.283 N 
ATOM      6  H   UNL     1       1.012  -8.182   6.858  0.00  0.00    +0.155 HD
BRANCH   5   7
ATOM      7  C   UNL     1       0.748  -9.854   5.678  0.00  0.00    +0.052 A 
ATOM      8  C   UNL     1       1.051 -10.278   4.385  0.00  0.00    +0.028 A 
ATOM      9  C   UNL     1       1.070 -11.637   4.126  0.00  0.00    +0.050 A 
ATOM     10  C   UNL     1       0.789 -12.527   5.155  0.00  0.00    +0.154 A 
ATOM     11  N   UNL     1       0.504 -12.089   6.370  0.00  0.00    -0.234 NA
ATOM     12  C   UNL     1       0.483 -10.802   6.656  0.00  0.00    +0.136 A 
ATOM     13  N   UNL     1       0.806 -13.903   4.902  0.00  0.00    -0.222 N 
ATOM     14  C   UNL     1       0.547 -14.886   5.803  0.00  0.00    +0.116 A 
ATOM     15  C   UNL     1       0.667 -16.071   5.163  0.00  0.00    +0.041 A 
ATOM     16  C   UNL     1       1.010 -15.810   3.832  0.00  0.00    +0.135 A 
ATOM     17  N   UNL     1       1.087 -14.514   3.673  0.00  0.00    -0.173 NA
ENDBRANCH   5   7
ENDBRANCH   1   3
BRANCH   1  18
ATOM     18  S   UNL     1       0.116  -5.141   3.930  0.00  0.00    -0.141 S 
BRANCH  18  19
ATOM     19  C   UNL     1       0.106  -3.432   4.540  0.00  0.00    +0.144 C 
BRANCH  19  30
ATOM     20  C   UNL     1       0.005   1.495  -0.006  0.00  0.00    +0.045 C 
ATOM     21  C   UNL     1       0.020  -0.012  -0.011  0.00  0.00    -0.026 A 
ATOM     22  C   UNL     1       0.018  -0.687  -1.172  0.00  0.00    -0.008 A 
ATOM     23  S   UNL     1       0.038  -2.394  -0.657  0.00  0.00    -0.073 S 
ATOM     24  C   UNL     1       0.049  -2.151   1.101  0.00  0.00    +0.116 A 
ATOM     25  C   UNL     1       0.042  -0.751   1.237  0.00  0.00    +0.075 A 
ATOM     26  C   UNL     1       0.053  -0.260   2.584  0.00  0.00    +0.260 A 
ATOM     27  O   UNL     1       0.043   0.939   2.806  0.00  0.00    -0.267 OA
ATOM     28  N   UNL     1       0.074  -1.143   3.599  0.00  0.00    -0.310 N 
ATOM     29  H   UNL     1       0.081  -0.817   4.513  0.00  0.00    +0.170 HD
ATOM     30  C   UNL     1       0.084  -2.482   3.370  0.00  0.00    +0.121 A 
ATOM     31  N   UNL     1       0.065  -2.960   2.155  0.00  0.00    -0.226 NA
ATOM     32  C   UNL     1       0.001  -0.135  -2.574  0.00  0.00    +0.052 C 
ENDBRANCH  19  30
ENDBRANCH  18  19
ENDBRANCH   1  18
TORSDOF 5
