REMARK  Name = ZINC08339119
REMARK  6 active torsions:
REMARK  status: ('A' for Active; 'I' for Inactive)
REMARK    1  A    between atoms: C_6  and  C_7
REMARK    2  A    between atoms: C_10  and  C_12
REMARK    3  A    between atoms: C_12  and  N_13
REMARK    4  A    between atoms: C_14  and  C_16
REMARK    5  A    between atoms: C_16  and  C_17
REMARK    6  A    between atoms: C_17  and  N_18
REMARK                            x       y       z     vdW  Elec       q    Type
REMARK                         _______ _______ _______ _____ _____    ______ ____
ROOT
ATOM      1  N   UNL     1      -0.011   0.966   0.007  0.00  0.00    -0.308 N 
ATOM      2  C   UNL     1       1.147   1.655   0.000  0.00  0.00    +0.215 C 
ATOM      3  O   UNL     1       1.130   2.868   0.007  0.00  0.00    -0.276 OA
ATOM      4  H   UNL     1       0.002  -0.004   0.002  0.00  0.00    +0.149 HD
ENDROOT
BRANCH   1   5
ATOM      5  C   UNL     1      -1.290   1.681   0.017  0.00  0.00    +0.178 C 
BRANCH   5   9
ATOM      6  C   UNL     1      -3.985  -0.680  -0.697  0.00  0.00    +0.135 A 
ATOM      7  C   UNL     1      -4.012  -0.717   0.661  0.00  0.00    +0.050 A 
ATOM      8  C   UNL     1      -3.006   0.162   1.112  0.00  0.00    +0.047 A 
ATOM      9  C   UNL     1      -2.422   0.686   0.017  0.00  0.00    +0.123 A 
ATOM     10  O   UNL     1      -3.019   0.180  -1.074  0.00  0.00    -0.458 OA
BRANCH   6  16
ATOM     11  C   UNL     1      -5.833  -2.305  -1.080  0.00  0.00    +0.013 A 
ATOM     12  C   UNL     1      -6.656  -3.013  -1.931  0.00  0.00    +0.021 A 
ATOM     13  C   UNL     1      -6.519  -2.879  -3.302  0.00  0.00    +0.041 A 
ATOM     14  C   UNL     1      -5.559  -2.030  -3.828  0.00  0.00    +0.021 A 
ATOM     15  C   UNL     1      -4.733  -1.314  -2.987  0.00  0.00    +0.013 A 
ATOM     16  C   UNL     1      -4.867  -1.445  -1.603  0.00  0.00    +0.017 A 
ATOM     17 CL   UNL     1      -7.555  -3.778  -4.367  0.00  0.00    -0.084 Cl
ENDBRANCH   6  16
ENDBRANCH   5   9
ENDBRANCH   1   5
BRANCH   2  18
ATOM     18  C   UNL     1       2.462   0.920  -0.017  0.00  0.00    +0.115 C 
BRANCH  18  19
ATOM     19  C   UNL     1       3.611   1.930  -0.022  0.00  0.00    +0.127 C 
BRANCH  19  20
ATOM     20  N   UNL     1       4.890   1.215  -0.038  0.00  0.00    -0.224 N 
ATOM     21  C   UNL     1       5.542   0.850  -1.163  0.00  0.00    +0.247 C 
ATOM     22  O   UNL     1       5.196   1.043  -2.309  0.00  0.00    -0.273 OA
ATOM     23  C   UNL     1       6.791   0.151  -0.690  0.00  0.00    +0.113 C 
ATOM     24  C   UNL     1       8.049   0.869  -1.196  0.00  0.00    +0.035 C 
ATOM     25  C   UNL     1       9.057  -0.280  -1.458  0.00  0.00    +0.003 C 
ATOM     26  C   UNL     1       8.155  -1.409  -2.017  0.00  0.00    +0.003 C 
ATOM     27  C   UNL     1       6.848  -1.290  -1.200  0.00  0.00    +0.035 C 
ATOM     28  N   UNL     1       6.706   0.199   0.771  0.00  0.00    -0.285 N 
ATOM     29  C   UNL     1       5.560   0.846   1.061  0.00  0.00    +0.309 C 
ATOM     30  O   UNL     1       5.177   1.068   2.193  0.00  0.00    -0.252 OA
ATOM     31  H   UNL     1       7.349  -0.161   1.403  0.00  0.00    +0.151 HD
ENDBRANCH  19  20
ENDBRANCH  18  19
ENDBRANCH   2  18
TORSDOF 6
