REMARK  Name = ZINC10359696
REMARK  5 active torsions:
REMARK  status: ('A' for Active; 'I' for Inactive)
REMARK    1  A    between atoms: C_1  and  C_2
REMARK    2  A    between atoms: C_8  and  C_10
REMARK    3  A    between atoms: C_11  and  C_31
REMARK    4  A    between atoms: N_12  and  C_23
REMARK    5  A    between atoms: C_16  and  C_18
REMARK                            x       y       z     vdW  Elec       q    Type
REMARK                         _______ _______ _______ _____ _____    ______ ____
ROOT
ATOM      1  C   UNL     1      -3.718  -4.305   0.416  0.00  0.00    +0.056 C 
ATOM      2  C   UNL     1      -5.054  -4.128   0.350  0.00  0.00    +0.025 C 
ATOM      3  N   UNL     1      -5.885  -5.154  -0.005  0.00  0.00    -0.255 N 
ATOM      4  C   UNL     1      -5.455  -6.386  -0.308  0.00  0.00    +0.142 C 
ATOM      5  S   UNL     1      -6.603  -7.581  -0.737  0.00  0.00    -0.018 S 
ATOM      6  N   UNL     1      -4.148  -6.715  -0.286  0.00  0.00    -0.315 N 
ATOM      7  C   UNL     1      -3.170  -5.677   0.078  0.00  0.00    +0.140 C 
ATOM      8  C   UNL     1      -5.641  -2.778   0.673  0.00  0.00    +0.062 C 
ATOM      9  H   UNL     1      -3.859  -7.614  -0.509  0.00  0.00    +0.149 HD
ENDROOT
BRANCH   1  17
ATOM     10  C   UNL     1       0.185   0.802   2.708  0.00  0.00    +0.089 C 
ATOM     11  C   UNL     1      -0.584   0.206   1.558  0.00  0.00    +0.136 A 
ATOM     12  C   UNL     1      -1.250  -0.962   1.576  0.00  0.00    +0.091 A 
ATOM     13  C   UNL     1      -1.833  -1.154   0.303  0.00  0.00    +0.168 A 
ATOM     14  N   UNL     1      -1.517  -0.126  -0.443  0.00  0.00    -0.063 NA
ATOM     15  O   UNL     1      -0.728   0.751   0.340  0.00  0.00    -0.358 OA
ATOM     16  N   UNL     1      -2.606  -2.246  -0.089  0.00  0.00    -0.264 N 
ATOM     17  C   UNL     1      -2.856  -3.243   0.783  0.00  0.00    +0.249 C 
ATOM     18  O   UNL     1      -2.341  -3.230   1.886  0.00  0.00    -0.270 OA
ATOM     19  H   UNL     1      -2.964  -2.288  -0.990  0.00  0.00    +0.157 HD
ENDBRANCH   1  17
BRANCH   3  20
ATOM     20  C   UNL     1      -7.263  -4.903  -0.054  0.00  0.00    +0.042 A 
ATOM     21  C   UNL     1      -8.095  -5.396   0.942  0.00  0.00    +0.027 A 
ATOM     22  C   UNL     1      -9.453  -5.148   0.892  0.00  0.00    +0.041 A 
ATOM     23  C   UNL     1      -9.985  -4.408  -0.150  0.00  0.00    +0.142 A 
ATOM     24  C   UNL     1      -9.156  -3.915  -1.146  0.00  0.00    +0.078 A 
ATOM     25  C   UNL     1      -7.796  -4.157  -1.096  0.00  0.00    +0.046 A 
ATOM     26 CL   UNL     1      -9.826  -2.988  -2.452  0.00  0.00    -0.081 Cl
ATOM     27  F   UNL     1     -11.313  -4.166  -0.197  0.00  0.00    -0.204 F 
ENDBRANCH   3  20
BRANCH   7  28
ATOM     28  C   UNL     1      -2.202  -5.521  -1.067  0.00  0.00    -0.016 A 
ATOM     29  C   UNL     1      -0.840  -5.625  -0.853  0.00  0.00    +0.013 A 
ATOM     30  C   UNL     1       0.003  -5.480  -1.904  0.00  0.00    +0.045 A 
ATOM     31  S   UNL     1      -1.132  -5.188  -3.251  0.00  0.00    -0.105 S 
ATOM     32  C   UNL     1      -2.654  -5.284  -2.322  0.00  0.00    +0.051 A 
ENDBRANCH   7  28
TORSDOF 3
