REMARK  Name = ZINC52569338
REMARK  4 active torsions:
REMARK  status: ('A' for Active; 'I' for Inactive)
REMARK    1  A    between atoms: C_1  and  C_2
REMARK    2  A    between atoms: C_2  and  C_22
REMARK    3  A    between atoms: N_5  and  C_9
REMARK    4  A    between atoms: C_9  and  N_10
REMARK                            x       y       z     vdW  Elec       q    Type
REMARK                         _______ _______ _______ _____ _____    ______ ____
ROOT
ATOM      1  C   UNL     1       2.849  -1.872  -1.419  0.00  0.00    +0.205 C 
ENDROOT
BRANCH   1   2
ATOM      2  N   UNL     1       3.979  -0.961  -1.644  0.00  0.00    -0.283 NA
ATOM      3  C   UNL     1       3.697  -0.035  -2.748  0.00  0.00    +0.105 C 
ATOM      4  C   UNL     1       4.816   1.009  -2.834  0.00  0.00    +0.122 C 
ATOM      5  N   UNL     1       6.105   0.306  -2.925  0.00  0.00    -0.314 N 
ATOM      6  C   UNL     1       6.401  -0.737  -1.931  0.00  0.00    +0.122 C 
ATOM      7  C   UNL     1       5.220  -1.712  -1.882  0.00  0.00    +0.105 C 
ATOM      8  C   UNL     1       7.018   0.619  -3.925  0.00  0.00    +0.099 A 
ATOM      9  C   UNL     1       6.666   1.523  -4.923  0.00  0.00    +0.042 A 
ATOM     10  C   UNL     1       7.585   1.825  -5.911  0.00  0.00    +0.005 A 
ATOM     11  C   UNL     1       8.831   1.212  -5.868  0.00  0.00    +0.018 A 
ATOM     12  C   UNL     1       9.113   0.325  -4.849  0.00  0.00    +0.084 A 
ATOM     13  N   UNL     1       8.218   0.060  -3.916  0.00  0.00    -0.350 N 
ATOM     14  H   UNL     1       8.444  -0.564  -3.208  0.00  0.00    +0.166 HD
ENDBRANCH   1   2
BRANCH   1  19
ATOM     15  C   UNL     1       0.010   1.571   0.051  0.00  0.00    +0.042 C 
ATOM     16  C   UNL     1       0.010   0.041   0.024  0.00  0.00    +0.113 C 
ATOM     17  C   UNL     1       0.811  -0.471  -1.157  0.00  0.00    +0.248 C 
ATOM     18  O   UNL     1       0.589  -0.276  -2.333  0.00  0.00    -0.273 OA
ATOM     19  N   UNL     1       1.822  -1.189  -0.628  0.00  0.00    -0.211 N 
ATOM     20  C   UNL     1       1.772  -1.201   0.709  0.00  0.00    +0.310 C 
ATOM     21  O   UNL     1       2.576  -1.782   1.410  0.00  0.00    -0.252 OA
ATOM     22  N   UNL     1       0.731  -0.498   1.190  0.00  0.00    -0.285 N 
ATOM     23  H   UNL     1       0.499  -0.370   2.124  0.00  0.00    +0.151 HD
BRANCH  16  24
ATOM     24  C   UNL     1      -1.422  -0.495  -0.019  0.00  0.00    +0.021 C 
ATOM     25  C   UNL     1      -2.537   0.494  -0.364  0.00  0.00    +0.006 C 
ATOM     26  C   UNL     1      -2.387  -0.021   1.069  0.00  0.00    +0.006 C 
ENDBRANCH  16  24
ENDBRANCH   1  19
TORSDOF 3
