REMARK  Name = ZINC22607092
REMARK  1 active torsions:
REMARK  status: ('A' for Active; 'I' for Inactive)
REMARK    1  A    between atoms: C_3  and  C_6
REMARK                            x       y       z     vdW  Elec       q    Type
REMARK                         _______ _______ _______ _____ _____    ______ ____
ROOT
ATOM      1  C   UNL     1       3.599   0.625  -0.029  0.00  0.00    +0.128 C 
ATOM      2  C   UNL     1       4.086  -0.083   1.200  0.00  0.00    +0.072 A 
ATOM      3  C   UNL     1       4.544  -1.362   1.136  0.00  0.00    +0.112 A 
ATOM      4  N   UNL     1       4.975  -1.978   2.282  0.00  0.00    -0.315 N 
ATOM      5  H   UNL     1       5.302  -2.891   2.247  0.00  0.00    +0.170 HD
ATOM      6  C   UNL     1       4.945  -1.312   3.468  0.00  0.00    +0.200 A 
ATOM      7  N   UNL     1       4.508  -0.073   3.543  0.00  0.00    -0.177 NA
ATOM      8  C   UNL     1       4.075   0.575   2.449  0.00  0.00    +0.281 A 
ATOM      9  O   UNL     1       3.675   1.726   2.535  0.00  0.00    -0.265 OA
ATOM     10  N   UNL     1       5.377  -1.942   4.605  0.00  0.00    -0.301 N 
ATOM     11  C   UNL     1       5.466  -1.213   5.877  0.00  0.00    +0.108 C 
ATOM     12  C   UNL     1       4.681  -1.984   6.943  0.00  0.00    +0.019 C 
ATOM     13  C   UNL     1       5.194  -3.424   7.007  0.00  0.00    +0.003 C 
ATOM     14  C   UNL     1       4.972  -4.107   5.655  0.00  0.00    +0.019 C 
ATOM     15  C   UNL     1       5.755  -3.361   4.576  0.00  0.00    +0.108 C 
ATOM     16  N   UNL     1       4.576  -2.026  -0.067  0.00  0.00    -0.304 N 
ATOM     17  C   UNL     1       4.527  -1.336  -1.248  0.00  0.00    +0.017 C 
ATOM     18  C   UNL     1       4.076  -0.065  -1.282  0.00  0.00    +0.027 C 
ATOM     19  C   UNL     1       4.037   0.655  -2.489  0.00  0.00    +0.162 C 
ATOM     20  O   UNL     1       3.619   1.796  -2.489  0.00  0.00    -0.292 OA
ATOM     21  C   UNL     1       4.502   0.040  -3.780  0.00  0.00    +0.080 C 
ATOM     22  C   UNL     1       5.575  -1.011  -3.475  0.00  0.00    +0.014 C 
ATOM     23  C   UNL     1       4.986  -2.033  -2.505  0.00  0.00    +0.051 C 
ATOM     24  H   UNL     1       4.633  -2.995  -0.080  0.00  0.00    +0.153 HD
ENDROOT
BRANCH   1  27
ATOM     25  C   UNL     1      -0.022   1.309  -0.006  0.00  0.00    +0.041 A 
ATOM     26  C   UNL     1       1.321   1.749  -0.009  0.00  0.00    +0.045 A 
ATOM     27  C   UNL     1       2.092   0.646  -0.022  0.00  0.00    +0.117 A 
ATOM     28  O   UNL     1       1.291  -0.431  -0.027  0.00  0.00    -0.467 OA
ATOM     29  C   UNL     1       0.008  -0.036  -0.018  0.00  0.00    +0.195 A 
ENDBRANCH   1  27
TORSDOF 1
