REMARK  Name = ZINC26580671
REMARK  10 active torsions:
REMARK  status: ('A' for Active; 'I' for Inactive)
REMARK    1  A    between atoms: C_1  and  C_2
REMARK    2  A    between atoms: C_2  and  C_3
REMARK    3  A    between atoms: C_3  and  C_4
REMARK    4  A    between atoms: C_4  and  N_5
REMARK    5  A    between atoms: C_11  and  C_19
REMARK    6  A    between atoms: C_15  and  C_17
REMARK    7  A    between atoms: C_17  and  C_18
REMARK    8  A    between atoms: C_22  and  O_25
REMARK    9  A    between atoms: O_25  and  C_26
REMARK   10  A    between atoms: C_26  and  C_27
REMARK                            x       y       z     vdW  Elec       q    Type
REMARK                         _______ _______ _______ _____ _____    ______ ____
ROOT
ATOM      1  N   UNL     1      -1.372  -0.511   0.012  0.00  0.00    -0.248 N 
ATOM      2  C   UNL     1      -2.002  -0.733  -1.160  0.00  0.00    +0.259 C 
ATOM      3  O   UNL     1      -1.444  -0.517  -2.219  0.00  0.00    -0.269 OA
ATOM      4  C   UNL     1      -3.384  -1.244  -1.123  0.00  0.00    +0.119 C 
ATOM      5  C   UNL     1      -4.092  -1.494  -2.283  0.00  0.00    +0.041 C 
ATOM      6  C   UNL     1      -5.507  -2.022  -2.354  0.00  0.00    +0.082 C 
ATOM      7  C   UNL     1      -5.805  -2.111  -3.862  0.00  0.00    +0.132 C 
ATOM      8  N   UNL     1      -4.569  -1.649  -4.508  0.00  0.00    -0.215 N 
ATOM      9  N   UNL     1      -3.635  -1.314  -3.531  0.00  0.00    -0.264 N 
ATOM     10  C   UNL     1      -4.370  -1.564  -5.839  0.00  0.00    +0.232 C 
ATOM     11  O   UNL     1      -5.253  -1.884  -6.606  0.00  0.00    -0.274 OA
ATOM     12  C   UNL     1      -3.978  -1.475   0.206  0.00  0.00    +0.276 C 
ATOM     13  O   UNL     1      -5.114  -1.896   0.318  0.00  0.00    -0.268 OA
ATOM     14  N   UNL     1      -3.228  -1.208   1.295  0.00  0.00    -0.153 NA
ATOM     15  C   UNL     1      -1.974  -0.749   1.187  0.00  0.00    +0.167 C 
ATOM     16  S   UNL     1      -1.095  -0.445   2.624  0.00  0.00    -0.016 S 
ATOM     17  H   UNL     1      -2.641  -0.944  -3.824  0.00  0.00    +0.170 HD
ENDROOT
BRANCH   7  18
ATOM     18  C   UNL     1      -6.958  -1.214  -4.230  0.00  0.00    -0.025 A 
ATOM     19  C   UNL     1      -6.766   0.152  -4.327  0.00  0.00    +0.009 A 
ATOM     20  C   UNL     1      -7.820   0.977  -4.669  0.00  0.00    +0.046 A 
ATOM     21  C   UNL     1      -9.075   0.435  -4.904  0.00  0.00    +0.121 A 
ATOM     22  C   UNL     1      -9.267  -0.936  -4.800  0.00  0.00    +0.046 A 
ATOM     23  C   UNL     1      -8.208  -1.756  -4.464  0.00  0.00    +0.009 A 
BRANCH  21  24
ATOM     24  O   UNL     1     -10.115   1.244  -5.235  0.00  0.00    -0.492 OA
BRANCH  24  25
ATOM     25  C   UNL     1      -9.845   2.645  -5.323  0.00  0.00    +0.225 C 
ATOM     26  C   UNL     1     -11.127   3.389  -5.703  0.00  0.00    +0.048 C 
ENDBRANCH  24  25
ENDBRANCH  21  24
ENDBRANCH   7  18
BRANCH  10  27
ATOM     27  C   UNL     1      -3.049  -1.073  -6.373  0.00  0.00    +0.094 C 
ATOM     28  C   UNL     1      -3.086  -1.073  -7.903  0.00  0.00    +0.013 C 
ENDBRANCH  10  27
BRANCH   1  29
ATOM     29  C   UNL     1       0.002  -0.004   0.002  0.00  0.00    +0.116 C 
BRANCH  29  30
ATOM     30  C   UNL     1      -0.019   1.526   0.010  0.00  0.00    +0.019 C 
BRANCH  30  32
ATOM     31  C   UNL     1       1.396   3.585   0.008  0.00  0.00    +0.004 C 
ATOM     32  C   UNL     1       1.417   2.055  -0.000  0.00  0.00    -0.002 C 
ENDBRANCH  30  32
ENDBRANCH  29  30
ENDBRANCH   1  29
TORSDOF 7
