REMARK  Name = ZINC60362211
REMARK  6 active torsions:
REMARK  status: ('A' for Active; 'I' for Inactive)
REMARK    1  A    between atoms: C_1  and  C_2
REMARK    2  A    between atoms: C_2  and  C_3
REMARK    3  A    between atoms: C_2  and  C_4
REMARK    4  A    between atoms: C_4  and  C_5
REMARK    5  A    between atoms: C_5  and  C_7
REMARK    6  A    between atoms: C_5  and  N_20
REMARK                            x       y       z     vdW  Elec       q    Type
REMARK                         _______ _______ _______ _____ _____    ______ ____
ROOT
ATOM      1  C   UNL     1      -1.416  -2.060   0.003  0.00  0.00    +0.171 C 
ENDROOT
BRANCH   1   2
ATOM      2  C   UNL     1      -2.812  -2.576  -0.234  0.00  0.00    +0.240 C 
ATOM      3  O   UNL     1      -3.345  -3.283   0.595  0.00  0.00    -0.273 OA
ATOM      4  N   UNL     1      -3.467  -2.252  -1.366  0.00  0.00    -0.263 N 
ATOM      5  C   UNL     1      -4.748  -2.725  -1.583  0.00  0.00    +0.165 A 
ATOM      6  N   UNL     1      -5.532  -2.514  -2.628  0.00  0.00    -0.229 NA
ATOM      7  C   UNL     1      -6.735  -3.026  -2.713  0.00  0.00    +0.061 A 
ATOM      8  C   UNL     1      -7.109  -3.806  -1.611  0.00  0.00    +0.079 A 
ATOM      9  S   UNL     1      -5.678  -3.713  -0.581  0.00  0.00    -0.049 S 
ATOM     10  C   UNL     1      -8.327  -4.461  -1.463  0.00  0.00    +0.172 C 
ATOM     11  O   UNL     1      -8.585  -5.103  -0.464  0.00  0.00    -0.291 OA
ATOM     12  C   UNL     1      -9.322  -4.338  -2.603  0.00  0.00    +0.080 C 
ATOM     13  C   UNL     1      -9.137  -2.987  -3.295  0.00  0.00    +0.014 C 
ATOM     14  C   UNL     1      -7.720  -2.846  -3.858  0.00  0.00    +0.057 C 
ATOM     15  H   UNL     1      -3.041  -1.686  -2.028  0.00  0.00    +0.157 HD
ENDBRANCH   1   2
BRANCH   1  16
ATOM     16  N   UNL     1      -0.926  -2.550   1.294  0.00  0.00    -0.222 N 
ATOM     17  C   UNL     1      -1.459  -2.221   2.485  0.00  0.00    +0.254 C 
ATOM     18  O   UNL     1      -2.407  -1.482   2.657  0.00  0.00    -0.270 OA
ATOM     19  C   UNL     1      -0.698  -2.910   3.548  0.00  0.00    +0.049 A 
ATOM     20  C   UNL     1      -0.785  -2.949   4.930  0.00  0.00    +0.014 A 
ATOM     21  C   UNL     1       0.112  -3.719   5.654  0.00  0.00    +0.001 A 
ATOM     22  C   UNL     1       1.092  -4.447   5.006  0.00  0.00    +0.001 A 
ATOM     23  C   UNL     1       1.192  -4.417   3.624  0.00  0.00    +0.014 A 
ATOM     24  C   UNL     1       0.302  -3.652   2.888  0.00  0.00    +0.049 A 
ATOM     25  C   UNL     1       0.111  -3.393   1.445  0.00  0.00    +0.254 C 
ATOM     26  O   UNL     1       0.781  -3.861   0.546  0.00  0.00    -0.270 OA
ENDBRANCH   1  16
BRANCH   1  27
ATOM     27  C   UNL     1      -1.432  -0.530   0.011  0.00  0.00    +0.035 C 
BRANCH  27  29
ATOM     28  C   UNL     1       0.800  -0.378  -1.102  0.00  0.00    +0.007 C 
ATOM     29  C   UNL     1      -0.001  -0.006   0.147  0.00  0.00    -0.015 C 
ATOM     30  C   UNL     1      -0.028   1.516   0.301  0.00  0.00    +0.007 C 
ENDBRANCH  27  29
ENDBRANCH   1  27
TORSDOF 4
