REMARK  Name = ZINC63265647
REMARK  6 active torsions:
REMARK  status: ('A' for Active; 'I' for Inactive)
REMARK    1  A    between atoms: C_1  and  C_2
REMARK    2  A    between atoms: C_2  and  C_3
REMARK    3  A    between atoms: C_2  and  N_4
REMARK    4  A    between atoms: N_7  and  N_8
REMARK    5  A    between atoms: C_9  and  C_11
REMARK    6  A    between atoms: C_13  and  C_16
REMARK                            x       y       z     vdW  Elec       q    Type
REMARK                         _______ _______ _______ _____ _____    ______ ____
ROOT
ATOM      1  N   UNL     1      -3.940  -1.414   0.052  0.00  0.00    -0.230 N 
ATOM      2  C   UNL     1      -5.205  -1.881   0.061  0.00  0.00    +0.273 C 
ATOM      3  O   UNL     1      -5.449  -2.981  -0.386  0.00  0.00    -0.270 OA
ATOM      4  H   UNL     1      -3.745  -0.534   0.409  0.00  0.00    +0.173 HD
ENDROOT
BRANCH   1   8
ATOM      5  N   UNL     1      -1.372  -0.511   0.012  0.00  0.00    -0.296 N 
ATOM      6  C   UNL     1      -1.643  -1.734  -0.485  0.00  0.00    +0.316 C 
ATOM      7  O   UNL     1      -0.747  -2.417  -0.942  0.00  0.00    -0.251 OA
ATOM      8  N   UNL     1      -2.908  -2.201  -0.475  0.00  0.00    -0.218 N 
ATOM      9  H   UNL     1      -2.087   0.033   0.377  0.00  0.00    +0.151 HD
ATOM     10  H   UNL     1      -3.103  -3.081  -0.833  0.00  0.00    +0.174 HD
BRANCH   5  12
ATOM     11  C   UNL     1      -0.019   1.526   0.010  0.00  0.00    +0.027 C 
ATOM     12  C   UNL     1       0.002  -0.004   0.002  0.00  0.00    +0.068 C 
ATOM     13  C   UNL     1       0.742  -0.511   1.242  0.00  0.00    +0.027 C 
ENDBRANCH   5  12
ENDBRANCH   1   8
BRANCH   2  14
ATOM     14  C   UNL     1      -6.316  -1.035   0.628  0.00  0.00    +0.297 C 
ATOM     15  C   UNL     1      -6.205  -0.934   2.168  0.00  0.00    +0.117 C 
ATOM     16  C   UNL     1      -7.656  -0.972   2.607  0.00  0.00    +0.098 C 
ATOM     17  N   UNL     1      -8.369  -1.394   1.611  0.00  0.00    -0.088 NA
ATOM     18  O   UNL     1      -7.593  -1.685   0.466  0.00  0.00    -0.380 OA
BRANCH  16  19
ATOM     19  C   UNL     1      -8.164  -0.596   3.930  0.00  0.00    +0.038 A 
ATOM     20  C   UNL     1      -9.466  -0.610   4.401  0.00  0.00    +0.019 A 
ATOM     21  C   UNL     1      -9.697  -0.208   5.694  0.00  0.00    +0.028 A 
ATOM     22  C   UNL     1      -8.648   0.189   6.466  0.00  0.00    +0.079 A 
ATOM     23  S   UNL     1      -7.264  -0.008   5.356  0.00  0.00    -0.075 S 
ATOM     24 CL   UNL     1      -8.654   0.740   8.112  0.00  0.00    -0.076 Cl
ENDBRANCH  16  19
ENDBRANCH   2  14
TORSDOF 4
