REMARK  Name = ZINC37359264
REMARK  2 active torsions:
REMARK  status: ('A' for Active; 'I' for Inactive)
REMARK    1  A    between atoms: C_6  and  C_7
REMARK    2  A    between atoms: C_7  and  C_9
REMARK                            x       y       z     vdW  Elec       q    Type
REMARK                         _______ _______ _______ _____ _____    ______ ____
ROOT
ATOM      1  C   UNL     1      -1.300  -2.234  -0.092  0.00  0.00    +0.024 A 
ATOM      2  C   UNL     1      -0.106  -2.965  -0.096  0.00  0.00    +0.014 A 
ATOM      3  C   UNL     1      -0.133  -4.327  -0.192  0.00  0.00    +0.028 A 
ATOM      4  C   UNL     1      -1.347  -4.998  -0.285  0.00  0.00    +0.067 A 
ATOM      5  C   UNL     1      -2.548  -4.279  -0.282  0.00  0.00    +0.067 A 
ATOM      6  C   UNL     1      -2.526  -2.900  -0.180  0.00  0.00    +0.039 A 
ATOM      7  N   UNL     1      -3.576  -5.213  -0.387  0.00  0.00    -0.306 N 
ATOM      8  H   UNL     1      -4.525  -5.014  -0.409  0.00  0.00    +0.170 HD
ATOM      9  C   UNL     1      -3.026  -6.440  -0.450  0.00  0.00    +0.325 A 
ATOM     10  O   UNL     1      -3.647  -7.482  -0.547  0.00  0.00    -0.247 OA
ATOM     11  N   UNL     1      -1.685  -6.340  -0.392  0.00  0.00    -0.306 N 
ATOM     12  H   UNL     1      -1.059  -7.081  -0.419  0.00  0.00    +0.170 HD
ENDROOT
BRANCH   1  13
ATOM     13  C   UNL     1      -1.265  -0.763   0.011  0.00  0.00    +0.193 C 
ATOM     14  O   UNL     1      -2.143  -0.175   0.612  0.00  0.00    -0.287 OA
BRANCH  13  20
ATOM     15  C   UNL     1      -0.038   1.367  -0.389  0.00  0.00    +0.013 A 
ATOM     16  C   UNL     1       0.993   2.069  -0.977  0.00  0.00    +0.015 A 
ATOM     17  C   UNL     1       1.902   1.416  -1.793  0.00  0.00    +0.013 A 
ATOM     18  C   UNL     1       1.783   0.056  -2.023  0.00  0.00    +0.015 A 
ATOM     19  C   UNL     1       0.757  -0.657  -1.441  0.00  0.00    +0.013 A 
ATOM     20  C   UNL     1      -0.164  -0.005  -0.617  0.00  0.00    +0.022 A 
ATOM     21  I   UNL     1       3.464   2.492  -2.683  0.00  0.00    -0.044 I 
ENDBRANCH  13  20
ENDBRANCH   1  13
TORSDOF 2
