REMARK  Name = ZINC48823456
REMARK  3 active torsions:
REMARK  status: ('A' for Active; 'I' for Inactive)
REMARK    1  A    between atoms: C_3  and  C_6
REMARK    2  A    between atoms: N_8  and  C_12
REMARK    3  A    between atoms: C_12  and  C_13
REMARK                            x       y       z     vdW  Elec       q    Type
REMARK                         _______ _______ _______ _____ _____    ______ ____
ROOT
ATOM      1  C   UNL     1       3.734   1.822  -0.024  0.00  0.00    +0.256 A 
ATOM      2  N   UNL     1       4.803   1.075  -0.043  0.00  0.00    -0.126 NA
ATOM      3  N   UNL     1       5.918   1.927  -0.047  0.00  0.00    -0.186 N 
ATOM      4  C   UNL     1       5.446   3.191  -0.029  0.00  0.00    +0.439 A 
ATOM      5  O   UNL     1       6.114   4.208  -0.027  0.00  0.00    -0.221 OA
ATOM      6  O   UNL     1       4.104   3.121  -0.021  0.00  0.00    -0.387 OA
ENDROOT
BRANCH   1   9
ATOM      7  C   UNL     1      -0.016   1.354   0.009  0.00  0.00    +0.008 A 
ATOM      8  C   UNL     1       1.176   2.042   0.002  0.00  0.00    +0.021 A 
ATOM      9  C   UNL     1       2.348   1.328  -0.013  0.00  0.00    +0.076 A 
ATOM     10  S   UNL     1       1.752  -0.355  -0.017  0.00  0.00    -0.092 S 
ATOM     11  C   UNL     1       0.002  -0.004   0.002  0.00  0.00    +0.046 A 
ENDBRANCH   1   9
BRANCH   3  12
ATOM     12  C   UNL     1       7.326   1.521  -0.066  0.00  0.00    +0.246 C 
BRANCH  12  13
ATOM     13  C   UNL     1       7.824   1.368   1.348  0.00  0.00    +0.240 C 
ATOM     14  O   UNL     1       7.077   1.577   2.280  0.00  0.00    -0.273 OA
ATOM     15  N   UNL     1       9.100   0.999   1.577  0.00  0.00    -0.264 N 
ATOM     16  C   UNL     1       9.556   0.858   2.874  0.00  0.00    +0.156 C 
ATOM     17  N   UNL     1       8.880   1.039   3.971  0.00  0.00    -0.262 NA
ATOM     18  C   UNL     1       9.500   0.879   5.274  0.00  0.00    +0.155 C 
ATOM     19  C   UNL     1      10.815   0.059   5.170  0.00  0.00    +0.100 C 
ATOM     20  S   UNL     1      11.196   0.382   3.397  0.00  0.00    -0.089 S 
ATOM     21  H   UNL     1       9.697   0.831   0.832  0.00  0.00    +0.157 HD
ENDBRANCH  12  13
ENDBRANCH   3  12
TORSDOF 3
