REMARK  Name = ZINC39940657
REMARK  7 active torsions:
REMARK  status: ('A' for Active; 'I' for Inactive)
REMARK    1  A    between atoms: C_4  and  C_7
REMARK    2  A    between atoms: C_7  and  N_8
REMARK    3  A    between atoms: C_9  and  C_11
REMARK    4  A    between atoms: C_22  and  N_24
REMARK    5  A    between atoms: C_25  and  C_27
REMARK    6  A    between atoms: C_27  and  S_28
REMARK    7  A    between atoms: S_28  and  C_29
REMARK                            x       y       z     vdW  Elec       q    Type
REMARK                         _______ _______ _______ _____ _____    ______ ____
ROOT
ATOM      1  C   UNL     1       5.764  -1.853   2.984  0.00  0.00    +0.109 C 
ATOM      2  C   UNL     1       7.067  -2.662   2.944  0.00  0.00    +0.016 C 
ATOM      3  C   UNL     1       6.784  -4.040   3.511  0.00  0.00    +0.005 C 
ATOM      4  C   UNL     1       8.046  -4.800   3.888  0.00  0.00    +0.000 C 
ATOM      5  C   UNL     1       8.802  -3.973   4.937  0.00  0.00    +0.001 C 
ATOM      6  C   UNL     1       9.316  -2.715   4.247  0.00  0.00    +0.014 C 
ATOM      7  C   UNL     1       8.240  -1.937   3.578  0.00  0.00    +0.052 C 
ATOM      8  S   UNL     1       7.401  -0.789   4.748  0.00  0.00    -0.134 S 
ATOM      9  C   UNL     1       5.899  -0.494   3.708  0.00  0.00    +0.143 C 
ENDROOT
BRANCH   1  11
ATOM     10  N   UNL     1       4.152  -0.952   1.338  0.00  0.00    -0.311 N 
ATOM     11  C   UNL     1       5.311  -1.601   1.569  0.00  0.00    +0.219 C 
ATOM     12  O   UNL     1       5.989  -1.981   0.638  0.00  0.00    -0.275 OA
ATOM     13  H   UNL     1       3.610  -0.648   2.082  0.00  0.00    +0.149 HD
BRANCH  10  14
ATOM     14  C   UNL     1       3.711  -0.707  -0.038  0.00  0.00    +0.139 C 
BRANCH  14  18
ATOM     15  C   UNL     1      -0.017   1.378   0.010  0.00  0.00    +0.000 A 
ATOM     16  C   UNL     1       1.171   2.086   0.002  0.00  0.00    +0.000 A 
ATOM     17  C   UNL     1       2.377   1.411  -0.013  0.00  0.00    +0.005 A 
ATOM     18  C   UNL     1       2.396   0.029  -0.020  0.00  0.00    -0.030 A 
ATOM     19  C   UNL     1       1.208  -0.679  -0.012  0.00  0.00    +0.005 A 
ATOM     20  C   UNL     1       0.002  -0.004   0.002  0.00  0.00    +0.000 A 
ENDBRANCH  14  18
ENDBRANCH  10  14
ENDBRANCH   1  11
BRANCH   9  21
ATOM     21  N   UNL     1       4.735  -0.235   4.560  0.00  0.00    -0.302 N 
ATOM     22  C   UNL     1       4.907   0.232   5.813  0.00  0.00    +0.224 C 
ATOM     23  O   UNL     1       6.026   0.436   6.235  0.00  0.00    -0.275 OA
ATOM     24  H   UNL     1       3.841  -0.399   4.222  0.00  0.00    +0.150 HD
BRANCH  22  25
ATOM     25  C   UNL     1       3.710   0.498   6.689  0.00  0.00    +0.173 C 
BRANCH  25  26
ATOM     26  S   UNL     1       4.267   1.114   8.302  0.00  0.00    -0.077 S 
BRANCH  26  27
ATOM     27  C   UNL     1       2.772   1.375   9.197  0.00  0.00    +0.184 A 
ATOM     28  H   UNL     1       3.404   2.073  11.054  0.00  0.00    +0.191 HD
ATOM     29  N   UNL     1       1.553   1.157   8.751  0.00  0.00    -0.209 NA
ATOM     30  C   UNL     1       0.666   1.464   9.698  0.00  0.00    +0.245 A 
ATOM     31  N   UNL     1       1.301   1.881  10.760  0.00  0.00    -0.160 NA
ATOM     32  N   UNL     1       2.673   1.829  10.465  0.00  0.00    -0.254 N 
ENDBRANCH  26  27
ENDBRANCH  25  26
ENDBRANCH  22  25
ENDBRANCH   9  21
TORSDOF 7
