REMARK  Name = ZINC63541011
REMARK  7 active torsions:
REMARK  status: ('A' for Active; 'I' for Inactive)
REMARK    1  A    between atoms: C_1  and  C_2
REMARK    2  A    between atoms: C_4  and  C_25
REMARK    3  A    between atoms: C_8  and  N_12
REMARK    4  A    between atoms: C_13  and  C_15
REMARK    5  A    between atoms: C_15  and  C_17
REMARK    6  A    between atoms: C_15  and  N_18
REMARK    7  A    between atoms: C_21  and  C_23
REMARK                            x       y       z     vdW  Elec       q    Type
REMARK                         _______ _______ _______ _____ _____    ______ ____
ROOT
ATOM      1  N   UNL     1       1.228   0.411   2.982  0.00  0.00    -0.289 N 
ATOM      2  C   UNL     1       1.122   1.507   3.759  0.00  0.00    +0.239 C 
ATOM      3  O   UNL     1       0.037   1.852   4.177  0.00  0.00    -0.273 OA
ATOM      4  H   UNL     1       2.095   0.135   2.648  0.00  0.00    +0.151 HD
ENDROOT
BRANCH   1  12
ATOM      5  C   UNL     1      -0.018   1.503   0.010  0.00  0.00    +0.044 C 
ATOM      6  C   UNL     1       0.002  -0.004   0.002  0.00  0.00    -0.038 A 
ATOM      7  C   UNL     1       0.006  -0.713  -1.194  0.00  0.00    +0.027 A 
ATOM      8  C   UNL     1       0.026  -2.097  -1.154  0.00  0.00    +0.041 A 
ATOM      9  N   UNL     1       0.040  -2.750  -0.012  0.00  0.00    -0.231 NA
ATOM     10  C   UNL     1       0.037  -2.115   1.157  0.00  0.00    +0.179 A 
ATOM     11  C   UNL     1       0.023  -0.716   1.175  0.00  0.00    +0.043 A 
ATOM     12  C   UNL     1       0.032  -0.364   2.643  0.00  0.00    +0.220 C 
ATOM     13  N   UNL     1       0.056  -1.681   3.304  0.00  0.00    -0.282 N 
ATOM     14  N   UNL     1       0.049  -2.566   2.448  0.00  0.00    -0.156 NA
ATOM     15  C   UNL     1       0.030  -2.872  -2.446  0.00  0.00    +0.065 C 
ATOM     16  H   UNL     1       0.067  -1.827   4.263  0.00  0.00    +0.185 HD
ENDBRANCH   1  12
BRANCH   2  17
ATOM     17  C   UNL     1       2.352   2.305   4.107  0.00  0.00    +0.189 C 
ATOM     18  C   UNL     1       3.006   2.822   2.824  0.00  0.00    +0.042 C 
BRANCH  17  19
ATOM     19  N   UNL     1       1.975   3.439   4.955  0.00  0.00    -0.258 N 
ATOM     20  C   UNL     1       1.528   4.638   4.524  0.00  0.00    +0.124 A 
ATOM     21  C   UNL     1       1.291   5.405   5.614  0.00  0.00    +0.058 A 
ATOM     22  C   UNL     1       1.604   4.649   6.749  0.00  0.00    +0.074 A 
ATOM     23  N   UNL     1       2.009   3.469   6.355  0.00  0.00    -0.175 NA
ATOM     24  C   UNL     1       1.489   5.112   8.178  0.00  0.00    +0.068 C 
ATOM     25 BR   UNL     1       0.651   7.184   5.604  0.00  0.00    -0.047 Br
ENDBRANCH  17  19
ENDBRANCH   2  17
TORSDOF 3
