REMARK  Name = ZINC07984914
REMARK  5 active torsions:
REMARK  status: ('A' for Active; 'I' for Inactive)
REMARK    1  A    between atoms: C_1  and  C_2
REMARK    2  A    between atoms: C_2  and  N_3
REMARK    3  A    between atoms: N_3  and  C_4
REMARK    4  A    between atoms: N_3  and  S_10
REMARK    5  A    between atoms: S_10  and  C_13
REMARK                            x       y       z     vdW  Elec       q    Type
REMARK                         _______ _______ _______ _____ _____    ______ ____
ROOT
ATOM      1  C   UNL     1       5.624   2.907  -2.042  0.00  0.00    +0.125 A 
ATOM      2  C   UNL     1       5.418   2.092  -0.936  0.00  0.00    +0.033 A 
ATOM      3  C   UNL     1       4.271   1.321  -0.888  0.00  0.00    +0.043 A 
ATOM      4  C   UNL     1       3.368   1.386  -1.944  0.00  0.00    +0.099 A 
ATOM      5  C   UNL     1       4.685   2.922  -3.054  0.00  0.00    +0.113 A 
ATOM      6  N   UNL     1       2.211   0.615  -1.910  0.00  0.00    -0.306 N 
ATOM      7  C   UNL     1       1.310   1.065  -0.836  0.00  0.00    +0.125 C 
ATOM      8  C   UNL     1      -0.056   0.406  -1.033  0.00  0.00    +0.123 C 
ATOM      9  N   UNL     1       0.104  -1.034  -1.213  0.00  0.00    -0.313 N 
ATOM     10  C   UNL     1       1.268  -1.599  -1.549  0.00  0.00    +0.230 C 
ATOM     11  O   UNL     1       1.306  -2.801  -1.708  0.00  0.00    -0.274 OA
ATOM     12  C   UNL     1       2.532  -0.808  -1.739  0.00  0.00    +0.202 C 
ATOM     13  H   UNL     1      -0.668  -1.607  -1.082  0.00  0.00    +0.149 HD
ATOM     14  N   UNL     1       3.550   2.173  -3.044  0.00  0.00    -0.348 N 
ATOM     15  H   UNL     1       2.873   2.198  -3.815  0.00  0.00    +0.167 HD
ENDROOT
BRANCH   1  16
ATOM     16  S   UNL     1       7.068   3.910  -2.153  0.00  0.00    +0.076 S 
ATOM     17  O   UNL     1       6.750   4.983  -3.029  0.00  0.00    -0.150 OA
ATOM     18  O   UNL     1       7.518   4.122  -0.822  0.00  0.00    -0.150 OA
BRANCH  16  19
ATOM     19  N   UNL     1       8.233   3.010  -2.909  0.00  0.00    -0.203 N 
BRANCH  19  20
ATOM     20  C   UNL     1       9.171   2.303  -2.153  0.00  0.00    +0.051 A 
ATOM     21  C   UNL     1       9.257   0.921  -2.265  0.00  0.00    +0.025 A 
ATOM     22  C   UNL     1      10.188   0.226  -1.520  0.00  0.00    +0.002 A 
ATOM     23  C   UNL     1      11.027   0.903  -0.653  0.00  0.00    +0.000 A 
ATOM     24  C   UNL     1      10.941   2.278  -0.535  0.00  0.00    +0.002 A 
ATOM     25  C   UNL     1      10.015   2.980  -1.282  0.00  0.00    +0.025 A 
ENDBRANCH  19  20
BRANCH  19  27
ATOM     26  C   UNL     1       9.270   4.001  -4.891  0.00  0.00    +0.026 C 
ATOM     27  C   UNL     1       8.281   2.955  -4.373  0.00  0.00    +0.128 C 
ENDBRANCH  19  27
ENDBRANCH  16  19
ENDBRANCH   1  16
TORSDOF 4
