REMARK  Name = ZINC04564007
REMARK  4 active torsions:
REMARK  status: ('A' for Active; 'I' for Inactive)
REMARK    1  A    between atoms: C_4  and  N_8
REMARK    2  A    between atoms: C_9  and  C_11
REMARK    3  A    between atoms: C_11  and  N_12
REMARK    4  A    between atoms: C_18  and  N_23
REMARK                            x       y       z     vdW  Elec       q    Type
REMARK                         _______ _______ _______ _____ _____    ______ ____
ROOT
ATOM      1  N   UNL     1       4.810  -4.021   0.889  0.00  0.00    -0.290 N 
ATOM      2  C   UNL     1       4.817  -4.308   2.217  0.00  0.00    +0.203 A 
ATOM      3  N   UNL     1       4.644  -5.505   2.690  0.00  0.00    -0.237 NA
ATOM      4  C   UNL     1       4.440  -6.569   1.874  0.00  0.00    +0.078 A 
ATOM      5  C   UNL     1       4.254  -7.857   2.382  0.00  0.00    +0.031 A 
ATOM      6  C   UNL     1       4.050  -8.908   1.516  0.00  0.00    +0.035 A 
ATOM      7  C   UNL     1       4.028  -8.705   0.143  0.00  0.00    +0.127 A 
ATOM      8  C   UNL     1       4.210  -7.444  -0.382  0.00  0.00    +0.048 A 
ATOM      9  C   UNL     1       4.417  -6.366   0.476  0.00  0.00    +0.067 A 
ATOM     10  C   UNL     1       4.611  -4.998  -0.026  0.00  0.00    +0.262 A 
ATOM     11  O   UNL     1       4.597  -4.754  -1.218  0.00  0.00    -0.267 OA
ENDROOT
BRANCH   7  12
ATOM     12  N   UNL     1       3.807  -9.853  -0.765  0.00  0.00    +0.056 N 
ATOM     13  O   UNL     1       3.648 -10.961  -0.310  0.00  0.00    -0.126 OA
ATOM     14  O   UNL     1       3.787  -9.682  -1.962  0.00  0.00    -0.126 OA
ENDBRANCH   7  12
BRANCH   1  15
ATOM     15  C   UNL     1       5.014  -2.640   0.444  0.00  0.00    +0.222 C 
BRANCH  15  17
ATOM     16  N   UNL     1       3.624  -0.651  -0.037  0.00  0.00    -0.282 N 
ATOM     17  C   UNL     1       3.683  -1.940   0.354  0.00  0.00    +0.237 C 
ATOM     18  O   UNL     1       2.664  -2.535   0.634  0.00  0.00    -0.274 OA
ATOM     19  H   UNL     1       4.429  -0.197  -0.331  0.00  0.00    +0.155 HD
BRANCH  16  23
ATOM     20  C   UNL     1      -0.016   1.379   0.010  0.00  0.00    +0.003 A 
ATOM     21  C   UNL     1       0.787   1.377   1.135  0.00  0.00    +0.022 A 
ATOM     22  C   UNL     1       1.994   0.704   1.123  0.00  0.00    +0.064 A 
ATOM     23  C   UNL     1       2.401   0.030  -0.021  0.00  0.00    +0.070 A 
ATOM     24  C   UNL     1       1.591   0.035  -1.151  0.00  0.00    +0.064 A 
ATOM     25  C   UNL     1       0.385   0.710  -1.131  0.00  0.00    +0.022 A 
ATOM     26 CL   UNL     1       2.095  -0.805  -2.584  0.00  0.00    -0.082 Cl
ATOM     27 CL   UNL     1       3.002   0.703   2.537  0.00  0.00    -0.082 Cl
ENDBRANCH  16  23
ENDBRANCH  15  17
ENDBRANCH   1  15
TORSDOF 4
