REMARK  Name = ZINC39738292
REMARK  4 active torsions:
REMARK  status: ('A' for Active; 'I' for Inactive)
REMARK    1  A    between atoms: C_4  and  C_7
REMARK    2  A    between atoms: C_9  and  N_13
REMARK    3  A    between atoms: N_13  and  N_14
REMARK    4  A    between atoms: C_16  and  C_28
REMARK                            x       y       z     vdW  Elec       q    Type
REMARK                         _______ _______ _______ _____ _____    ______ ____
ROOT
ATOM      1  N   UNL     1       6.885  -3.816   1.071  0.00  0.00    -0.182 NA
ATOM      2  C   UNL     1       7.324  -4.393   2.155  0.00  0.00    +0.151 C 
ATOM      3  C   UNL     1       6.562  -4.260   3.447  0.00  0.00    +0.240 C 
ATOM      4  N   UNL     1       7.353  -3.603   4.454  0.00  0.00    -0.368 N 
ATOM      5  C   UNL     1       8.578  -3.676   4.783  0.00  0.00    +0.058 A 
ATOM      6  C   UNL     1       9.064  -2.750   5.837  0.00  0.00    +0.027 A 
ATOM      7  C   UNL     1      10.294  -2.921   6.356  0.00  0.00    +0.002 A 
ATOM      8  C   UNL     1      11.134  -3.962   5.925  0.00  0.00    +0.002 A 
ATOM      9  C   UNL     1      10.803  -4.776   4.903  0.00  0.00    +0.025 A 
ATOM     10  C   UNL     1       9.567  -4.618   4.211  0.00  0.00    +0.057 A 
ATOM     11  N   UNL     1       9.431  -5.272   3.093  0.00  0.00    -0.279 N 
ATOM     12  C   UNL     1       8.555  -5.176   2.124  0.00  0.00    +0.266 C 
ATOM     13  O   UNL     1       8.789  -5.795   1.099  0.00  0.00    -0.268 OA
ATOM     14  H   UNL     1       6.846  -2.975   4.993  0.00  0.00    +0.161 HD
ATOM     15  H   UNL     1      10.100  -5.959   2.952  0.00  0.00    +0.155 HD
ENDROOT
BRANCH   3  16
ATOM     16  C   UNL     1       6.175  -5.654   3.946  0.00  0.00    +0.415 C 
ATOM     17  F   UNL     1       7.332  -6.411   4.157  0.00  0.00    -0.168 F 
ATOM     18  F   UNL     1       5.466  -5.539   5.146  0.00  0.00    -0.168 F 
ATOM     19  F   UNL     1       5.373  -6.285   2.989  0.00  0.00    -0.168 F 
ENDBRANCH   3  16
BRANCH   1  20
ATOM     20  N   UNL     1       5.786  -2.950   1.135  0.00  0.00    -0.239 N 
ATOM     21  H   UNL     1       5.400  -2.718   1.994  0.00  0.00    +0.171 HD
BRANCH  20  24
ATOM     22  C   UNL     1       3.612  -0.807  -0.111  0.00  0.00    +0.093 C 
ATOM     23  C   UNL     1       3.731  -2.137   0.066  0.00  0.00    +0.052 C 
ATOM     24  C   UNL     1       5.219  -2.394  -0.096  0.00  0.00    +0.253 C 
ATOM     25  N   UNL     1       5.763  -1.052  -0.364  0.00  0.00    -0.159 NA
ATOM     26  N   UNL     1       4.826  -0.251  -0.360  0.00  0.00    -0.152 NA
BRANCH  22  30
ATOM     27  C   UNL     1      -0.051   1.344   0.069  0.00  0.00    +0.000 A 
ATOM     28  C   UNL     1       1.130   2.015  -0.193  0.00  0.00    +0.001 A 
ATOM     29  C   UNL     1       2.322   1.322  -0.252  0.00  0.00    +0.010 A 
ATOM     30  C   UNL     1       2.334  -0.057  -0.048  0.00  0.00    +0.002 A 
ATOM     31  C   UNL     1       1.141  -0.727   0.215  0.00  0.00    +0.010 A 
ATOM     32  C   UNL     1      -0.045  -0.024   0.272  0.00  0.00    +0.001 A 
ENDBRANCH  22  30
ENDBRANCH  20  24
ENDBRANCH   1  20
TORSDOF 4
