REMARK  Name = ZINC39094482
REMARK  2 active torsions:
REMARK  status: ('A' for Active; 'I' for Inactive)
REMARK    1  A    between atoms: C_1  and  C_2
REMARK    2  A    between atoms: C_5  and  C_15
REMARK                            x       y       z     vdW  Elec       q    Type
REMARK                         _______ _______ _______ _____ _____    ______ ____
ROOT
ATOM      1  C   UNL     1       0.121   1.165   0.794  0.00  0.00    +0.007 C 
ATOM      2  C   UNL     1       0.124  -0.328   0.457  0.00  0.00    -0.010 C 
ATOM      3  C   UNL     1       0.737  -0.537  -0.929  0.00  0.00    +0.006 C 
ATOM      4  C   UNL     1       0.730  -2.028  -1.274  0.00  0.00    -0.010 C 
ATOM      5  C   UNL     1       1.562  -2.792  -0.240  0.00  0.00    +0.053 C 
ATOM      6  C   UNL     1       0.982  -2.566   1.149  0.00  0.00    +0.131 C 
ATOM      7  C   UNL     1       0.954  -1.084   1.499  0.00  0.00    +0.053 C 
ATOM      8  C   UNL     1       1.787  -3.351   2.203  0.00  0.00    +0.155 C 
ATOM      9  N   UNL     1       0.725  -3.817   3.119  0.00  0.00    -0.277 N 
ATOM     10  C   UNL     1      -0.458  -3.642   2.498  0.00  0.00    +0.401 C 
ATOM     11  O   UNL     1      -1.529  -3.909   3.005  0.00  0.00    -0.226 OA
ATOM     12  O   UNL     1      -0.327  -3.141   1.256  0.00  0.00    -0.442 OA
ATOM     13  C   UNL     1      -0.708  -2.549  -1.257  0.00  0.00    +0.007 C 
ATOM     14  H   UNL     1       0.856  -4.181   4.008  0.00  0.00    +0.152 HD
ENDROOT
TORSDOF 0
