REMARK  Name = ZINC09830660
REMARK  10 active torsions:
REMARK  status: ('A' for Active; 'I' for Inactive)
REMARK    1  A    between atoms: C_1  and  N_2
REMARK    2  A    between atoms: N_2  and  C_3
REMARK    3  A    between atoms: N_2  and  C_4
REMARK    4  A    between atoms: C_7  and  C_10
REMARK    5  A    between atoms: C_10  and  N_11
REMARK    6  A    between atoms: C_12  and  C_14
REMARK    7  A    between atoms: C_14  and  N_15
REMARK    8  A    between atoms: C_19  and  S_25
REMARK    9  A    between atoms: S_25  and  N_28
REMARK   10  A    between atoms: N_28  and  C_29
REMARK                            x       y       z     vdW  Elec       q    Type
REMARK                         _______ _______ _______ _____ _____    ______ ____
ROOT
ATOM      1  N   UNL     1       1.559  -2.028  -0.023  0.00  0.00    -0.265 N 
ATOM      2  C   UNL     1       1.214  -0.677  -0.013  0.00  0.00    +0.091 A 
ATOM      3  C   UNL     1       0.002  -0.004   0.002  0.00  0.00    +0.031 A 
ATOM      4  C   UNL     1      -0.017   1.377   0.010  0.00  0.00    +0.031 A 
ATOM      5  C   UNL     1       1.170   2.089   0.002  0.00  0.00    +0.109 A 
ATOM      6  C   UNL     1       2.381   1.425  -0.014  0.00  0.00    +0.077 A 
ATOM      7  C   UNL     1       2.410   0.040  -0.021  0.00  0.00    +0.159 A 
ATOM      8  O   UNL     1       3.421  -0.864  -0.035  0.00  0.00    -0.407 OA
ATOM      9  C   UNL     1       2.904  -2.103  -0.036  0.00  0.00    +0.422 A 
ATOM     10  O   UNL     1       3.550  -3.133  -0.047  0.00  0.00    -0.223 OA
ENDROOT
BRANCH   5  11
ATOM     11  S   UNL     1       1.136   3.851   0.012  0.00  0.00    +0.059 S 
ATOM     12  O   UNL     1       2.368   4.284  -0.548  0.00  0.00    -0.153 OA
ATOM     13  O   UNL     1      -0.122   4.236  -0.525  0.00  0.00    -0.153 OA
BRANCH  11  14
ATOM     14  N   UNL     1       1.141   4.332   1.597  0.00  0.00    -0.187 NA
ATOM     15  H   UNL     1       0.374   4.797   1.965  0.00  0.00    +0.148 HD
BRANCH  14  16
ATOM     16  C   UNL     1       2.305   4.054   2.442  0.00  0.00    +0.077 C 
ATOM     17  C   UNL     1       2.056   2.785   3.283  0.00  0.00    +0.020 C 
ATOM     18  C   UNL     1       2.719   3.097   4.648  0.00  0.00    +0.002 C 
ATOM     19  C   UNL     1       2.393   4.598   4.851  0.00  0.00    +0.002 C 
ATOM     20  C   UNL     1       2.519   5.207   3.439  0.00  0.00    +0.020 C 
ENDBRANCH  14  16
ENDBRANCH  11  14
ENDBRANCH   5  11
BRANCH   1  21
ATOM     21  C   UNL     1       0.628  -3.160  -0.021  0.00  0.00    +0.224 C 
BRANCH  21  23
ATOM     22  N   UNL     1      -0.547  -4.563  -1.685  0.00  0.00    -0.310 N 
ATOM     23  C   UNL     1       0.297  -3.540  -1.441  0.00  0.00    +0.233 C 
ATOM     24  O   UNL     1       0.789  -2.927  -2.364  0.00  0.00    -0.274 OA
ATOM     25  H   UNL     1      -0.941  -5.053  -0.947  0.00  0.00    +0.149 HD
BRANCH  22  26
ATOM     26  C   UNL     1      -0.870  -4.933  -3.066  0.00  0.00    +0.139 C 
BRANCH  26  30
ATOM     27  C   UNL     1      -3.584  -8.234  -3.059  0.00  0.00    +0.029 A 
ATOM     28  C   UNL     1      -4.070  -6.933  -3.048  0.00  0.00    +0.023 A 
ATOM     29  C   UNL     1      -3.191  -5.868  -3.050  0.00  0.00    +0.007 A 
ATOM     30  C   UNL     1      -1.827  -6.097  -3.063  0.00  0.00    -0.030 A 
ATOM     31  C   UNL     1      -1.339  -7.391  -3.080  0.00  0.00    +0.007 A 
ATOM     32  C   UNL     1      -2.213  -8.460  -3.072  0.00  0.00    +0.023 A 
BRANCH  27  34
ATOM     33  C   UNL     1      -5.916  -9.073  -3.042  0.00  0.00    +0.129 C 
ATOM     34  N   UNL     1      -4.471  -9.313  -3.056  0.00  0.00    -0.336 N 
ATOM     35  C   UNL     1      -3.957 -10.684  -3.068  0.00  0.00    +0.129 C 
ENDBRANCH  27  34
ENDBRANCH  26  30
ENDBRANCH  22  26
ENDBRANCH  21  23
ENDBRANCH   1  21
TORSDOF 8
