REMARK  Name = ZINC20206710
REMARK  10 active torsions:
REMARK  status: ('A' for Active; 'I' for Inactive)
REMARK    1  A    between atoms: C_1  and  C_2
REMARK    2  A    between atoms: C_2  and  S_3
REMARK    3  A    between atoms: S_3  and  C_6
REMARK    4  A    between atoms: C_14  and  C_15
REMARK    5  A    between atoms: C_18  and  O_23
REMARK    6  A    between atoms: C_19  and  O_21
REMARK    7  A    between atoms: O_21  and  C_22
REMARK    8  A    between atoms: O_23  and  C_24
REMARK    9  A    between atoms: C_24  and  C_25
REMARK   10  A    between atoms: C_30  and  C_31
REMARK                            x       y       z     vdW  Elec       q    Type
REMARK                         _______ _______ _______ _____ _____    ______ ____
ROOT
ATOM      1  C   UNL     1      -1.117   2.228  -4.015  0.00  0.00    +0.257 C 
ATOM      2  N   UNL     1      -0.830   3.410  -4.466  0.00  0.00    -0.174 NA
ATOM      3  S   UNL     1       0.724   3.252  -5.077  0.00  0.00    +0.049 S 
ATOM      4  C   UNL     1       0.965   1.628  -4.785  0.00  0.00    +0.183 C 
ATOM      5  N   UNL     1       1.986   0.856  -5.083  0.00  0.00    -0.152 NA
ATOM      6  C   UNL     1       1.928  -0.458  -4.801  0.00  0.00    +0.273 C 
ATOM      7  O   UNL     1       2.907  -1.173  -4.944  0.00  0.00    -0.268 OA
ATOM      8  C   UNL     1       0.643  -1.018  -4.311  0.00  0.00    +0.078 C 
ATOM      9  C   UNL     1       0.317  -2.345  -4.480  0.00  0.00    +0.024 C 
ATOM     10  C   UNL     1      -0.273  -0.062  -3.624  0.00  0.00    +0.117 C 
ATOM     11  N   UNL     1      -1.073  -0.407  -2.652  0.00  0.00    -0.386 N 
ATOM     12  N   UNL     1      -0.185   1.252  -4.124  0.00  0.00    -0.203 N 
ATOM     13  H   UNL     1      -1.166  -1.342  -2.408  0.00  0.00    +0.157 HD
ATOM     14  H   UNL     1      -1.576   0.270  -2.174  0.00  0.00    +0.157 HD
ENDROOT
BRANCH   9  15
ATOM     15  C   UNL     1       1.139  -3.197  -5.342  0.00  0.00    -0.021 A 
ATOM     16  C   UNL     1       1.389  -4.529  -4.981  0.00  0.00    +0.012 A 
ATOM     17  C   UNL     1       2.162  -5.327  -5.793  0.00  0.00    +0.050 A 
ATOM     18  C   UNL     1       2.697  -4.817  -6.970  0.00  0.00    +0.162 A 
ATOM     19  C   UNL     1       2.454  -3.493  -7.336  0.00  0.00    +0.162 A 
ATOM     20  C   UNL     1       1.675  -2.686  -6.533  0.00  0.00    +0.057 A 
BRANCH  19  21
ATOM     21  O   UNL     1       2.980  -2.999  -8.489  0.00  0.00    -0.491 OA
ATOM     22  C   UNL     1       2.691  -1.635  -8.802  0.00  0.00    +0.277 C 
ENDBRANCH  19  21
BRANCH  18  23
ATOM     23  O   UNL     1       3.459  -5.610  -7.766  0.00  0.00    -0.484 OA
BRANCH  23  24
ATOM     24  C   UNL     1       3.668  -6.955  -7.332  0.00  0.00    +0.265 C 
BRANCH  24  25
ATOM     25  C   UNL     1       4.531  -7.678  -8.335  0.00  0.00    -0.007 A 
ATOM     26  C   UNL     1       4.987  -7.016  -9.459  0.00  0.00    +0.007 A 
ATOM     27  C   UNL     1       5.778  -7.678 -10.379  0.00  0.00    +0.000 A 
ATOM     28  C   UNL     1       6.113  -9.004 -10.174  0.00  0.00    +0.000 A 
ATOM     29  C   UNL     1       5.658  -9.666  -9.049  0.00  0.00    +0.004 A 
ATOM     30  C   UNL     1       4.870  -9.002  -8.127  0.00  0.00    -0.044 A 
ATOM     31  C   UNL     1       4.379  -9.722  -6.898  0.00  0.00    +0.044 C 
ENDBRANCH  24  25
ENDBRANCH  23  24
ENDBRANCH  18  23
ENDBRANCH   9  15
BRANCH   1  32
ATOM     32  S   UNL     1      -2.680   1.903  -3.270  0.00  0.00    +0.029 S 
ATOM     33  O   UNL     1      -2.933   0.532  -3.541  0.00  0.00    -0.167 OA
ATOM     34  O   UNL     1      -3.541   2.913  -3.778  0.00  0.00    -0.167 OA
BRANCH  32  36
ATOM     35  C   UNL     1      -3.671   1.749  -0.725  0.00  0.00    +0.028 C 
ATOM     36  C   UNL     1      -2.410   2.149  -1.493  0.00  0.00    +0.172 C 
ENDBRANCH  32  36
ENDBRANCH   1  32
TORSDOF 7
