REMARK  Name = ZINC09770580
REMARK  4 active torsions:
REMARK  status: ('A' for Active; 'I' for Inactive)
REMARK    1  A    between atoms: C_1  and  C_2
REMARK    2  A    between atoms: C_2  and  N_12
REMARK    3  A    between atoms: N_12  and  C_13
REMARK    4  A    between atoms: C_17  and  N_19
REMARK                            x       y       z     vdW  Elec       q    Type
REMARK                         _______ _______ _______ _____ _____    ______ ____
ROOT
ATOM      1  C   UNL     1      -0.452   1.696  -0.263  0.00  0.00    +0.061 C 
ATOM      2  C   UNL     1      -0.118   0.239  -0.072  0.00  0.00    +0.022 C 
ATOM      3  C   UNL     1       0.182  -0.242   1.189  0.00  0.00    +0.116 C 
ATOM      4  C   UNL     1       0.639  -1.628   1.395  0.00  0.00    +0.256 C 
ATOM      5  O   UNL     1       0.766  -2.390   0.456  0.00  0.00    -0.270 OA
ATOM      6  N   UNL     1       0.914  -2.028   2.654  0.00  0.00    -0.263 N 
ATOM      7  C   UNL     1       0.779  -1.198   3.698  0.00  0.00    +0.143 C 
ATOM      8  S   UNL     1       1.150  -1.793   5.260  0.00  0.00    -0.018 S 
ATOM      9  N   UNL     1       0.369   0.073   3.585  0.00  0.00    -0.263 N 
ATOM     10  C   UNL     1       0.064   0.611   2.386  0.00  0.00    +0.256 C 
ATOM     11  O   UNL     1      -0.303   1.768   2.295  0.00  0.00    -0.270 OA
ATOM     12  H   UNL     1       1.216  -2.937   2.807  0.00  0.00    +0.157 HD
ATOM     13  H   UNL     1       0.293   0.620   4.382  0.00  0.00    +0.157 HD
ENDROOT
BRANCH   2  14
ATOM     14  N   UNL     1      -0.111  -0.596  -1.132  0.00  0.00    -0.317 N 
ATOM     15  H   UNL     1      -0.707  -1.362  -1.150  0.00  0.00    +0.152 HD
BRANCH  14  16
ATOM     16  C   UNL     1       0.754  -0.359  -2.203  0.00  0.00    +0.033 A 
ATOM     17  C   UNL     1       1.731   0.624  -2.104  0.00  0.00    +0.023 A 
ATOM     18  C   UNL     1       2.585   0.855  -3.164  0.00  0.00    +0.004 A 
ATOM     19  C   UNL     1       2.468   0.110  -4.324  0.00  0.00    +0.033 A 
ATOM     20  C   UNL     1       1.497  -0.868  -4.426  0.00  0.00    +0.128 A 
ATOM     21  C   UNL     1       0.643  -1.109  -3.367  0.00  0.00    +0.056 A 
BRANCH  20  22
ATOM     22  N   UNL     1       1.375  -1.662  -5.669  0.00  0.00    +0.056 N 
ATOM     23  O   UNL     1       2.124  -1.455  -6.595  0.00  0.00    -0.126 OA
ATOM     24  O   UNL     1       0.525  -2.518  -5.759  0.00  0.00    -0.126 OA
ENDBRANCH  20  22
ENDBRANCH  14  16
ENDBRANCH   2  14
TORSDOF 3
