REMARK  Name = ZINC09018754
REMARK  9 active torsions:
REMARK  status: ('A' for Active; 'I' for Inactive)
REMARK    1  A    between atoms: C_1  and  C_2
REMARK    2  A    between atoms: C_2  and  C_3
REMARK    3  A    between atoms: C_2  and  C_4
REMARK    4  A    between atoms: C_2  and  C_5
REMARK    5  A    between atoms: C_13  and  S_16
REMARK    6  A    between atoms: S_16  and  C_17
REMARK    7  A    between atoms: C_17  and  C_18
REMARK    8  A    between atoms: N_20  and  C_21
REMARK    9  A    between atoms: C_24  and  C_27
REMARK                            x       y       z     vdW  Elec       q    Type
REMARK                         _______ _______ _______ _____ _____    ______ ____
ROOT
ATOM      1  S   UNL     1       4.832  -3.745  -0.879  0.00  0.00    -0.076 S 
ENDROOT
BRANCH   1  10
ATOM      2  C   UNL     1       5.872  -6.888  -0.370  0.00  0.00    +0.039 A 
ATOM      3  C   UNL     1       6.180  -8.179  -0.152  0.00  0.00    +0.092 A 
ATOM      4  C   UNL     1       5.149  -9.119   0.099  0.00  0.00    +0.253 A 
ATOM      5  O   UNL     1       5.424 -10.289   0.297  0.00  0.00    -0.268 OA
ATOM      6  N   UNL     1       3.864  -8.713   0.118  0.00  0.00    -0.291 N 
ATOM      7  H   UNL     1       3.155  -9.353   0.289  0.00  0.00    +0.172 HD
ATOM      8  C   UNL     1       3.557  -7.382  -0.108  0.00  0.00    +0.237 A 
ATOM      9  N   UNL     1       4.559  -6.478  -0.356  0.00  0.00    -0.260 N 
ATOM     10  C   UNL     1       3.981  -5.250  -0.536  0.00  0.00    +0.198 A 
ATOM     11  N   UNL     1       2.684  -5.391  -0.414  0.00  0.00    -0.120 NA
ATOM     12  N   UNL     1       2.415  -6.739  -0.143  0.00  0.00    -0.109 NA
BRANCH   2  14
ATOM     13  C   UNL     1       8.318  -6.608  -0.665  0.00  0.00    +0.017 C 
ATOM     14  C   UNL     1       6.968  -5.888  -0.637  0.00  0.00    +0.003 C 
ATOM     15  C   UNL     1       6.723  -5.210  -1.986  0.00  0.00    +0.017 C 
ATOM     16  C   UNL     1       6.976  -4.833   0.471  0.00  0.00    +0.017 C 
ENDBRANCH   2  14
ENDBRANCH   1  10
BRANCH   1  17
ATOM     17  C   UNL     1       3.507  -2.513  -1.010  0.00  0.00    +0.173 C 
BRANCH  17  18
ATOM     18  C   UNL     1       4.106  -1.162  -1.306  0.00  0.00    +0.227 C 
ATOM     19  O   UNL     1       5.308  -1.042  -1.417  0.00  0.00    -0.275 OA
ATOM     20  N   UNL     1       3.306  -0.086  -1.447  0.00  0.00    -0.285 N 
ATOM     21  H   UNL     1       2.353  -0.167  -1.287  0.00  0.00    +0.155 HD
BRANCH  20  22
ATOM     22  C   UNL     1       3.851   1.146  -1.825  0.00  0.00    +0.033 A 
ATOM     23  C   UNL     1       4.941   1.191  -2.684  0.00  0.00    +0.024 A 
ATOM     24  C   UNL     1       5.476   2.409  -3.055  0.00  0.00    +0.014 A 
ATOM     25  C   UNL     1       4.927   3.583  -2.572  0.00  0.00    +0.055 A 
ATOM     26  C   UNL     1       3.841   3.541  -1.717  0.00  0.00    +0.014 A 
ATOM     27  C   UNL     1       3.302   2.327  -1.342  0.00  0.00    +0.024 A 
BRANCH  25  28
ATOM     28  C   UNL     1       5.513   4.910  -2.979  0.00  0.00    +0.417 C 
ATOM     29  F   UNL     1       4.878   5.364  -4.140  0.00  0.00    -0.166 F 
ATOM     30  F   UNL     1       5.324   5.839  -1.950  0.00  0.00    -0.166 F 
ATOM     31  F   UNL     1       6.882   4.759  -3.226  0.00  0.00    -0.166 F 
ENDBRANCH  25  28
ENDBRANCH  20  22
ENDBRANCH  17  18
ENDBRANCH   1  17
TORSDOF 6
