REMARK  Name = ZINC13242083
REMARK  10 active torsions:
REMARK  status: ('A' for Active; 'I' for Inactive)
REMARK    1  A    between atoms: C_1  and  C_2
REMARK    2  A    between atoms: C_6  and  C_28
REMARK    3  A    between atoms: C_7  and  N_8
REMARK    4  A    between atoms: C_9  and  C_11
REMARK    5  A    between atoms: C_11  and  S_12
REMARK    6  A    between atoms: S_12  and  C_13
REMARK    7  A    between atoms: C_16  and  C_19
REMARK    8  A    between atoms: N_17  and  C_18
REMARK    9  A    between atoms: C_19  and  O_20
REMARK   10  A    between atoms: O_20  and  C_21
REMARK                            x       y       z     vdW  Elec       q    Type
REMARK                         _______ _______ _______ _____ _____    ______ ____
ROOT
ATOM      1  S   UNL     1       1.167   3.295   3.310  0.00  0.00    -0.077 S 
ENDROOT
BRANCH   1   2
ATOM      2  C   UNL     1      -0.521   2.969   2.922  0.00  0.00    +0.192 A 
ATOM      3  N   UNL     1      -1.379   2.309   3.665  0.00  0.00    -0.122 NA
ATOM      4  N   UNL     1      -2.520   2.261   3.076  0.00  0.00    -0.130 NA
ATOM      5  C   UNL     1      -2.461   2.887   1.935  0.00  0.00    +0.172 A 
ATOM      6  N   UNL     1      -1.183   3.355   1.793  0.00  0.00    -0.306 N 
ATOM      7  C   UNL     1      -0.641   4.118   0.666  0.00  0.00    +0.153 C 
BRANCH   5   8
ATOM      8  C   UNL     1      -3.590   3.060   0.952  0.00  0.00    +0.305 C 
BRANCH   8   9
ATOM      9  O   UNL     1      -3.593   1.966   0.032  0.00  0.00    -0.483 OA
BRANCH   9  10
ATOM     10  C   UNL     1      -4.556   1.969  -0.927  0.00  0.00    +0.139 A 
ATOM     11  C   UNL     1      -5.481   3.001  -0.980  0.00  0.00    +0.047 A 
ATOM     12  C   UNL     1      -6.455   3.005  -1.959  0.00  0.00    +0.004 A 
ATOM     13  C   UNL     1      -6.515   1.976  -2.881  0.00  0.00    +0.002 A 
ATOM     14  C   UNL     1      -5.598   0.943  -2.828  0.00  0.00    +0.023 A 
ATOM     15  C   UNL     1      -4.618   0.937  -1.853  0.00  0.00    +0.083 A 
ATOM     16 CL   UNL     1      -3.466  -0.360  -1.787  0.00  0.00    -0.080 Cl
ENDBRANCH   9  10
ENDBRANCH   8   9
ENDBRANCH   5   8
ENDBRANCH   1   2
BRANCH   1  17
ATOM     17  C   UNL     1       1.282   2.482   4.923  0.00  0.00    +0.173 C 
BRANCH  17  19
ATOM     18  N   UNL     1       3.000   2.106   6.662  0.00  0.00    -0.284 N 
ATOM     19  C   UNL     1       2.679   2.635   5.465  0.00  0.00    +0.228 C 
ATOM     20  O   UNL     1       3.516   3.236   4.824  0.00  0.00    -0.275 OA
ATOM     21  H   UNL     1       2.318   1.673   7.199  0.00  0.00    +0.155 HD
BRANCH  18  28
ATOM     22  C   UNL     1       5.074   1.106   4.995  0.00  0.00    +0.046 C 
ATOM     23  C   UNL     1       5.356   1.705   6.349  0.00  0.00    -0.028 A 
ATOM     24  C   UNL     1       6.655   1.784   6.810  0.00  0.00    +0.005 A 
ATOM     25  C   UNL     1       6.924   2.328   8.056  0.00  0.00    +0.001 A 
ATOM     26  C   UNL     1       5.899   2.801   8.846  0.00  0.00    +0.017 A 
ATOM     27  C   UNL     1       4.580   2.732   8.390  0.00  0.00    +0.085 A 
ATOM     28  C   UNL     1       4.310   2.181   7.128  0.00  0.00    +0.051 A 
BRANCH  27  29
ATOM     29  C   UNL     1       3.478   3.237   9.230  0.00  0.00    +0.388 C 
ATOM     30  O   UNL     1       2.326   3.088   8.874  0.00  0.00    -0.241 OA
ATOM     31  O   UNL     1       3.749   3.862  10.392  0.00  0.00    -0.241 OA
ENDBRANCH  27  29
ENDBRANCH  18  28
ENDBRANCH  17  19
ENDBRANCH   1  17
TORSDOF 8
