REMARK  Name = ZINC67301430
REMARK  6 active torsions:
REMARK  status: ('A' for Active; 'I' for Inactive)
REMARK    1  A    between atoms: C_1  and  C_2
REMARK    2  A    between atoms: C_2  and  N_3
REMARK    3  A    between atoms: N_6  and  C_7
REMARK    4  A    between atoms: C_11  and  N_13
REMARK    5  A    between atoms: C_14  and  C_16
REMARK    6  A    between atoms: C_18  and  C_28
REMARK                            x       y       z     vdW  Elec       q    Type
REMARK                         _______ _______ _______ _____ _____    ______ ____
ROOT
ATOM      1  N   UNL     1      -6.046  -6.051   0.692  0.00  0.00    -0.282 N 
ATOM      2  C   UNL     1      -6.171  -7.391   0.624  0.00  0.00    +0.262 C 
ATOM      3  O   UNL     1      -5.181  -8.093   0.623  0.00  0.00    -0.271 OA
ATOM      4  H   UNL     1      -6.832  -5.487   0.622  0.00  0.00    +0.155 HD
ENDROOT
BRANCH   2   5
ATOM      5  C   UNL     1      -7.539  -8.018   0.550  0.00  0.00    +0.299 C 
ATOM      6  C   UNL     1      -8.052  -7.970  -0.896  0.00  0.00    +0.220 C 
ATOM      7  O   UNL     1      -7.136  -8.697  -1.722  0.00  0.00    -0.481 OA
ATOM      8  C   UNL     1      -6.730  -9.912  -1.262  0.00  0.00    +0.163 A 
ATOM      9  C   UNL     1      -6.150 -10.813  -2.142  0.00  0.00    +0.049 A 
ATOM     10  C   UNL     1      -5.729 -12.050  -1.690  0.00  0.00    +0.004 A 
ATOM     11  C   UNL     1      -5.885 -12.391  -0.359  0.00  0.00    +0.004 A 
ATOM     12  C   UNL     1      -6.463 -11.498   0.523  0.00  0.00    +0.049 A 
ATOM     13  C   UNL     1      -6.889 -10.256   0.075  0.00  0.00    +0.163 A 
ATOM     14  O   UNL     1      -7.465  -9.390   0.954  0.00  0.00    -0.472 OA
ATOM     15  C   UNL     1      -8.132  -6.517  -1.367  0.00  0.00    +0.056 C 
ENDBRANCH   2   5
BRANCH   1  20
ATOM     16  C   UNL     1      -3.398  -3.726   1.755  0.00  0.00    +0.037 A 
ATOM     17  C   UNL     1      -2.279  -4.335   1.200  0.00  0.00    +0.023 A 
ATOM     18  C   UNL     1      -2.414  -5.508   0.481  0.00  0.00    +0.004 A 
ATOM     19  C   UNL     1      -3.662  -6.078   0.312  0.00  0.00    +0.023 A 
ATOM     20  C   UNL     1      -4.784  -5.474   0.864  0.00  0.00    +0.035 A 
ATOM     21  C   UNL     1      -4.650  -4.300   1.592  0.00  0.00    +0.046 A 
BRANCH  16  25
ATOM     22  N   UNL     1      -3.893  -1.179   4.271  0.00  0.00    -0.299 N 
ATOM     23  C   UNL     1      -4.021  -2.326   3.574  0.00  0.00    +0.304 C 
ATOM     24  O   UNL     1      -4.822  -3.167   3.931  0.00  0.00    -0.253 OA
ATOM     25  N   UNL     1      -3.260  -2.539   2.483  0.00  0.00    -0.269 N 
ATOM     26  H   UNL     1      -3.253  -0.507   3.987  0.00  0.00    +0.150 HD
ATOM     27  H   UNL     1      -2.617  -1.870   2.201  0.00  0.00    +0.156 HD
BRANCH  22  29
ATOM     28  C   UNL     1      -4.380   0.419   6.057  0.00  0.00    +0.024 C 
ATOM     29  C   UNL     1      -4.720  -0.947   5.458  0.00  0.00    +0.102 C 
ENDBRANCH  22  29
ENDBRANCH  16  25
ENDBRANCH   1  20
TORSDOF 4
