REMARK  Name = ZINC23156945
REMARK  6 active torsions:
REMARK  status: ('A' for Active; 'I' for Inactive)
REMARK    1  A    between atoms: C_1  and  C_2
REMARK    2  A    between atoms: C_8  and  C_10
REMARK    3  A    between atoms: C_10  and  C_12
REMARK    4  A    between atoms: C_10  and  N_19
REMARK    5  A    between atoms: C_21  and  C_28
REMARK    6  A    between atoms: C_24  and  C_27
REMARK                            x       y       z     vdW  Elec       q    Type
REMARK                         _______ _______ _______ _____ _____    ______ ____
ROOT
ATOM      1  C   UNL     1       1.228  -2.186  -0.022  0.00  0.00    +0.006 C 
ENDROOT
BRANCH   1   9
ATOM      2  C   UNL     1       1.540  -4.622  -7.065  0.00  0.00    +0.090 C 
ATOM      3  C   UNL     1       1.637  -4.103  -5.654  0.00  0.00    +0.150 A 
ATOM      4  N   UNL     1       2.751  -3.672  -5.066  0.00  0.00    -0.205 NA
ATOM      5  C   UNL     1       2.477  -3.295  -3.847  0.00  0.00    +0.199 A 
ATOM      6  N   UNL     1       1.150  -3.473  -3.601  0.00  0.00    -0.170 N 
ATOM      7  N   UNL     1       0.641  -4.004  -4.814  0.00  0.00    -0.147 NA
ATOM      8  C   UNL     1       0.688  -3.123  -2.355  0.00  0.00    +0.282 A 
ATOM      9  C   UNL     1       1.523  -2.628  -1.433  0.00  0.00    +0.050 A 
ATOM     10  S   UNL     1       3.076  -2.624  -2.315  0.00  0.00    -0.050 S 
ATOM     11  O   UNL     1      -0.629  -3.279  -2.056  0.00  0.00    -0.265 OA
ENDBRANCH   1   9
BRANCH   1  12
ATOM     12  N   UNL     1       2.233  -2.751   0.888  0.00  0.00    +0.388 N 
ATOM     13  C   UNL     1       2.271  -4.216   0.786  0.00  0.00    -0.074 C 
ATOM     14  C   UNL     1       3.422  -4.758   1.636  0.00  0.00    -0.031 C 
ATOM     15  C   UNL     1       3.218  -4.334   3.093  0.00  0.00    +0.003 C 
ATOM     16  C   UNL     1       3.133  -2.807   3.166  0.00  0.00    -0.031 C 
ATOM     17  C   UNL     1       1.990  -2.322   2.271  0.00  0.00    -0.074 C 
ATOM     18  C   UNL     1       4.452  -2.199   2.684  0.00  0.00    +0.005 C 
ATOM     19  C   UNL     1       3.448  -6.285   1.546  0.00  0.00    +0.005 C 
ATOM     20  H   UNL     1       3.219  -2.368   0.586  0.00  0.00    -0.080 HD
ENDBRANCH   1  12
BRANCH   1  21
ATOM     21  C   UNL     1       1.273  -0.681   0.052  0.00  0.00    -0.056 A 
ATOM     22  C   UNL     1       0.099   0.040   0.162  0.00  0.00    +0.004 A 
ATOM     23  C   UNL     1       0.139   1.420   0.229  0.00  0.00    +0.020 A 
ATOM     24  C   UNL     1       1.355   2.079   0.188  0.00  0.00    +0.041 A 
ATOM     25  C   UNL     1       2.530   1.356   0.078  0.00  0.00    +0.020 A 
ATOM     26  C   UNL     1       2.488  -0.024   0.010  0.00  0.00    +0.004 A 
ATOM     27 CL   UNL     1       1.406   3.812   0.272  0.00  0.00    -0.084 Cl
ENDBRANCH   1  21
TORSDOF 3
