REMARK  Name = ZINC59271750
REMARK  7 active torsions:
REMARK  status: ('A' for Active; 'I' for Inactive)
REMARK    1  A    between atoms: C_1  and  N_2
REMARK    2  A    between atoms: C_12  and  S_15
REMARK    3  A    between atoms: S_15  and  C_16
REMARK    4  A    between atoms: C_16  and  C_17
REMARK    5  A    between atoms: C_22  and  C_25
REMARK    6  A    between atoms: C_28  and  O_31
REMARK    7  A    between atoms: O_31  and  C_32
REMARK                            x       y       z     vdW  Elec       q    Type
REMARK                         _______ _______ _______ _____ _____    ______ ____
ROOT
ATOM      1  C   UNL     1       0.113  -2.645   7.305  0.00  0.00    +0.229 C 
ATOM      2  O   UNL     1       0.103  -1.536   7.795  0.00  0.00    -0.275 OA
ATOM      3  N   UNL     1       0.136  -3.733   8.100  0.00  0.00    -0.264 N 
ATOM      4  C   UNL     1       0.148  -3.584   9.481  0.00  0.00    +0.165 A 
ATOM      5  N   UNL     1       0.176  -4.511  10.421  0.00  0.00    -0.225 NA
ATOM      6  C   UNL     1       0.184  -4.188  11.705  0.00  0.00    +0.080 A 
ATOM      7  C   UNL     1       0.164  -2.869  12.065  0.00  0.00    +0.076 A 
ATOM      8  S   UNL     1       0.138  -2.087  10.458  0.00  0.00    -0.060 S 
ATOM      9  H   UNL     1       0.144  -4.620   7.707  0.00  0.00    +0.157 HD
ENDROOT
BRANCH   6  10
ATOM     10  C   UNL     1       0.215  -5.247  12.743  0.00  0.00    +0.001 A 
ATOM     11  C   UNL     1       0.218  -4.901  14.094  0.00  0.00    +0.013 A 
ATOM     12  C   UNL     1       0.246  -5.888  15.057  0.00  0.00    +0.046 A 
ATOM     13  C   UNL     1       0.272  -7.225  14.682  0.00  0.00    +0.120 A 
ATOM     14  C   UNL     1       0.269  -7.572  13.338  0.00  0.00    +0.046 A 
ATOM     15  C   UNL     1       0.236  -6.590  12.371  0.00  0.00    +0.013 A 
BRANCH  13  16
ATOM     16  O   UNL     1       0.300  -8.195  15.634  0.00  0.00    -0.495 OA
ATOM     17  C   UNL     1       0.326  -9.549  15.178  0.00  0.00    +0.277 C 
ENDBRANCH  13  16
ENDBRANCH   6  10
BRANCH   1  18
ATOM     18  C   UNL     1       0.100  -2.806   5.807  0.00  0.00    +0.173 C 
BRANCH  18  19
ATOM     19  S   UNL     1       0.069  -1.171   5.022  0.00  0.00    -0.075 S 
BRANCH  19  31
ATOM     20  C   UNL     1      -0.018   1.461   0.010  0.00  0.00    +0.151 C 
ATOM     21  N   UNL     1       0.002  -0.004   0.002  0.00  0.00    -0.327 N 
ATOM     22  C   UNL     1       0.007  -0.788  -1.140  0.00  0.00    +0.053 A 
ATOM     23  C   UNL     1      -0.003  -0.470  -2.494  0.00  0.00    +0.026 A 
ATOM     24  C   UNL     1       0.007  -1.474  -3.439  0.00  0.00    +0.002 A 
ATOM     25  C   UNL     1       0.027  -2.805  -3.054  0.00  0.00    +0.001 A 
ATOM     26  C   UNL     1       0.037  -3.141  -1.717  0.00  0.00    +0.012 A 
ATOM     27  C   UNL     1       0.028  -2.137  -0.752  0.00  0.00    +0.029 A 
ATOM     28  C   UNL     1       0.035  -2.145   0.721  0.00  0.00    +0.138 A 
ATOM     29  C   UNL     1       0.024  -0.793   1.125  0.00  0.00    +0.165 A 
ATOM     30  N   UNL     1       0.034  -0.524   2.427  0.00  0.00    -0.201 NA
ATOM     31  C   UNL     1       0.056  -1.526   3.297  0.00  0.00    +0.212 A 
ATOM     32  N   UNL     1       0.070  -2.791   2.892  0.00  0.00    -0.122 NA
ATOM     33  N   UNL     1       0.052  -3.099   1.640  0.00  0.00    -0.143 NA
ENDBRANCH  19  31
ENDBRANCH  18  19
ENDBRANCH   1  18
TORSDOF 5
