REMARK  Name = ZINC00820863
REMARK  12 active torsions:
REMARK  status: ('A' for Active; 'I' for Inactive)
REMARK    1  A    between atoms: N_10  and  C_13
REMARK    2  A    between atoms: C_13  and  C_14
REMARK    3  A    between atoms: C_14  and  C_16
REMARK    4  A    between atoms: C_14  and  O_42
REMARK    5  A    between atoms: C_16  and  O_17
REMARK    6  A    between atoms: O_17  and  C_18
REMARK    7  A    between atoms: C_21  and  O_24
REMARK    8  A    between atoms: O_24  and  C_25
REMARK    9  A    between atoms: C_25  and  C_26
REMARK   10  A    between atoms: C_26  and  C_28
REMARK   11  A    between atoms: C_26  and  O_41
REMARK   12  A    between atoms: C_28  and  N_29
REMARK                            x       y       z     vdW  Elec       q    Type
REMARK                         _______ _______ _______ _____ _____    ______ ____
ROOT
ATOM      1  C   UNL     1      -1.046 -10.089   2.629  0.00  0.00    +0.121 A 
ATOM      2  C   UNL     1      -0.308 -10.226   3.796  0.00  0.00    +0.049 A 
ATOM      3  C   UNL     1      -0.478 -11.340   4.594  0.00  0.00    +0.049 A 
ATOM      4  C   UNL     1      -1.388 -12.321   4.231  0.00  0.00    +0.121 A 
ATOM      5  C   UNL     1      -2.127 -12.184   3.065  0.00  0.00    +0.049 A 
ATOM      6  C   UNL     1      -1.960 -11.068   2.268  0.00  0.00    +0.049 A 
ENDROOT
BRANCH   1   7
ATOM      7  O   UNL     1      -0.878  -8.992   1.843  0.00  0.00    -0.489 OA
BRANCH   7   8
ATOM      8  C   UNL     1       0.080  -8.024   2.276  0.00  0.00    +0.261 C 
BRANCH   8   9
ATOM      9  C   UNL     1       0.130  -6.871   1.271  0.00  0.00    +0.166 C 
BRANCH   9  10
ATOM     10  O   UNL     1      -1.125  -6.187   1.270  0.00  0.00    -0.387 OA
ATOM     11  H   UNL     1      -1.368  -5.809   2.126  0.00  0.00    +0.210 HD
ENDBRANCH   9  10
BRANCH   9  12
ATOM     12  C   UNL     1       1.241  -5.897   1.667  0.00  0.00    +0.119 C 
BRANCH  12  22
ATOM     13  C   UNL     1       4.903  -1.995  -3.604  0.00  0.00    +0.005 A 
ATOM     14  C   UNL     1       5.306  -0.781  -3.062  0.00  0.00    +0.018 A 
ATOM     15  C   UNL     1       4.737  -0.344  -1.884  0.00  0.00    +0.084 A 
ATOM     16  N   UNL     1       3.817  -1.064  -1.269  0.00  0.00    -0.350 N 
ATOM     17  C   UNL     1       3.406  -2.225  -1.754  0.00  0.00    +0.099 A 
ATOM     18  C   UNL     1       3.937  -2.726  -2.938  0.00  0.00    +0.042 A 
ATOM     19  N   UNL     1       2.435  -2.951  -1.073  0.00  0.00    -0.314 N 
ATOM     20  C   UNL     1       1.900  -4.203  -1.629  0.00  0.00    +0.122 C 
ATOM     21  C   UNL     1       1.990  -5.291  -0.554  0.00  0.00    +0.103 C 
ATOM     22  N   UNL     1       1.328  -4.822   0.670  0.00  0.00    -0.297 NA
ATOM     23  C   UNL     1       2.006  -3.643   1.225  0.00  0.00    +0.103 C 
ATOM     24  C   UNL     1       1.921  -2.490   0.226  0.00  0.00    +0.122 C 
ATOM     25  H   UNL     1       3.432  -0.733  -0.442  0.00  0.00    +0.166 HD
ENDBRANCH  12  22
ENDBRANCH   9  12
ENDBRANCH   8   9
ENDBRANCH   7   8
ENDBRANCH   1   7
BRANCH   4  26
ATOM     26  O   UNL     1      -1.556 -13.418   5.016  0.00  0.00    -0.489 OA
BRANCH  26  27
ATOM     27  C   UNL     1      -2.510 -14.389   4.581  0.00  0.00    +0.261 C 
BRANCH  27  28
ATOM     28  C   UNL     1      -2.559 -15.542   5.585  0.00  0.00    +0.166 C 
BRANCH  28  29
ATOM     29  O   UNL     1      -3.053 -15.062   6.837  0.00  0.00    -0.387 OA
ATOM     30  H   UNL     1      -3.942 -14.686   6.791  0.00  0.00    +0.210 HD
ENDBRANCH  28  29
BRANCH  28  31
ATOM     31  C   UNL     1      -3.486 -16.639   5.058  0.00  0.00    +0.119 C 
BRANCH  31  32
ATOM     32  N   UNL     1      -3.534 -17.746   6.022  0.00  0.00    -0.297 NA
ATOM     33  C   UNL     1      -2.226 -18.406   6.130  0.00  0.00    +0.103 C 
ATOM     34  C   UNL     1      -2.267 -19.430   7.269  0.00  0.00    +0.122 C 
ATOM     35  N   UNL     1      -3.404 -20.335   7.043  0.00  0.00    -0.314 N 
ATOM     36  C   UNL     1      -4.726 -19.742   6.790  0.00  0.00    +0.122 C 
ATOM     37  C   UNL     1      -4.588 -18.706   5.669  0.00  0.00    +0.103 C 
ATOM     38  C   UNL     1      -3.233 -21.715   7.068  0.00  0.00    +0.099 A 
ATOM     39  C   UNL     1      -1.959 -22.249   7.231  0.00  0.00    +0.042 A 
ATOM     40  C   UNL     1      -1.804 -23.623   7.254  0.00  0.00    +0.005 A 
ATOM     41  C   UNL     1      -2.933 -24.420   7.112  0.00  0.00    +0.018 A 
ATOM     42  C   UNL     1      -4.167 -23.822   6.954  0.00  0.00    +0.084 A 
ATOM     43  N   UNL     1      -4.285 -22.508   6.941  0.00  0.00    -0.350 N 
ATOM     44  H   UNL     1      -5.165 -22.114   6.832  0.00  0.00    +0.166 HD
ENDBRANCH  31  32
ENDBRANCH  28  31
ENDBRANCH  27  28
ENDBRANCH  26  27
ENDBRANCH   4  26
TORSDOF 12
