REMARK  Name = ZINC22815773
REMARK  4 active torsions:
REMARK  status: ('A' for Active; 'I' for Inactive)
REMARK    1  A    between atoms: C_1  and  C_2
REMARK    2  A    between atoms: C_2  and  N_3
REMARK    3  A    between atoms: C_6  and  C_9
REMARK    4  A    between atoms: C_24  and  C_26
REMARK                            x       y       z     vdW  Elec       q    Type
REMARK                         _______ _______ _______ _____ _____    ______ ____
ROOT
ATOM      1  C   UNL     1      -5.247  -1.595  -2.789  0.00  0.00    +0.228 C 
ATOM      2  N   UNL     1      -5.523  -1.714  -4.232  0.00  0.00    -0.292 N 
ATOM      3  C   UNL     1      -5.130  -2.837  -4.910  0.00  0.00    +0.183 C 
ATOM      4  N   UNL     1      -5.057  -4.013  -4.310  0.00  0.00    -0.184 NA
ATOM      5  C   UNL     1      -5.320  -4.078  -2.984  0.00  0.00    +0.214 A 
ATOM      6  N   UNL     1      -5.429  -2.932  -2.210  0.00  0.00    -0.285 N 
ATOM      7  C   UNL     1      -5.710  -3.321  -0.935  0.00  0.00    +0.070 A 
ATOM      8  C   UNL     1      -5.941  -2.617   0.241  0.00  0.00    +0.028 A 
ATOM      9  C   UNL     1      -6.202  -3.359   1.382  0.00  0.00    +0.002 A 
ATOM     10  C   UNL     1      -6.235  -4.743   1.366  0.00  0.00    +0.002 A 
ATOM     11  C   UNL     1      -6.009  -5.468   0.209  0.00  0.00    +0.028 A 
ATOM     12  C   UNL     1      -5.744  -4.739  -0.956  0.00  0.00    +0.066 A 
ATOM     13  N   UNL     1      -5.489  -5.134  -2.225  0.00  0.00    -0.324 N 
ATOM     14  N   UNL     1      -4.808  -2.740  -6.237  0.00  0.00    -0.331 N 
ATOM     15  H   UNL     1      -5.982  -0.999  -4.700  0.00  0.00    +0.151 HD
ATOM     16  H   UNL     1      -4.859  -1.883  -6.687  0.00  0.00    +0.145 HD
ATOM     17  H   UNL     1      -4.529  -3.530  -6.727  0.00  0.00    +0.145 HD
ATOM     18  H   UNL     1      -5.441  -6.054  -2.527  0.00  0.00    +0.169 HD
ENDROOT
BRANCH   1  22
ATOM     19  N   UNL     1      -1.366  -0.524   0.012  0.00  0.00    -0.251 N 
ATOM     20  C   UNL     1      -2.068  -0.652  -1.182  0.00  0.00    +0.167 A 
ATOM     21  N   UNL     1      -3.305  -1.061  -1.363  0.00  0.00    -0.226 NA
ATOM     22  C   UNL     1      -3.831  -1.127  -2.572  0.00  0.00    +0.091 A 
ATOM     23  C   UNL     1      -3.041  -0.756  -3.609  0.00  0.00    +0.075 A 
ATOM     24  S   UNL     1      -1.543  -0.315  -2.745  0.00  0.00    -0.060 S 
ATOM     25  C   UNL     1      -1.958  -0.846   1.179  0.00  0.00    +0.218 C 
ATOM     26  O   UNL     1      -3.067  -1.338   1.181  0.00  0.00    -0.276 OA
ATOM     27  C   UNL     1      -1.243  -0.594   2.481  0.00  0.00    +0.110 C 
BRANCH  19  29
ATOM     28  C   UNL     1       0.021   1.489   0.043  0.00  0.00    +0.025 C 
ATOM     29  C   UNL     1       0.016  -0.040   0.001  0.00  0.00    +0.112 C 
ENDBRANCH  19  29
ENDBRANCH   1  22
TORSDOF 2
