REMARK  Name = ZINC38555963
REMARK  4 active torsions:
REMARK  status: ('A' for Active; 'I' for Inactive)
REMARK    1  A    between atoms: C_1  and  C_2
REMARK    2  A    between atoms: C_5  and  N_8
REMARK    3  A    between atoms: C_9  and  O_33
REMARK    4  A    between atoms: C_11  and  C_18
REMARK                            x       y       z     vdW  Elec       q    Type
REMARK                         _______ _______ _______ _____ _____    ______ ____
ROOT
ATOM      1  N   UNL     1      -0.124  -4.021   0.155  0.00  0.00    -0.228 N 
ATOM      2  C   UNL     1      -0.039  -4.794   1.396  0.00  0.00    +0.225 C 
ATOM      3  C   UNL     1      -0.658  -6.177   1.180  0.00  0.00    +0.145 C 
ATOM      4  C   UNL     1      -0.135  -6.758  -0.109  0.00  0.00    +0.229 C 
ATOM      5  O   UNL     1       0.048  -7.953  -0.206  0.00  0.00    -0.275 OA
ATOM      6  N   UNL     1       0.128  -5.950  -1.153  0.00  0.00    -0.239 N 
ATOM      7  C   UNL     1       0.012  -4.617  -1.040  0.00  0.00    +0.315 C 
ATOM      8  O   UNL     1       0.035  -3.934  -2.045  0.00  0.00    -0.252 OA
ATOM      9  H   UNL     1       0.403  -6.337  -1.999  0.00  0.00    +0.159 HD
ENDROOT
BRANCH   3  10
ATOM     10  C   UNL     1      -0.280  -7.093   2.346  0.00  0.00    +0.117 C 
ATOM     11  C   UNL     1      -0.752  -6.483   3.644  0.00  0.00    +0.038 A 
ATOM     12  H   UNL     1      -2.677  -5.795   3.243  0.00  0.00    +0.166 HD
ATOM     13  C   UNL     1       0.008  -6.452   4.763  0.00  0.00    -0.016 A 
ATOM     14  C   UNL     1      -0.769  -5.796   5.790  0.00  0.00    +0.003 A 
ATOM     15  C   UNL     1      -0.507  -5.484   7.127  0.00  0.00    +0.010 A 
ATOM     16  C   UNL     1      -1.501  -4.841   7.822  0.00  0.00    +0.001 A 
ATOM     17  C   UNL     1      -2.713  -4.511   7.237  0.00  0.00    +0.002 A 
ATOM     18  C   UNL     1      -3.000  -4.808   5.916  0.00  0.00    +0.026 A 
ATOM     19  C   UNL     1      -2.009  -5.461   5.186  0.00  0.00    +0.047 A 
ATOM     20  N   UNL     1      -1.961  -5.892   3.891  0.00  0.00    -0.356 N 
ATOM     21  C   UNL     1       1.402  -7.024   4.838  0.00  0.00    +0.052 C 
ATOM     22  C   UNL     1       1.602  -7.944   3.626  0.00  0.00    +0.086 C 
ATOM     23  N   UNL     1       1.183  -7.246   2.401  0.00  0.00    -0.307 NA
ATOM     24  H   UNL     1       1.529  -7.714   1.577  0.00  0.00    +0.123 HD
ENDBRANCH   3  10
BRANCH   1  29
ATOM     25  C   UNL     1      -1.067   1.568   0.403  0.00  0.00    +0.044 C 
ATOM     26  C   UNL     1      -0.816   0.083   0.337  0.00  0.00    -0.050 A 
ATOM     27  C   UNL     1      -1.883  -0.794   0.283  0.00  0.00    +0.005 A 
ATOM     28  C   UNL     1      -1.657  -2.156   0.222  0.00  0.00    +0.024 A 
ATOM     29  C   UNL     1      -0.357  -2.642   0.216  0.00  0.00    +0.040 A 
ATOM     30  C   UNL     1       0.713  -1.758   0.271  0.00  0.00    +0.024 A 
ATOM     31  C   UNL     1       0.480  -0.398   0.325  0.00  0.00    +0.005 A 
ENDBRANCH   1  29
BRANCH   2  32
ATOM     32  O   UNL     1       1.332  -4.939   1.773  0.00  0.00    -0.373 OA
ATOM     33  H   UNL     1       1.788  -4.101   1.927  0.00  0.00    +0.212 HD
ENDBRANCH   2  32
TORSDOF 3
