REMARK  Name = ZINC39425150
REMARK  14 active torsions:
REMARK  status: ('A' for Active; 'I' for Inactive)
REMARK    1  A    between atoms: C_1  and  C_2
REMARK    2  A    between atoms: C_2  and  C_3
REMARK    3  A    between atoms: C_8  and  C_12
REMARK    4  A    between atoms: C_12  and  C_14
REMARK    5  A    between atoms: C_14  and  S_15
REMARK    6  A    between atoms: S_15  and  C_16
REMARK    7  A    between atoms: C_19  and  C_29
REMARK    8  A    between atoms: N_21  and  C_22
REMARK    9  A    between atoms: C_22  and  C_23
REMARK   10  A    between atoms: C_29  and  C_31
REMARK   11  A    between atoms: C_29  and  N_33
REMARK   12  A    between atoms: C_31  and  C_32
REMARK   13  A    between atoms: N_33  and  C_34
REMARK   14  A    between atoms: N_33  and  C_35
REMARK                            x       y       z     vdW  Elec       q    Type
REMARK                         _______ _______ _______ _____ _____    ______ ____
ROOT
ATOM      1  C   UNL     1      -8.415  -2.479  -5.815  0.00  0.00    +0.176 C 
ATOM      2  N   UNL     1      -7.391  -2.179  -6.540  0.00  0.00    -0.163 NA
ATOM      3  N   UNL     1      -7.713  -2.168  -7.903  0.00  0.00    -0.248 N 
ATOM      4  C   UNL     1      -9.142  -2.515  -7.990  0.00  0.00    +0.164 C 
ATOM      5  N   UNL     1      -9.544  -2.712  -6.587  0.00  0.00    -0.286 N 
ATOM      6  H   UNL     1      -7.115  -1.972  -8.641  0.00  0.00    +0.170 HD
ENDROOT
BRANCH   1   7
ATOM      7  S   UNL     1      -8.382  -2.587  -4.057  0.00  0.00    -0.081 S 
BRANCH   7   8
ATOM      8  C   UNL     1      -6.668  -2.184  -3.624  0.00  0.00    +0.156 C 
BRANCH   8   9
ATOM      9  C   UNL     1      -6.500  -2.241  -2.128  0.00  0.00    +0.172 C 
ATOM     10  O   UNL     1      -7.446  -2.526  -1.422  0.00  0.00    -0.291 OA
BRANCH   9  16
ATOM     11  C   UNL     1      -2.935  -1.573   1.306  0.00  0.00    -0.024 A 
ATOM     12  C   UNL     1      -3.742  -1.846   2.354  0.00  0.00    +0.005 A 
ATOM     13  C   UNL     1      -5.096  -2.175   2.183  0.00  0.00    +0.001 A 
ATOM     14  C   UNL     1      -5.679  -2.240   0.965  0.00  0.00    +0.010 A 
ATOM     15  C   UNL     1      -4.925  -1.972  -0.202  0.00  0.00    +0.006 A 
ATOM     16  C   UNL     1      -5.245  -1.964  -1.547  0.00  0.00    +0.024 C 
ATOM     17  C   UNL     1      -3.965  -1.595  -2.266  0.00  0.00    +0.152 C 
ATOM     18  N   UNL     1      -2.952  -1.409  -1.223  0.00  0.00    -0.380 N 
ATOM     19  C   UNL     1      -3.492  -1.616  -0.056  0.00  0.00    +0.046 A 
ATOM     20  H   UNL     1      -2.026  -1.166  -1.377  0.00  0.00    +0.160 HD
BRANCH  11  22
ATOM     21  C   UNL     1      -1.330   0.297   1.580  0.00  0.00    +0.009 C 
ATOM     22  C   UNL     1      -1.486  -1.224   1.529  0.00  0.00    +0.034 C 
ENDBRANCH  11  22
ENDBRANCH   9  16
ENDBRANCH   8   9
ENDBRANCH   7   8
ENDBRANCH   1   7
BRANCH   5  23
ATOM     23  C   UNL     1     -10.876  -3.080  -6.101  0.00  0.00    +0.144 C 
BRANCH  23  24
ATOM     24  C   UNL     1     -10.950  -4.574  -5.921  0.00  0.00    -0.030 A 
ATOM     25  C   UNL     1     -11.253  -5.386  -6.998  0.00  0.00    +0.005 A 
ATOM     26  C   UNL     1     -11.321  -6.757  -6.832  0.00  0.00    +0.000 A 
ATOM     27  C   UNL     1     -11.086  -7.316  -5.590  0.00  0.00    +0.000 A 
ATOM     28  C   UNL     1     -10.783  -6.503  -4.513  0.00  0.00    +0.000 A 
ATOM     29  C   UNL     1     -10.710  -5.133  -4.680  0.00  0.00    +0.005 A 
ENDBRANCH  23  24
ENDBRANCH   5  23
BRANCH   4  30
ATOM     30  C   UNL     1      -9.934  -1.371  -8.628  0.00  0.00    -0.029 C 
BRANCH  30  31
ATOM     31  N   UNL     1      -9.529  -1.219 -10.032  0.00  0.00    +0.380 N 
ATOM     32  C   UNL     1      -9.890  -2.431 -10.780  0.00  0.00    -0.096 C 
ATOM     33  C   UNL     1     -10.216  -0.060 -10.616  0.00  0.00    -0.096 C 
ATOM     34  H   UNL     1      -8.531  -1.079 -10.081  0.00  0.00    -0.082 HD
ENDBRANCH  30  31
BRANCH  30  35
ATOM     35  C   UNL     1      -9.651  -0.072  -7.872  0.00  0.00    -0.015 C 
ATOM     36  C   UNL     1     -10.274  -0.148  -6.476  0.00  0.00    +0.002 C 
ENDBRANCH  30  35
ENDBRANCH   4  30
TORSDOF 10
