REMARK  Name = ZINC04419272
REMARK  4 active torsions:
REMARK  status: ('A' for Active; 'I' for Inactive)
REMARK    1  A    between atoms: C_3  and  N_18
REMARK    2  A    between atoms: C_5  and  S_7
REMARK    3  A    between atoms: S_7  and  N_10
REMARK    4  A    between atoms: N_10  and  C_11
REMARK                            x       y       z     vdW  Elec       q    Type
REMARK                         _______ _______ _______ _____ _____    ______ ____
ROOT
ATOM      1  S   UNL     1       2.670   4.067  -0.001  0.00  0.00    +0.059 S 
ATOM      2  O   UNL     1       2.387   5.342   0.559  0.00  0.00    -0.153 OA
ATOM      3  O   UNL     1       3.661   3.202   0.536  0.00  0.00    -0.153 OA
ENDROOT
BRANCH   1   8
ATOM      4  C   UNL     1      -0.013   1.076   0.008  0.00  0.00    +0.004 A 
ATOM      5  C   UNL     1      -1.219   1.751   0.017  0.00  0.00    +0.033 A 
ATOM      6  C   UNL     1      -1.238   3.133   0.029  0.00  0.00    +0.128 A 
ATOM      7  C   UNL     1      -0.050   3.840   0.022  0.00  0.00    +0.061 A 
ATOM      8  C   UNL     1       1.156   3.166   0.008  0.00  0.00    +0.107 A 
ATOM      9  C   UNL     1       1.175   1.783   0.000  0.00  0.00    +0.028 A 
BRANCH   6  10
ATOM     10  N   UNL     1      -2.530   3.855   0.044  0.00  0.00    +0.056 N 
ATOM     11  O   UNL     1      -2.546   5.073   0.050  0.00  0.00    -0.126 OA
ATOM     12  O   UNL     1      -3.576   3.232   0.050  0.00  0.00    -0.126 OA
ENDBRANCH   6  10
ENDBRANCH   1   8
BRANCH   1  13
ATOM     13  N   UNL     1       3.076   4.326  -1.585  0.00  0.00    -0.179 NA
ATOM     14  H   UNL     1       3.877   3.921  -1.953  0.00  0.00    +0.149 HD
BRANCH  13  15
ATOM     15  C   UNL     1       2.226   5.168  -2.431  0.00  0.00    +0.154 C 
ATOM     16  C   UNL     1       2.144   4.546  -3.825  0.00  0.00    +0.040 C 
ATOM     17  C   UNL     1       1.773   5.652  -4.840  0.00  0.00    +0.079 C 
ATOM     18  S   UNL     1       2.540   7.130  -4.076  0.00  0.00    -0.086 S 
ATOM     19  C   UNL     1       2.794   6.569  -2.458  0.00  0.00    +0.208 C 
ATOM     20  O   UNL     1       3.316   7.170  -1.543  0.00  0.00    -0.283 OA
ENDBRANCH  13  15
ENDBRANCH   1  13
TORSDOF 4
