REMARK  Name = ZINC55122265
REMARK  7 active torsions:
REMARK  status: ('A' for Active; 'I' for Inactive)
REMARK    1  A    between atoms: C_1  and  C_2
REMARK    2  A    between atoms: C_7  and  C_12
REMARK    3  A    between atoms: C_9  and  N_11
REMARK    4  A    between atoms: N_14  and  C_15
REMARK    5  A    between atoms: C_15  and  C_16
REMARK    6  A    between atoms: C_16  and  C_17
REMARK    7  A    between atoms: C_16  and  C_18
REMARK                            x       y       z     vdW  Elec       q    Type
REMARK                         _______ _______ _______ _____ _____    ______ ____
ROOT
ATOM      1  C   UNL     1      -0.019   1.526   0.010  0.00  0.00    +0.006 C 
ATOM      2  C   UNL     1       0.002  -0.004   0.002  0.00  0.00    -0.028 C 
ATOM      3  C   UNL     1       0.718  -0.497  -1.257  0.00  0.00    +0.002 C 
ATOM      4  C   UNL     1       0.739  -2.027  -1.265  0.00  0.00    +0.001 C 
ATOM      5  C   UNL     1       1.479  -2.534  -0.026  0.00  0.00    +0.011 C 
ATOM      6  C   UNL     1       0.763  -2.041   1.233  0.00  0.00    +0.061 C 
ATOM      7  C   UNL     1       0.742  -0.511   1.242  0.00  0.00    -0.060 C 
ENDROOT
BRANCH   7   8
ATOM      8  N   UNL     1       0.054  -0.037   2.450  0.00  0.00    +0.381 N 
ATOM      9  H   UNL     1      -0.892  -0.386   2.457  0.00  0.00    -0.090 HD
ATOM     10  H   UNL     1       0.542  -0.371   3.268  0.00  0.00    -0.090 HD
ATOM     11  H   UNL     1       0.041   0.972   2.456  0.00  0.00    -0.090 HD
ENDBRANCH   7   8
BRANCH   6  12
ATOM     12  C   UNL     1      -0.651  -2.562   1.244  0.00  0.00    +0.215 C 
ATOM     13  O   UNL     1      -1.583  -1.787   1.257  0.00  0.00    -0.276 OA
ATOM     14  N   UNL     1      -0.879  -3.891   1.239  0.00  0.00    -0.315 N 
ATOM     15  H   UNL     1      -0.134  -4.511   1.228  0.00  0.00    +0.149 HD
BRANCH  14  16
ATOM     16  C   UNL     1      -2.254  -4.398   1.249  0.00  0.00    +0.107 C 
BRANCH  16  17
ATOM     17  C   UNL     1      -2.233  -5.928   1.241  0.00  0.00    -0.000 C 
ATOM     18  C   UNL     1      -1.604  -6.436   2.540  0.00  0.00    +0.009 C 
ATOM     19  C   UNL     1      -3.664  -6.456   1.126  0.00  0.00    +0.009 C 
ENDBRANCH  16  17
ENDBRANCH  14  16
ENDBRANCH   6  12
TORSDOF 4
