REMARK  Name = ZINC29033539
REMARK  11 active torsions:
REMARK  status: ('A' for Active; 'I' for Inactive)
REMARK    1  A    between atoms: C_1  and  C_2
REMARK    2  A    between atoms: C_4  and  C_33
REMARK    3  A    between atoms: C_8  and  N_32
REMARK    4  A    between atoms: C_9  and  C_11
REMARK    5  A    between atoms: C_11  and  O_13
REMARK    6  A    between atoms: O_13  and  C_14
REMARK    7  A    between atoms: C_14  and  C_15
REMARK    8  A    between atoms: N_20  and  C_21
REMARK    9  A    between atoms: C_26  and  O_27
REMARK   10  A    between atoms: O_27  and  C_28
REMARK   11  A    between atoms: C_29  and  C_31
REMARK                            x       y       z     vdW  Elec       q    Type
REMARK                         _______ _______ _______ _____ _____    ______ ____
ROOT
ATOM      1  O   UNL     1       2.372   7.102   0.388  0.00  0.00    -0.454 OA
ENDROOT
BRANCH   1   2
ATOM      2  C   UNL     1       1.098   6.734   0.644  0.00  0.00    +0.348 C 
ATOM      3  O   UNL     1       0.223   7.577   0.709  0.00  0.00    -0.244 OA
BRANCH   2  12
ATOM      4  C   UNL     1      -3.020   3.197   1.714  0.00  0.00    +0.044 C 
ATOM      5  C   UNL     1      -1.663   2.564   1.544  0.00  0.00    -0.037 A 
ATOM      6  C   UNL     1      -1.510   1.202   1.650  0.00  0.00    +0.025 A 
ATOM      7  C   UNL     1      -0.259   0.622   1.499  0.00  0.00    +0.014 A 
ATOM      8  N   UNL     1       0.797   1.369   1.242  0.00  0.00    -0.353 N 
ATOM      9  C   UNL     1       0.701   2.676   1.125  0.00  0.00    +0.088 A 
ATOM     10  C   UNL     1      -0.526   3.363   1.266  0.00  0.00    +0.030 A 
ATOM     11  C   UNL     1      -0.448   4.807   1.106  0.00  0.00    +0.055 A 
ATOM     12  C   UNL     1       0.782   5.369   0.838  0.00  0.00    +0.119 A 
ATOM     13  S   UNL     1       1.877   3.964   0.792  0.00  0.00    -0.062 S 
ATOM     14  C   UNL     1      -0.107  -0.872   1.624  0.00  0.00    +0.063 C 
ATOM     15  H   UNL     1       1.785   0.901   1.119  0.00  0.00    +0.166 HD
BRANCH  11  16
ATOM     16  N   UNL     1      -1.582   5.598   1.222  0.00  0.00    -0.356 N 
ATOM     17  H   UNL     1      -1.506   6.688   1.098  0.00  0.00    +0.142 HD
ATOM     18  H   UNL     1      -2.556   5.134   1.437  0.00  0.00    +0.142 HD
ENDBRANCH  11  16
ENDBRANCH   2  12
ENDBRANCH   1   2
BRANCH   1  19
ATOM     19  C   UNL     1       2.619   8.498   0.203  0.00  0.00    +0.288 C 
BRANCH  19  20
ATOM     20  C   UNL     1       4.085   8.716  -0.071  0.00  0.00    +0.088 A 
ATOM     21  C   UNL     1       4.947   7.670  -0.108  0.00  0.00    +0.075 A 
ATOM     22  S   UNL     1       6.480   8.516  -0.463  0.00  0.00    -0.060 S 
ATOM     23  C   UNL     1       5.840  10.129  -0.516  0.00  0.00    +0.172 A 
ATOM     24  N   UNL     1       4.559   9.928  -0.276  0.00  0.00    -0.226 NA
ATOM     25  N   UNL     1       6.508  11.327  -0.752  0.00  0.00    -0.215 N 
ATOM     26  C   UNL     1       5.827  12.490  -0.752  0.00  0.00    +0.223 C 
ATOM     27  O   UNL     1       4.631  12.492  -0.547  0.00  0.00    -0.275 OA
ATOM     28  C   UNL     1       6.550  13.787  -1.008  0.00  0.00    +0.110 C 
BRANCH  25  29
ATOM     29  C   UNL     1       7.890  11.324  -0.989  0.00  0.00    +0.085 A 
ATOM     30  C   UNL     1       8.373  11.204  -2.284  0.00  0.00    +0.027 A 
ATOM     31  C   UNL     1       9.736  11.202  -2.516  0.00  0.00    +0.002 A 
ATOM     32  C   UNL     1      10.620  11.319  -1.459  0.00  0.00    +0.004 A 
ATOM     33  C   UNL     1      10.146  11.440  -0.166  0.00  0.00    +0.047 A 
ATOM     34  C   UNL     1       8.782  11.448   0.074  0.00  0.00    +0.142 A 
BRANCH  34  35
ATOM     35  O   UNL     1       8.314  11.571   1.345  0.00  0.00    -0.493 OA
ATOM     36  C   UNL     1       9.286  11.694   2.385  0.00  0.00    +0.277 C 
ENDBRANCH  34  35
ENDBRANCH  25  29
ENDBRANCH  19  20
ENDBRANCH   1  19
TORSDOF 7
