REMARK  Name = ZINC38564817
REMARK  6 active torsions:
REMARK  status: ('A' for Active; 'I' for Inactive)
REMARK    1  A    between atoms: C_1  and  C_2
REMARK    2  A    between atoms: C_2  and  N_3
REMARK    3  A    between atoms: C_4  and  O_30
REMARK    4  A    between atoms: C_6  and  C_15
REMARK    5  A    between atoms: N_10  and  C_13
REMARK    6  A    between atoms: C_13  and  C_14
REMARK                            x       y       z     vdW  Elec       q    Type
REMARK                         _______ _______ _______ _____ _____    ______ ____
ROOT
ATOM      1  C   UNL     1       0.102  -0.872  -4.913  0.00  0.00    +0.117 C 
ATOM      2  C   UNL     1      -1.294  -0.313  -5.046  0.00  0.00    +0.038 A 
ATOM      3  H   UNL     1      -1.107   1.709  -4.578  0.00  0.00    +0.166 HD
ATOM      4  C   UNL     1      -2.360  -1.067  -5.401  0.00  0.00    -0.016 A 
ATOM      5  C   UNL     1      -3.513  -0.196  -5.421  0.00  0.00    +0.003 A 
ATOM      6  C   UNL     1      -4.863  -0.412  -5.712  0.00  0.00    +0.010 A 
ATOM      7  C   UNL     1      -5.699   0.674  -5.628  0.00  0.00    +0.001 A 
ATOM      8  C   UNL     1      -5.239   1.931  -5.273  0.00  0.00    +0.002 A 
ATOM      9  C   UNL     1      -3.907   2.175  -4.981  0.00  0.00    +0.026 A 
ATOM     10  C   UNL     1      -3.036   1.091  -5.058  0.00  0.00    +0.047 A 
ATOM     11  N   UNL     1      -1.692   0.980  -4.840  0.00  0.00    -0.356 N 
ATOM     12  C   UNL     1      -2.270  -2.541  -5.707  0.00  0.00    +0.052 C 
ATOM     13  C   UNL     1      -0.792  -2.890  -5.929  0.00  0.00    +0.086 C 
ATOM     14  N   UNL     1       0.016  -2.339  -4.831  0.00  0.00    -0.307 NA
ATOM     15  H   UNL     1       0.935  -2.755  -4.810  0.00  0.00    +0.123 HD
ENDROOT
BRANCH   1  18
ATOM     16  N   UNL     1       0.664  -0.450  -1.203  0.00  0.00    -0.259 N 
ATOM     17  C   UNL     1      -0.100  -0.686  -2.429  0.00  0.00    +0.220 C 
ATOM     18  C   UNL     1       0.757  -0.324  -3.644  0.00  0.00    +0.145 C 
ATOM     19  C   UNL     1       2.128  -0.929  -3.481  0.00  0.00    +0.232 C 
ATOM     20  O   UNL     1       2.737  -1.322  -4.453  0.00  0.00    -0.275 OA
ATOM     21  N   UNL     1       2.677  -1.032  -2.256  0.00  0.00    -0.226 N 
ATOM     22  C   UNL     1       1.987  -0.679  -1.159  0.00  0.00    +0.313 C 
ATOM     23  O   UNL     1       2.574  -0.568  -0.101  0.00  0.00    -0.252 OA
BRANCH  16  25
ATOM     24  C   UNL     1      -0.013   1.578  -0.015  0.00  0.00    +0.024 C 
ATOM     25  C   UNL     1      -0.022   0.048  -0.008  0.00  0.00    +0.108 C 
ENDBRANCH  16  25
BRANCH  21  26
ATOM     26  C   UNL     1       4.047  -1.530  -2.119  0.00  0.00    +0.114 C 
ATOM     27  C   UNL     1       5.026  -0.356  -2.183  0.00  0.00    +0.025 C 
ENDBRANCH  21  26
BRANCH  17  28
ATOM     28  O   UNL     1      -0.470  -2.065  -2.501  0.00  0.00    -0.373 OA
ATOM     29  H   UNL     1      -1.016  -2.365  -1.762  0.00  0.00    +0.212 HD
ENDBRANCH  17  28
ENDBRANCH   1  18
TORSDOF 4
