REMARK  Name = ZINC04410155
REMARK  25 active torsions:
REMARK  status: ('A' for Active; 'I' for Inactive)
REMARK    1  A    between atoms: C_1  and  C_2
REMARK    2  A    between atoms: C_2  and  C_4
REMARK    3  A    between atoms: C_2  and  C_24
REMARK    4  A    between atoms: C_4  and  C_5
REMARK    5  A    between atoms: C_5  and  C_7
REMARK    6  A    between atoms: C_5  and  N_79
REMARK    7  A    between atoms: C_7  and  C_8
REMARK    8  A    between atoms: C_8  and  C_9
REMARK    9  A    between atoms: C_9  and  C_11
REMARK   10  A    between atoms: C_9  and  N_77
REMARK   11  A    between atoms: C_11  and  C_12
REMARK   12  A    between atoms: C_12  and  C_14
REMARK   13  A    between atoms: C_12  and  C_15
REMARK   14  A    between atoms: C_15  and  C_16
REMARK   15  A    between atoms: C_16  and  C_17
REMARK   16  A    between atoms: C_16  and  C_18
REMARK   17  A    between atoms: C_16  and  C_19
REMARK   18  A    between atoms: C_20  and  N_77
REMARK   19  A    between atoms: C_21  and  N_77
REMARK   20  A    between atoms: C_22  and  N_79
REMARK   21  A    between atoms: C_23  and  N_79
REMARK   22  A    between atoms: C_24  and  C_25
REMARK   23  A    between atoms: C_25  and  C_26
REMARK   24  A    between atoms: C_25  and  C_27
REMARK   25  A    between atoms: C_25  and  C_28
REMARK                            x       y       z     vdW  Elec       q    Type
REMARK                         _______ _______ _______ _____ _____    ______ ____
ROOT
ATOM      1  C   UNL     1      -5.161   2.841   0.767  0.00  0.00    -0.017 C 
ENDROOT
BRANCH   1   2
ATOM      2  C   UNL     1      -5.568   3.753  -0.391  0.00  0.00    -0.069 C 
BRANCH   2   5
ATOM      3  C   UNL     1      -4.403   2.187  -1.824  0.00  0.00    -0.096 C 
ATOM      4  C   UNL     1      -6.817   2.103  -1.647  0.00  0.00    -0.096 C 
ATOM      5  N   UNL     1      -5.633   2.988  -1.654  0.00  0.00    +0.378 N 
ATOM      6  H   UNL     1      -5.714   3.646  -2.439  0.00  0.00    -0.082 HD
ENDBRANCH   2   5
BRANCH   2   7
ATOM      7  C   UNL     1      -4.535   4.872  -0.546  0.00  0.00    -0.012 C 
BRANCH   7   9
ATOM      8  C   UNL     1      -6.286   6.548  -1.154  0.00  0.00    +0.007 C 
ATOM      9  C   UNL     1      -5.005   5.854  -1.621  0.00  0.00    -0.015 C 
BRANCH   9  10
ATOM     10  C   UNL     1      -3.917   6.902  -1.865  0.00  0.00    +0.009 C 
BRANCH  10  11
ATOM     11  C   UNL     1      -2.890   6.351  -2.856  0.00  0.00    -0.037 C 
ATOM     12  C   UNL     1      -3.541   6.198  -4.232  0.00  0.00    +0.010 C 
ATOM     13  C   UNL     1      -1.708   7.316  -2.956  0.00  0.00    +0.010 C 
ATOM     14  C   UNL     1      -2.396   4.986  -2.372  0.00  0.00    +0.010 C 
ENDBRANCH  10  11
ENDBRANCH   9  10
ENDBRANCH   7   9
ENDBRANCH   2   7
ENDBRANCH   1   2
BRANCH   1  15
ATOM     15  C   UNL     1      -5.224   3.624   2.080  0.00  0.00    -0.017 C 
BRANCH  15  16
ATOM     16  C   UNL     1      -4.736   2.737   3.228  0.00  0.00    -0.069 C 
BRANCH  16  19
ATOM     17  C   UNL     1      -4.272   4.792   4.422  0.00  0.00    -0.096 C 
ATOM     18  C   UNL     1      -6.295   3.547   4.894  0.00  0.00    -0.096 C 
ATOM     19  N   UNL     1      -4.869   3.443   4.520  0.00  0.00    +0.378 N 
ATOM     20  H   UNL     1      -4.372   2.910   5.243  0.00  0.00    -0.082 HD
ENDBRANCH  16  19
BRANCH  16  21
ATOM     21  C   UNL     1      -3.264   2.384   3.008  0.00  0.00    -0.012 C 
BRANCH  21  22
ATOM     22  C   UNL     1      -2.810   1.398   4.086  0.00  0.00    -0.015 C 
ATOM     23  C   UNL     1      -3.571   0.080   3.925  0.00  0.00    +0.007 C 
BRANCH  22  24
ATOM     24  C   UNL     1      -1.308   1.141   3.943  0.00  0.00    +0.009 C 
BRANCH  24  25
ATOM     25  C   UNL     1      -0.750   0.625   5.270  0.00  0.00    -0.037 C 
ATOM     26  C   UNL     1      -1.460  -0.676   5.651  0.00  0.00    +0.010 C 
ATOM     27  C   UNL     1       0.750   0.364   5.125  0.00  0.00    +0.010 C 
ATOM     28  C   UNL     1      -0.982   1.671   6.362  0.00  0.00    +0.010 C 
ENDBRANCH  24  25
ENDBRANCH  22  24
ENDBRANCH  21  22
ENDBRANCH  16  21
ENDBRANCH  15  16
ENDBRANCH   1  15
TORSDOF 13
