REMARK  Name = ZINC12864078
REMARK  11 active torsions:
REMARK  status: ('A' for Active; 'I' for Inactive)
REMARK    1  A    between atoms: C_1  and  C_2
REMARK    2  A    between atoms: C_18  and  C_20
REMARK    3  A    between atoms: C_20  and  N_73
REMARK    4  A    between atoms: C_21  and  C_22
REMARK    5  A    between atoms: C_21  and  N_73
REMARK    6  A    between atoms: C_25  and  O_30
REMARK    7  A    between atoms: C_26  and  O_28
REMARK    8  A    between atoms: O_28  and  C_29
REMARK    9  A    between atoms: O_30  and  C_31
REMARK   10  A    between atoms: C_32  and  C_33
REMARK   11  A    between atoms: C_32  and  N_73
REMARK                            x       y       z     vdW  Elec       q    Type
REMARK                         _______ _______ _______ _____ _____    ______ ____
ROOT
ATOM      1  N   UNL     1       2.199  -2.074  -1.565  0.00  0.00    +0.388 N 
ATOM      2  H   UNL     1       2.674  -1.494  -2.268  0.00  0.00    -0.081 HD
ENDROOT
BRANCH   1   3
ATOM      3  C   UNL     1       2.913  -3.362  -1.444  0.00  0.00    -0.063 C 
BRANCH   3  18
ATOM      4  C   UNL     1       5.758  -5.563  -4.325  0.00  0.00    +0.011 C 
ATOM      5  C   UNL     1       6.356  -6.243  -3.092  0.00  0.00    -0.023 C 
ATOM      6  C   UNL     1       7.180  -7.456  -3.522  0.00  0.00    +0.007 C 
ATOM      7  C   UNL     1       6.299  -8.432  -4.304  0.00  0.00    +0.003 C 
ATOM      8  C   UNL     1       5.183  -8.954  -3.394  0.00  0.00    +0.037 C 
ATOM      9  C   UNL     1       4.397  -7.764  -2.838  0.00  0.00    +0.096 C 
ATOM     10  C   UNL     1       5.241  -6.697  -2.139  0.00  0.00    +0.030 C 
ATOM     11  C   UNL     1       4.374  -5.485  -1.807  0.00  0.00    +0.014 C 
ATOM     12  C   UNL     1       5.191  -4.418  -1.074  0.00  0.00    +0.042 C 
ATOM     13  C   UNL     1       6.460  -4.054  -1.868  0.00  0.00    +0.181 C 
ATOM     14  C   UNL     1       7.245  -5.253  -2.339  0.00  0.00    +0.052 C 
ATOM     15  O   UNL     1       5.957  -3.229  -2.957  0.00  0.00    -0.461 OA
ATOM     16  C   UNL     1       5.009  -2.419  -2.437  0.00  0.00    +0.309 C 
ATOM     17  O   UNL     1       4.695  -1.337  -2.875  0.00  0.00    -0.251 OA
ATOM     18  C   UNL     1       4.400  -3.083  -1.216  0.00  0.00    +0.088 C 
ATOM     19  C   UNL     1       2.986  -8.020  -2.313  0.00  0.00    +0.196 C 
ATOM     20  O   UNL     1       3.234  -7.341  -3.546  0.00  0.00    -0.368 OA
ENDBRANCH   3  18
ENDBRANCH   1   3
BRANCH   1  21
ATOM     21  C   UNL     1       0.805  -2.307  -1.998  0.00  0.00    -0.042 C 
BRANCH  21  22
ATOM     22  C   UNL     1       0.809  -2.696  -3.454  0.00  0.00    -0.060 A 
ATOM     23  C   UNL     1       0.800  -4.032  -3.811  0.00  0.00    +0.005 A 
ATOM     24  C   UNL     1       0.802  -4.394  -5.145  0.00  0.00    +0.049 A 
ATOM     25  C   UNL     1       0.814  -3.417  -6.128  0.00  0.00    +0.161 A 
ATOM     26  C   UNL     1       0.823  -2.073  -5.768  0.00  0.00    +0.162 A 
ATOM     27  C   UNL     1       0.815  -1.717  -4.429  0.00  0.00    +0.051 A 
BRANCH  26  28
ATOM     28  O   UNL     1       0.834  -1.111  -6.729  0.00  0.00    -0.491 OA
ATOM     29  C   UNL     1       0.930   0.245  -6.288  0.00  0.00    +0.277 C 
ENDBRANCH  26  28
BRANCH  25  30
ATOM     30  O   UNL     1       0.816  -3.772  -7.441  0.00  0.00    -0.491 OA
ATOM     31  C   UNL     1       0.805  -5.170  -7.735  0.00  0.00    +0.277 C 
ENDBRANCH  25  30
ENDBRANCH  21  22
ENDBRANCH   1  21
BRANCH   1  32
ATOM     32  C   UNL     1       2.213  -1.364  -0.269  0.00  0.00    -0.003 C 
BRANCH  32  33
ATOM     33  C   UNL     1       1.820   0.072  -0.499  0.00  0.00    +0.089 A 
ATOM     34  C   UNL     1       0.582   0.581  -0.361  0.00  0.00    +0.042 A 
ATOM     35  C   UNL     1       0.668   1.957  -0.673  0.00  0.00    +0.041 A 
ATOM     36  C   UNL     1       1.953   2.208  -0.982  0.00  0.00    +0.195 A 
ATOM     37  O   UNL     1       2.646   1.062  -0.875  0.00  0.00    -0.470 OA
ENDBRANCH  32  33
ENDBRANCH   1  32
TORSDOF 8
