REMARK  Name = ZINC13494398
REMARK  12 active torsions:
REMARK  status: ('A' for Active; 'I' for Inactive)
REMARK    1  A    between atoms: C_1  and  O_2
REMARK    2  A    between atoms: O_2  and  C_3
REMARK    3  A    between atoms: C_7  and  N_9
REMARK    4  A    between atoms: N_9  and  C_10
REMARK    5  A    between atoms: C_10  and  C_12
REMARK    6  A    between atoms: C_10  and  C_22
REMARK    7  A    between atoms: C_15  and  O_20
REMARK    8  A    between atoms: C_16  and  O_18
REMARK    9  A    between atoms: O_18  and  C_19
REMARK   10  A    between atoms: O_20  and  C_21
REMARK   11  A    between atoms: N_24  and  C_25
REMARK   12  A    between atoms: C_31  and  C_33
REMARK                            x       y       z     vdW  Elec       q    Type
REMARK                         _______ _______ _______ _____ _____    ______ ____
ROOT
ATOM      1  C   UNL     1      -1.607   2.335  -0.240  0.00  0.00    +0.198 C 
ENDROOT
BRANCH   1   2
ATOM      2  C   UNL     1      -0.383   1.520  -0.570  0.00  0.00    -0.014 A 
ATOM      3  C   UNL     1       0.803   1.755   0.100  0.00  0.00    +0.010 A 
ATOM      4  C   UNL     1       1.930   1.014  -0.203  0.00  0.00    +0.050 A 
ATOM      5  C   UNL     1       1.872   0.033  -1.180  0.00  0.00    +0.162 A 
ATOM      6  C   UNL     1       0.678  -0.204  -1.854  0.00  0.00    +0.162 A 
ATOM      7  C   UNL     1      -0.448   0.543  -1.546  0.00  0.00    +0.055 A 
BRANCH   6   8
ATOM      8  O   UNL     1       0.616  -1.166  -2.813  0.00  0.00    -0.491 OA
ATOM      9  C   UNL     1      -0.643  -1.354  -3.463  0.00  0.00    +0.277 C 
ENDBRANCH   6   8
BRANCH   5  10
ATOM     10  O   UNL     1       2.980  -0.697  -1.480  0.00  0.00    -0.491 OA
ATOM     11  C   UNL     1       4.171  -0.399  -0.748  0.00  0.00    +0.277 C 
ENDBRANCH   5  10
ENDBRANCH   1   2
BRANCH   1  12
ATOM     12  C   UNL     1      -1.996   3.164  -1.437  0.00  0.00    +0.239 C 
ATOM     13  O   UNL     1      -2.027   4.374  -1.353  0.00  0.00    -0.273 OA
ATOM     14  N   UNL     1      -2.310   2.561  -2.601  0.00  0.00    -0.311 N 
ATOM     15  H   UNL     1      -2.286   1.594  -2.668  0.00  0.00    +0.149 HD
BRANCH  14  16
ATOM     16  C   UNL     1      -2.689   3.367  -3.764  0.00  0.00    +0.073 C 
ATOM     17  C   UNL     1      -4.183   3.690  -3.697  0.00  0.00    +0.022 C 
ATOM     18  C   UNL     1      -4.578   4.532  -4.912  0.00  0.00    +0.002 C 
ATOM     19  C   UNL     1      -4.282   3.748  -6.193  0.00  0.00    +0.000 C 
ATOM     20  C   UNL     1      -2.788   3.426  -6.260  0.00  0.00    +0.002 C 
ATOM     21  C   UNL     1      -2.393   2.584  -5.045  0.00  0.00    +0.022 C 
ENDBRANCH  14  16
ENDBRANCH   1  12
BRANCH   1  22
ATOM     22  N   UNL     1      -1.315   3.218   0.891  0.00  0.00    -0.250 N 
ATOM     23  C   UNL     1      -1.883   2.986   2.092  0.00  0.00    +0.272 C 
ATOM     24  O   UNL     1      -1.570   3.661   3.053  0.00  0.00    -0.268 OA
BRANCH  22  29
ATOM     25  C   UNL     1       0.567   6.304   1.580  0.00  0.00    +0.122 A 
ATOM     26  C   UNL     1       1.273   6.448   0.394  0.00  0.00    +0.046 A 
ATOM     27  C   UNL     1       1.119   5.523  -0.621  0.00  0.00    +0.005 A 
ATOM     28  C   UNL     1       0.266   4.449  -0.456  0.00  0.00    +0.024 A 
ATOM     29  C   UNL     1      -0.448   4.303   0.727  0.00  0.00    +0.041 A 
ATOM     30  C   UNL     1      -0.294   5.231   1.747  0.00  0.00    +0.069 A 
BRANCH  25  32
ATOM     31  C   UNL     1       1.623   8.296   2.336  0.00  0.00    +0.277 C 
ATOM     32  O   UNL     1       0.720   7.215   2.577  0.00  0.00    -0.495 OA
ENDBRANCH  25  32
ENDBRANCH  22  29
BRANCH  23  33
ATOM     33  C   UNL     1      -2.884   1.910   2.239  0.00  0.00    +0.155 A 
ATOM     34  C   UNL     1      -3.628   1.713   3.399  0.00  0.00    +0.155 A 
ATOM     35  N   UNL     1      -4.464   0.710   3.327  0.00  0.00    -0.198 NA
ATOM     36  S   UNL     1      -4.267   0.103   1.891  0.00  0.00    +0.116 S 
ATOM     37  N   UNL     1      -3.158   1.038   1.284  0.00  0.00    -0.186 NA
ENDBRANCH  23  33
ENDBRANCH   1  22
TORSDOF 9
