REMARK  Name = ZINC54616550
REMARK  8 active torsions:
REMARK  status: ('A' for Active; 'I' for Inactive)
REMARK    1  A    between atoms: C_1  and  C_2
REMARK    2  A    between atoms: C_6  and  N_9
REMARK    3  A    between atoms: C_7  and  C_8
REMARK    4  A    between atoms: C_10  and  C_12
REMARK    5  A    between atoms: C_13  and  C_30
REMARK    6  A    between atoms: C_20  and  C_22
REMARK    7  A    between atoms: C_27  and  O_28
REMARK    8  A    between atoms: O_28  and  C_29
REMARK                            x       y       z     vdW  Elec       q    Type
REMARK                         _______ _______ _______ _____ _____    ______ ____
ROOT
ATOM      1  C   UNL     1      -0.232  -4.774   3.423  0.00  0.00    +0.060 C 
ATOM      2  C   UNL     1      -0.517  -6.064   3.193  0.00  0.00    +0.018 C 
ATOM      3  N   UNL     1      -0.631  -6.981   4.209  0.00  0.00    -0.287 N 
ATOM      4  C   UNL     1      -0.187  -6.598   5.468  0.00  0.00    +0.218 A 
ATOM      5  N   UNL     1       0.027  -7.313   6.538  0.00  0.00    -0.201 NA
ATOM      6  C   UNL     1       0.459  -6.521   7.525  0.00  0.00    +0.247 A 
ATOM      7  N   UNL     1       0.523  -5.287   7.090  0.00  0.00    -0.156 NA
ATOM      8  N   UNL     1       0.106  -5.307   5.760  0.00  0.00    -0.221 N 
ATOM      9  C   UNL     1      -0.018  -4.213   4.803  0.00  0.00    +0.181 C 
ATOM     10  C   UNL     1      -0.720  -6.524   1.772  0.00  0.00    +0.061 C 
ATOM     11  H   UNL     1      -1.008  -7.862   4.054  0.00  0.00    +0.155 HD
ENDROOT
BRANCH   9  12
ATOM     12  C   UNL     1      -1.194  -3.351   5.182  0.00  0.00    +0.023 A 
ATOM     13  C   UNL     1      -2.447  -3.916   5.330  0.00  0.00    +0.009 A 
ATOM     14  C   UNL     1      -3.526  -3.125   5.677  0.00  0.00    +0.001 A 
ATOM     15  C   UNL     1      -3.356  -1.767   5.878  0.00  0.00    +0.004 A 
ATOM     16  C   UNL     1      -2.106  -1.198   5.732  0.00  0.00    +0.046 A 
ATOM     17  C   UNL     1      -1.020  -1.990   5.389  0.00  0.00    +0.126 A 
BRANCH  17  18
ATOM     18  O   UNL     1       0.212  -1.433   5.250  0.00  0.00    -0.495 OA
ATOM     19  C   UNL     1       0.325  -0.034   5.517  0.00  0.00    +0.277 C 
ENDBRANCH  17  18
ENDBRANCH   9  12
BRANCH   1  21
ATOM     20  N   UNL     1      -1.224  -3.333   1.791  0.00  0.00    -0.281 N 
ATOM     21  C   UNL     1      -0.120  -3.901   2.315  0.00  0.00    +0.248 C 
ATOM     22  O   UNL     1       0.974  -3.663   1.835  0.00  0.00    -0.270 OA
ATOM     23  H   UNL     1      -2.081  -3.439   2.233  0.00  0.00    +0.155 HD
BRANCH  20  29
ATOM     24  C   UNL     1      -3.314  -1.696  -2.347  0.00  0.00    +0.044 C 
ATOM     25  C   UNL     1      -2.132  -1.780  -1.415  0.00  0.00    -0.046 A 
ATOM     26  C   UNL     1      -0.957  -1.122  -1.729  0.00  0.00    +0.004 A 
ATOM     27  C   UNL     1       0.130  -1.196  -0.877  0.00  0.00    +0.002 A 
ATOM     28  C   UNL     1       0.044  -1.929   0.291  0.00  0.00    +0.023 A 
ATOM     29  C   UNL     1      -1.135  -2.590   0.609  0.00  0.00    +0.037 A 
ATOM     30  C   UNL     1      -2.226  -2.509  -0.246  0.00  0.00    -0.026 A 
ATOM     31  C   UNL     1      -3.509  -3.221   0.098  0.00  0.00    +0.046 C 
ENDBRANCH  20  29
ENDBRANCH   1  21
TORSDOF 4
