REMARK  Name = ZINC63406256
REMARK  8 active torsions:
REMARK  status: ('A' for Active; 'I' for Inactive)
REMARK    1  A    between atoms: C_1  and  C_2
REMARK    2  A    between atoms: C_2  and  C_3
REMARK    3  A    between atoms: C_2  and  C_4
REMARK    4  A    between atoms: C_2  and  N_19
REMARK    5  A    between atoms: C_4  and  N_5
REMARK    6  A    between atoms: N_8  and  C_9
REMARK    7  A    between atoms: C_12  and  C_15
REMARK    8  A    between atoms: N_17  and  C_18
REMARK                            x       y       z     vdW  Elec       q    Type
REMARK                         _______ _______ _______ _____ _____    ______ ____
ROOT
ATOM      1  N   UNL     1      -1.928  -1.502   0.115  0.00  0.00    -0.301 N 
ATOM      2  C   UNL     1      -3.235  -1.826   0.182  0.00  0.00    +0.300 C 
ATOM      3  O   UNL     1      -4.077  -0.950   0.213  0.00  0.00    -0.253 OA
ATOM      4  N   UNL     1      -3.607  -3.121   0.216  0.00  0.00    -0.297 N 
ATOM      5  H   UNL     1      -1.256  -2.201   0.090  0.00  0.00    +0.150 HD
ATOM      6  H   UNL     1      -2.934  -3.820   0.191  0.00  0.00    +0.151 HD
ENDROOT
BRANCH   4   7
ATOM      7  C   UNL     1      -5.027  -3.473   0.290  0.00  0.00    +0.074 C 
ATOM      8  C   UNL     1      -5.481  -3.457   1.751  0.00  0.00    +0.023 C 
ATOM      9  C   UNL     1      -4.662  -4.471   2.551  0.00  0.00    +0.014 C 
ATOM     10  C   UNL     1      -4.871  -5.870   1.967  0.00  0.00    +0.075 C 
ATOM     11  C   UNL     1      -4.417  -5.886   0.506  0.00  0.00    +0.014 C 
ATOM     12  C   UNL     1      -5.236  -4.872  -0.294  0.00  0.00    +0.023 C 
BRANCH  10  13
ATOM     13  C   UNL     1      -4.064  -6.869   2.756  0.00  0.00    +0.216 C 
ATOM     14  O   UNL     1      -3.388  -6.499   3.692  0.00  0.00    -0.276 OA
ATOM     15  N   UNL     1      -4.094  -8.174   2.420  0.00  0.00    -0.318 N 
ATOM     16  C   UNL     1      -3.309  -9.146   3.186  0.00  0.00    +0.128 C 
ATOM     17  H   UNL     1      -4.635  -8.470   1.671  0.00  0.00    +0.148 HD
ENDBRANCH  10  13
ENDBRANCH   4   7
BRANCH   1  18
ATOM     18  C   UNL     1      -1.523  -0.094   0.078  0.00  0.00    +0.093 C 
BRANCH  18  20
ATOM     19  C   UNL     1       0.425   1.466  -0.036  0.00  0.00    -0.008 C 
ATOM     20  C   UNL     1       0.002  -0.004   0.002  0.00  0.00    -0.055 C 
ATOM     21  C   UNL     1       0.615  -0.679   1.231  0.00  0.00    -0.008 C 
BRANCH  20  22
ATOM     22  N   UNL     1       0.473  -0.681  -1.214  0.00  0.00    +0.387 N 
ATOM     23  C   UNL     1       1.927  -0.503  -1.345  0.00  0.00    -0.073 C 
ATOM     24  C   UNL     1       2.439  -1.456  -2.426  0.00  0.00    +0.017 C 
ATOM     25  C   UNL     1       1.615  -1.297  -3.678  0.00  0.00    -0.048 A 
ATOM     26  C   UNL     1       2.113  -1.800  -4.870  0.00  0.00    +0.004 A 
ATOM     27  C   UNL     1       1.385  -1.676  -6.036  0.00  0.00    +0.000 A 
ATOM     28  C   UNL     1       0.153  -1.047  -6.014  0.00  0.00    +0.000 A 
ATOM     29  C   UNL     1      -0.342  -0.545  -4.828  0.00  0.00    +0.002 A 
ATOM     30  C   UNL     1       0.389  -0.667  -3.656  0.00  0.00    -0.061 A 
ATOM     31  C   UNL     1      -0.186  -0.097  -2.386  0.00  0.00    -0.042 C 
ATOM     32  H   UNL     1       0.255  -1.664  -1.159  0.00  0.00    -0.080 HD
ENDBRANCH  20  22
ENDBRANCH  18  20
ENDBRANCH   1  18
TORSDOF 5
