REMARK  Name = ZINC59136476
REMARK  9 active torsions:
REMARK  status: ('A' for Active; 'I' for Inactive)
REMARK    1  A    between atoms: C_1  and  C_2
REMARK    2  A    between atoms: C_4  and  C_17
REMARK    3  A    between atoms: C_5  and  C_16
REMARK    4  A    between atoms: N_6  and  C_7
REMARK    5  A    between atoms: C_11  and  N_13
REMARK    6  A    between atoms: N_18  and  N_19
REMARK    7  A    between atoms: C_20  and  C_22
REMARK    8  A    between atoms: C_22  and  C_23
REMARK    9  A    between atoms: C_27  and  C_29
REMARK                            x       y       z     vdW  Elec       q    Type
REMARK                         _______ _______ _______ _____ _____    ______ ____
ROOT
ATOM      1  C   UNL     1       0.041  -3.384  -1.463  0.00  0.00    +0.140 C 
ATOM      2  N   UNL     1       0.059  -4.556  -0.904  0.00  0.00    -0.188 NA
ENDROOT
BRANCH   1   6
ATOM      3  C   UNL     1      -0.018   1.503   0.010  0.00  0.00    +0.064 C 
ATOM      4  C   UNL     1       0.002  -0.004   0.002  0.00  0.00    +0.022 A 
ATOM      5  C   UNL     1       0.008  -0.781  -1.097  0.00  0.00    +0.032 A 
ATOM      6  C   UNL     1       0.029  -2.170  -0.628  0.00  0.00    +0.016 A 
ATOM      7  C   UNL     1       0.034  -2.113   0.736  0.00  0.00    +0.030 A 
ATOM      8  N   UNL     1       0.024  -0.804   1.109  0.00  0.00    -0.317 N 
ATOM      9  C   UNL     1       0.054  -3.296   1.669  0.00  0.00    +0.064 C 
BRANCH   8  10
ATOM     10  C   UNL     1       0.030  -0.345   2.433  0.00  0.00    +0.049 A 
ATOM     11  C   UNL     1       1.133  -0.577   3.244  0.00  0.00    +0.026 A 
ATOM     12  C   UNL     1       1.137  -0.123   4.548  0.00  0.00    +0.004 A 
ATOM     13  C   UNL     1       0.044   0.561   5.047  0.00  0.00    +0.033 A 
ATOM     14  C   UNL     1      -1.056   0.793   4.242  0.00  0.00    +0.128 A 
ATOM     15  C   UNL     1      -1.063   0.348   2.934  0.00  0.00    +0.058 A 
BRANCH  14  16
ATOM     16  N   UNL     1      -2.224   1.526   4.780  0.00  0.00    +0.056 N 
ATOM     17  O   UNL     1      -2.216   1.921   5.922  0.00  0.00    -0.126 OA
ATOM     18  O   UNL     1      -3.186   1.729   4.076  0.00  0.00    -0.126 OA
ENDBRANCH  14  16
ENDBRANCH   8  10
ENDBRANCH   1   6
BRANCH   2  19
ATOM     19  N   UNL     1       0.071  -5.710  -1.697  0.00  0.00    -0.207 N 
ATOM     20  C   UNL     1       0.089  -6.927  -1.117  0.00  0.00    +0.237 C 
ATOM     21  O   UNL     1       0.096  -7.022   0.093  0.00  0.00    -0.274 OA
ATOM     22  H   UNL     1       0.066  -5.635  -2.664  0.00  0.00    +0.177 HD
BRANCH  20  23
ATOM     23  C   UNL     1       0.102  -8.169  -1.970  0.00  0.00    +0.132 C 
BRANCH  23  24
ATOM     24  C   UNL     1       0.122  -9.387  -1.083  0.00  0.00    -0.038 A 
ATOM     25  C   UNL     1       1.328  -9.927  -0.677  0.00  0.00    +0.004 A 
ATOM     26  C   UNL     1       1.346 -11.044   0.136  0.00  0.00    +0.001 A 
ATOM     27  C   UNL     1       0.158 -11.622   0.543  0.00  0.00    +0.012 A 
ATOM     28  C   UNL     1      -1.048 -11.082   0.138  0.00  0.00    +0.055 A 
ATOM     29  C   UNL     1      -1.066  -9.962  -0.672  0.00  0.00    +0.016 A 
BRANCH  28  30
ATOM     30  C   UNL     1      -2.343 -11.712   0.582  0.00  0.00    +0.417 C 
ATOM     31  F   UNL     1      -2.069 -12.821   1.391  0.00  0.00    -0.166 F 
ATOM     32  F   UNL     1      -3.091 -10.779   1.308  0.00  0.00    -0.166 F 
ATOM     33  F   UNL     1      -3.071 -12.121  -0.540  0.00  0.00    -0.166 F 
ENDBRANCH  28  30
ENDBRANCH  23  24
ENDBRANCH  20  23
ENDBRANCH   2  19
TORSDOF 7
