REMARK  Name = ZINC07115047
REMARK  4 active torsions:
REMARK  status: ('A' for Active; 'I' for Inactive)
REMARK    1  A    between atoms: C_1  and  C_2
REMARK    2  A    between atoms: N_10  and  N_14
REMARK    3  A    between atoms: C_15  and  C_17
REMARK    4  A    between atoms: C_17  and  N_18
REMARK                            x       y       z     vdW  Elec       q    Type
REMARK                         _______ _______ _______ _____ _____    ______ ____
ROOT
ATOM      1  N   UNL     1       4.096   4.849   0.859  0.00  0.00    -0.222 N 
ATOM      2  C   UNL     1       3.245   3.934   0.352  0.00  0.00    +0.247 C 
ATOM      3  O   UNL     1       2.378   4.277  -0.423  0.00  0.00    -0.273 OA
ATOM      4  H   UNL     1       4.789   4.575   1.479  0.00  0.00    +0.174 HD
ENDROOT
BRANCH   1  14
ATOM      5  C   UNL     1       3.200  12.577  -0.710  0.00  0.00    +0.007 C 
ATOM      6  C   UNL     1       3.114  11.299   0.128  0.00  0.00    -0.014 C 
ATOM      7  C   UNL     1       2.239  10.273  -0.595  0.00  0.00    +0.006 C 
ATOM      8  C   UNL     1       2.144   9.000   0.249  0.00  0.00    +0.035 C 
ATOM      9  C   UNL     1       3.541   8.432   0.475  0.00  0.00    +0.114 C 
ATOM     10  C   UNL     1       4.433   9.453   1.173  0.00  0.00    +0.035 C 
ATOM     11  C   UNL     1       4.518  10.724   0.325  0.00  0.00    +0.006 C 
ATOM     12  C   UNL     1       3.466   7.157   1.285  0.00  0.00    +0.263 C 
ATOM     13  O   UNL     1       3.037   7.027   2.411  0.00  0.00    -0.271 OA
ATOM     14  N   UNL     1       3.978   6.195   0.489  0.00  0.00    -0.137 N 
ATOM     15  C   UNL     1       4.364   6.687  -0.694  0.00  0.00    +0.326 C 
ATOM     16  O   UNL     1       4.860   6.014  -1.577  0.00  0.00    -0.251 OA
ATOM     17  N   UNL     1       4.138   8.011  -0.798  0.00  0.00    -0.284 N 
ATOM     18  H   UNL     1       4.336   8.575  -1.562  0.00  0.00    +0.151 HD
ENDBRANCH   1  14
BRANCH   2  19
ATOM     19  C   UNL     1       3.372   2.486   0.749  0.00  0.00    +0.202 C 
BRANCH  19  20
ATOM     20  N   UNL     1       2.423   1.679  -0.030  0.00  0.00    -0.321 N 
ATOM     21  C   UNL     1       1.045   1.937   0.392  0.00  0.00    +0.106 C 
ATOM     22  C   UNL     1       0.101   1.091  -0.473  0.00  0.00    +0.024 C 
ATOM     23  C   UNL     1       0.150   1.642  -1.900  0.00  0.00    +0.038 C 
ATOM     24  C   UNL     1       1.585   1.846  -2.317  0.00  0.00    -0.026 A 
ATOM     25  C   UNL     1       2.620   1.861  -1.399  0.00  0.00    +0.033 A 
ATOM     26  C   UNL     1       3.928   2.061  -1.844  0.00  0.00    +0.023 A 
ATOM     27  C   UNL     1       4.188   2.239  -3.186  0.00  0.00    +0.002 A 
ATOM     28  C   UNL     1       3.150   2.219  -4.099  0.00  0.00    +0.000 A 
ATOM     29  C   UNL     1       1.854   2.028  -3.664  0.00  0.00    +0.005 A 
ENDBRANCH  19  20
ENDBRANCH   2  19
TORSDOF 3
