REMARK  Name = ZINC13216653
REMARK  9 active torsions:
REMARK  status: ('A' for Active; 'I' for Inactive)
REMARK    1  A    between atoms: C_4  and  N_7
REMARK    2  A    between atoms: C_9  and  C_12
REMARK    3  A    between atoms: C_13  and  C_14
REMARK    4  A    between atoms: C_14  and  C_16
REMARK    5  A    between atoms: C_19  and  S_22
REMARK    6  A    between atoms: S_22  and  N_25
REMARK    7  A    between atoms: N_25  and  C_26
REMARK    8  A    between atoms: C_26  and  C_27
REMARK    9  A    between atoms: C_30  and  C_33
REMARK                            x       y       z     vdW  Elec       q    Type
REMARK                         _______ _______ _______ _____ _____    ______ ____
ROOT
ATOM      1  C   UNL     1      -3.701   1.735   0.029  0.00  0.00    +0.022 A 
ATOM      2  C   UNL     1      -3.724   3.130   0.043  0.00  0.00    +0.013 A 
ATOM      3  C   UNL     1      -4.931   3.797   0.047  0.00  0.00    +0.029 A 
ATOM      4  C   UNL     1      -6.118   3.086   0.048  0.00  0.00    +0.105 A 
ATOM      5  C   UNL     1      -6.103   1.703   0.041  0.00  0.00    +0.029 A 
ATOM      6  C   UNL     1      -4.902   1.023   0.031  0.00  0.00    +0.013 A 
ENDROOT
BRANCH   4   7
ATOM      7  S   UNL     1      -7.656   3.947   0.061  0.00  0.00    +0.059 S 
ATOM      8  O   UNL     1      -7.405   5.235  -0.484  0.00  0.00    -0.153 OA
ATOM      9  O   UNL     1      -8.621   3.061  -0.490  0.00  0.00    -0.153 OA
BRANCH   7  10
ATOM     10  N   UNL     1      -8.075   4.177   1.646  0.00  0.00    -0.186 NA
ATOM     11  H   UNL     1      -8.866   3.746   2.006  0.00  0.00    +0.148 HD
BRANCH  10  12
ATOM     12  C   UNL     1      -7.251   5.032   2.505  0.00  0.00    +0.141 C 
BRANCH  12  13
ATOM     13  C   UNL     1      -8.018   5.374   3.756  0.00  0.00    -0.032 A 
ATOM     14  C   UNL     1      -8.810   6.508   3.789  0.00  0.00    +0.006 A 
ATOM     15  C   UNL     1      -9.519   6.825   4.930  0.00  0.00    +0.015 A 
ATOM     16  C   UNL     1      -9.426   6.005   6.056  0.00  0.00    +0.063 A 
ATOM     17  C   UNL     1      -8.620   4.865   6.018  0.00  0.00    +0.015 A 
ATOM     18  C   UNL     1      -7.922   4.557   4.869  0.00  0.00    +0.006 A 
BRANCH  16  19
ATOM     19  C   UNL     1     -10.178   6.341   7.283  0.00  0.00    +0.387 C 
ATOM     20  O   UNL     1     -10.095   5.625   8.261  0.00  0.00    -0.241 OA
ATOM     21  O   UNL     1     -10.954   7.441   7.316  0.00  0.00    -0.241 OA
ENDBRANCH  16  19
ENDBRANCH  12  13
ENDBRANCH  10  12
ENDBRANCH   7  10
ENDBRANCH   4   7
BRANCH   1  22
ATOM     22  C   UNL     1      -2.410   1.012   0.019  0.00  0.00    +0.186 C 
ATOM     23  O   UNL     1      -2.394  -0.205   0.012  0.00  0.00    -0.287 OA
BRANCH  22  25
ATOM     24  C   UNL     1      -0.013   1.076   0.008  0.00  0.00    +0.015 C 
ATOM     25  C   UNL     1      -1.194   1.737   0.017  0.00  0.00    +0.052 C 
BRANCH  24  28
ATOM     26  N   UNL     1       3.392   2.321  -0.018  0.00  0.00    -0.239 N 
ATOM     27  C   UNL     1       2.525   1.291  -0.010  0.00  0.00    +0.122 A 
ATOM     28  C   UNL     1       1.249   1.827  -0.000  0.00  0.00    +0.013 A 
ATOM     29  C   UNL     1       1.389   3.236   0.007  0.00  0.00    +0.142 A 
ATOM     30  N   UNL     1       2.663   3.516  -0.004  0.00  0.00    -0.174 NA
BRANCH  26  34
ATOM     31  C   UNL     1       7.548   2.006  -0.058  0.00  0.00    +0.000 A 
ATOM     32  C   UNL     1       6.950   3.254  -0.046  0.00  0.00    +0.002 A 
ATOM     33  C   UNL     1       5.574   3.361  -0.033  0.00  0.00    +0.028 A 
ATOM     34  C   UNL     1       4.789   2.216  -0.032  0.00  0.00    +0.065 A 
ATOM     35  C   UNL     1       5.392   0.965  -0.039  0.00  0.00    +0.028 A 
ATOM     36  C   UNL     1       6.769   0.864  -0.058  0.00  0.00    +0.002 A 
ENDBRANCH  26  34
ENDBRANCH  24  28
ENDBRANCH  22  25
ENDBRANCH   1  22
TORSDOF 9
