REMARK  Name = ZINC41603350
REMARK  4 active torsions:
REMARK  status: ('A' for Active; 'I' for Inactive)
REMARK    1  A    between atoms: C_1  and  C_2
REMARK    2  A    between atoms: C_2  and  O_3
REMARK    3  A    between atoms: O_3  and  C_4
REMARK    4  A    between atoms: C_9  and  N_12
REMARK                            x       y       z     vdW  Elec       q    Type
REMARK                         _______ _______ _______ _____ _____    ______ ____
ROOT
ATOM      1  N   UNL     1      -6.017  -3.787   2.206  0.00  0.00    -0.312 N 
ATOM      2  C   UNL     1      -6.834  -4.878   2.079  0.00  0.00    +0.196 A 
ATOM      3  N   UNL     1      -7.657  -5.227   3.105  0.00  0.00    -0.295 N 
ATOM      4  H   UNL     1      -7.668  -4.707   3.923  0.00  0.00    +0.172 HD
ATOM      5  C   UNL     1      -8.455  -6.300   2.970  0.00  0.00    +0.257 A 
ATOM      6  O   UNL     1      -9.199  -6.625   3.881  0.00  0.00    -0.267 OA
ATOM      7  C   UNL     1      -8.431  -7.054   1.767  0.00  0.00    +0.049 A 
ATOM      8  C   UNL     1      -7.593  -6.662   0.778  0.00  0.00    +0.064 A 
ATOM      9  N   UNL     1      -6.819  -5.574   0.968  0.00  0.00    -0.220 NA
ATOM     10  C   UNL     1      -7.592  -7.496  -0.504  0.00  0.00    +0.125 C 
ATOM     11  S   UNL     1      -8.451  -9.027   0.044  0.00  0.00    -0.150 S 
ATOM     12  C   UNL     1      -9.292  -8.289   1.505  0.00  0.00    +0.111 C 
ATOM     13  H   UNL     1      -6.024  -3.269   3.025  0.00  0.00    +0.149 HD
ENDROOT
BRANCH   1  19
ATOM     14  C   UNL     1      -1.497  -1.836   0.006  0.00  0.00    +0.403 C 
ATOM     15  O   UNL     1      -0.523  -2.563  -0.007  0.00  0.00    -0.226 OA
ATOM     16  N   UNL     1      -2.735  -2.368   0.015  0.00  0.00    -0.267 N 
ATOM     17  C   UNL     1      -3.922  -1.502   0.025  0.00  0.00    +0.113 C 
ATOM     18  C   UNL     1      -4.819  -1.908   1.199  0.00  0.00    +0.041 C 
ATOM     19  C   UNL     1      -5.132  -3.402   1.103  0.00  0.00    +0.076 C 
ATOM     20  C   UNL     1      -3.832  -4.205   1.189  0.00  0.00    +0.041 C 
ATOM     21  C   UNL     1      -2.924  -3.825   0.009  0.00  0.00    +0.113 C 
BRANCH  14  22
ATOM     22  O   UNL     1      -1.339  -0.499   0.012  0.00  0.00    -0.451 OA
BRANCH  22  24
ATOM     23  C   UNL     1      -0.019   1.526   0.010  0.00  0.00    +0.048 C 
ATOM     24  C   UNL     1       0.002  -0.004   0.002  0.00  0.00    +0.230 C 
ENDBRANCH  22  24
ENDBRANCH  14  22
ENDBRANCH   1  19
TORSDOF 3
