REMARK  Name = ZINC13064360
REMARK  14 active torsions:
REMARK  status: ('A' for Active; 'I' for Inactive)
REMARK    1  A    between atoms: C_1  and  C_2
REMARK    2  A    between atoms: C_2  and  C_3
REMARK    3  A    between atoms: C_3  and  C_5
REMARK    4  A    between atoms: C_3  and  N_64
REMARK    5  A    between atoms: N_9  and  C_10
REMARK    6  A    between atoms: C_10  and  C_11
REMARK    7  A    between atoms: C_11  and  O_12
REMARK    8  A    between atoms: O_12  and  C_13
REMARK    9  A    between atoms: C_14  and  C_15
REMARK   10  A    between atoms: C_14  and  N_64
REMARK   11  A    between atoms: C_22  and  C_23
REMARK   12  A    between atoms: C_22  and  N_64
REMARK   13  A    between atoms: C_28  and  O_35
REMARK   14  A    between atoms: O_35  and  C_36
REMARK                            x       y       z     vdW  Elec       q    Type
REMARK                         _______ _______ _______ _____ _____    ______ ____
ROOT
ATOM      1  N   UNL     1       1.900   0.959   9.070  0.00  0.00    +0.392 N 
ATOM      2  H   UNL     1       1.364   1.833   9.118  0.00  0.00    -0.080 HD
ENDROOT
BRANCH   1   3
ATOM      3  C   UNL     1       2.443   0.654  10.411  0.00  0.00    +0.003 C 
BRANCH   3   4
ATOM      4  C   UNL     1       3.048  -0.726  10.434  0.00  0.00    +0.138 A 
ATOM      5  N   UNL     1       2.529  -1.817   9.925  0.00  0.00    -0.115 NA
ATOM      6  N   UNL     1       3.346  -2.788  10.148  0.00  0.00    -0.023 NA
ATOM      7  N   UNL     1       4.373  -2.345  10.787  0.00  0.00    -0.044 NA
ATOM      8  N   UNL     1       4.229  -1.077  10.977  0.00  0.00    -0.229 N 
BRANCH   8   9
ATOM      9  C   UNL     1       5.171  -0.186  11.659  0.00  0.00    +0.175 C 
BRANCH   9  10
ATOM     10  C   UNL     1       4.894  -0.206  13.164  0.00  0.00    +0.183 C 
BRANCH  10  11
ATOM     11  O   UNL     1       5.814   0.662  13.829  0.00  0.00    -0.381 OA
ATOM     12  C   UNL     1       5.640   0.717  15.246  0.00  0.00    +0.194 C 
ENDBRANCH  10  11
ENDBRANCH   9  10
ENDBRANCH   8   9
ENDBRANCH   3   4
BRANCH   3  14
ATOM     13  C   UNL     1       0.787   2.167  11.512  0.00  0.00    +0.002 C 
ATOM     14  C   UNL     1       1.306   0.730  11.432  0.00  0.00    -0.011 C 
ENDBRANCH   3  14
ENDBRANCH   1   3
BRANCH   1  15
ATOM     15  C   UNL     1       3.006   1.127   8.104  0.00  0.00    -0.042 C 
BRANCH  15  16
ATOM     16  C   UNL     1       3.675   2.453   8.360  0.00  0.00    -0.064 A 
ATOM     17  C   UNL     1       3.160   3.606   7.798  0.00  0.00    +0.004 A 
ATOM     18  C   UNL     1       3.770   4.823   8.036  0.00  0.00    +0.038 A 
ATOM     19  C   UNL     1       4.904   4.885   8.828  0.00  0.00    +0.123 A 
ATOM     20  C   UNL     1       5.422   3.729   9.386  0.00  0.00    +0.038 A 
ATOM     21  C   UNL     1       4.807   2.514   9.151  0.00  0.00    +0.004 A 
ATOM     22  F   UNL     1       5.504   6.074   9.057  0.00  0.00    -0.205 F 
ENDBRANCH  15  16
ENDBRANCH   1  15
BRANCH   1  23
ATOM     23  C   UNL     1       1.004  -0.130   8.628  0.00  0.00    -0.036 C 
BRANCH  23  24
ATOM     24  C   UNL     1       0.165   0.370   7.481  0.00  0.00    +0.001 A 
ATOM     25  C   UNL     1       0.551   0.124   6.203  0.00  0.00    +0.017 A 
ATOM     26  C   UNL     1      -0.285   0.622   5.112  0.00  0.00    -0.001 A 
ATOM     27  C   UNL     1       0.063   0.398   3.774  0.00  0.00    +0.013 A 
ATOM     28  C   UNL     1      -0.739   0.871   2.777  0.00  0.00    +0.046 A 
ATOM     29  C   UNL     1      -1.898   1.585   3.079  0.00  0.00    +0.122 A 
ATOM     30  C   UNL     1      -2.260   1.816   4.394  0.00  0.00    +0.072 A 
ATOM     31  C   UNL     1      -1.458   1.338   5.423  0.00  0.00    +0.053 A 
ATOM     32  N   UNL     1      -1.794   1.554   6.743  0.00  0.00    -0.322 N 
ATOM     33  H   UNL     1      -2.602   2.047   6.956  0.00  0.00    +0.169 HD
ATOM     34  C   UNL     1      -1.018   1.092   7.739  0.00  0.00    +0.251 A 
ATOM     35  O   UNL     1      -1.346   1.302   8.894  0.00  0.00    -0.268 OA
BRANCH  29  36
ATOM     36  O   UNL     1      -2.681   2.052   2.073  0.00  0.00    -0.495 OA
ATOM     37  C   UNL     1      -2.253   1.780   0.737  0.00  0.00    +0.277 C 
ENDBRANCH  29  36
ENDBRANCH  23  24
ENDBRANCH   1  23
TORSDOF 11
