REMARK  Name = ZINC39699288
REMARK  8 active torsions:
REMARK  status: ('A' for Active; 'I' for Inactive)
REMARK    1  A    between atoms: C_1  and  C_2
REMARK    2  A    between atoms: C_8  and  C_14
REMARK    3  A    between atoms: C_14  and  C_16
REMARK    4  A    between atoms: C_14  and  N_26
REMARK    5  A    between atoms: N_21  and  C_22
REMARK    6  A    between atoms: C_22  and  C_23
REMARK    7  A    between atoms: C_22  and  C_24
REMARK    8  A    between atoms: C_22  and  C_25
REMARK                            x       y       z     vdW  Elec       q    Type
REMARK                         _______ _______ _______ _____ _____    ______ ____
ROOT
ATOM      1  C   UNL     1       1.295  -2.566   4.414  0.00  0.00    +0.131 C 
ENDROOT
BRANCH   1   9
ATOM      2  C   UNL     1      -3.364  -5.203   1.412  0.00  0.00    +0.045 C 
ATOM      3  C   UNL     1      -3.249  -4.694   2.826  0.00  0.00    -0.029 A 
ATOM      4  C   UNL     1      -4.171  -5.063   3.753  0.00  0.00    +0.005 A 
ATOM      5  C   UNL     1      -4.123  -4.629   5.077  0.00  0.00    +0.001 A 
ATOM      6  C   UNL     1      -3.139  -3.802   5.515  0.00  0.00    +0.009 A 
ATOM      7  C   UNL     1      -2.112  -3.364   4.569  0.00  0.00    -0.007 A 
ATOM      8  C   UNL     1      -1.105  -2.535   4.964  0.00  0.00    -0.003 C 
ATOM      9  C   UNL     1      -0.085  -2.132   3.916  0.00  0.00    +0.122 C 
ATOM     10  C   UNL     1      -0.268  -2.683   2.520  0.00  0.00    +0.226 C 
ATOM     11  O   UNL     1       0.521  -2.393   1.641  0.00  0.00    -0.275 OA
ATOM     12  N   UNL     1      -1.289  -3.483   2.259  0.00  0.00    -0.284 N 
ATOM     13  C   UNL     1      -2.185  -3.843   3.178  0.00  0.00    +0.043 A 
ATOM     14  H   UNL     1      -1.388  -3.825   1.357  0.00  0.00    +0.155 HD
ENDBRANCH   1   9
BRANCH   1  15
ATOM     15  N   UNL     1       2.323  -2.077   3.491  0.00  0.00    -0.322 N 
ATOM     16  C   UNL     1       2.488  -0.680   3.082  0.00  0.00    +0.110 C 
ATOM     17  C   UNL     1       3.686  -0.681   2.119  0.00  0.00    +0.056 C 
ATOM     18  C   UNL     1       4.121  -2.128   2.055  0.00  0.00    -0.025 A 
ATOM     19  C   UNL     1       3.291  -2.874   2.878  0.00  0.00    +0.033 A 
ATOM     20  C   UNL     1       3.503  -4.250   2.987  0.00  0.00    +0.023 A 
ATOM     21  C   UNL     1       4.528  -4.853   2.289  0.00  0.00    +0.002 A 
ATOM     22  C   UNL     1       5.353  -4.099   1.475  0.00  0.00    +0.000 A 
ATOM     23  C   UNL     1       5.143  -2.737   1.354  0.00  0.00    +0.005 A 
ENDBRANCH   1  15
BRANCH   1  24
ATOM     24  C   UNL     1       1.541  -1.982   5.807  0.00  0.00    +0.239 C 
ATOM     25  N   UNL     1       1.704  -0.524   5.730  0.00  0.00    -0.148 NA
ATOM     26  N   UNL     1       2.829  -0.227   6.137  0.00  0.00    -0.069 NA
ATOM     27  N   UNL     1       3.574  -1.337   6.532  0.00  0.00    -0.179 N 
ATOM     28  N   UNL     1       2.824  -2.473   6.352  0.00  0.00    -0.179 NA
ATOM     29  H   UNL     1       4.480  -1.312   6.880  0.00  0.00    +0.191 HD
BRANCH  28  30
ATOM     30  C   UNL     1       2.620  -3.179   7.625  0.00  0.00    +0.035 C 
ATOM     31  C   UNL     1       1.692  -4.374   7.401  0.00  0.00    +0.029 C 
ATOM     32  C   UNL     1       3.967  -3.671   8.157  0.00  0.00    +0.029 C 
ATOM     33  C   UNL     1       1.987  -2.225   8.640  0.00  0.00    +0.029 C 
ENDBRANCH  28  30
ENDBRANCH   1  24
TORSDOF 4
