REMARK  Name = ZINC14165767
REMARK  6 active torsions:
REMARK  status: ('A' for Active; 'I' for Inactive)
REMARK    1  A    between atoms: C_1  and  C_2
REMARK    2  A    between atoms: C_7  and  N_8
REMARK    3  A    between atoms: C_9  and  C_11
REMARK    4  A    between atoms: C_11  and  N_12
REMARK    5  A    between atoms: C_13  and  C_15
REMARK    6  A    between atoms: C_15  and  N_16
REMARK                            x       y       z     vdW  Elec       q    Type
REMARK                         _______ _______ _______ _____ _____    ______ ____
ROOT
ATOM      1  N   UNL     1      -2.746   3.164   1.700  0.00  0.00    -0.305 N 
ATOM      2  C   UNL     1      -1.636   2.444   1.445  0.00  0.00    +0.231 C 
ATOM      3  O   UNL     1      -0.970   2.012   2.361  0.00  0.00    -0.274 OA
ATOM      4  H   UNL     1      -3.279   3.510   0.968  0.00  0.00    +0.149 HD
ENDROOT
BRANCH   1   5
ATOM      5  C   UNL     1      -3.148   3.425   3.085  0.00  0.00    +0.200 C 
BRANCH   5   7
ATOM      6  N   UNL     1      -4.971   4.608   4.267  0.00  0.00    -0.284 N 
ATOM      7  C   UNL     1      -4.412   4.245   3.095  0.00  0.00    +0.234 C 
ATOM      8  O   UNL     1      -4.927   4.580   2.049  0.00  0.00    -0.274 OA
ATOM      9  H   UNL     1      -4.606   4.274   5.102  0.00  0.00    +0.155 HD
BRANCH   6  16
ATOM     10  C   UNL     1      -6.735   4.492   6.497  0.00  0.00    +0.046 C 
ATOM     11  C   UNL     1      -6.963   5.441   5.348  0.00  0.00    -0.028 A 
ATOM     12  C   UNL     1      -8.052   6.292   5.360  0.00  0.00    +0.020 A 
ATOM     13  C   UNL     1      -8.265   7.158   4.304  0.00  0.00    +0.018 A 
ATOM     14  C   UNL     1      -7.387   7.180   3.235  0.00  0.00    +0.017 A 
ATOM     15  C   UNL     1      -6.294   6.336   3.220  0.00  0.00    +0.024 A 
ATOM     16  C   UNL     1      -6.077   5.465   4.279  0.00  0.00    +0.036 A 
ATOM     17 BR   UNL     1      -9.761   8.316   4.320  0.00  0.00    -0.050 Br
ENDBRANCH   6  16
ENDBRANCH   5   7
ENDBRANCH   1   5
BRANCH   2  18
ATOM     18  C   UNL     1      -1.223   2.176   0.021  0.00  0.00    +0.213 C 
BRANCH  18  19
ATOM     19  N   UNL     1       0.006   1.379   0.011  0.00  0.00    -0.215 N 
ATOM     20  C   UNL     1       0.035   0.029   0.005  0.00  0.00    +0.247 C 
ATOM     21  O   UNL     1      -0.913  -0.728   0.013  0.00  0.00    -0.273 OA
ATOM     22  C   UNL     1       1.497  -0.338  -0.011  0.00  0.00    +0.113 C 
ATOM     23  C   UNL     1       1.845  -1.160  -1.259  0.00  0.00    +0.035 C 
ATOM     24  C   UNL     1       2.928  -2.154  -0.762  0.00  0.00    +0.003 C 
ATOM     25  C   UNL     1       2.443  -2.506   0.667  0.00  0.00    +0.003 C 
ATOM     26  C   UNL     1       1.874  -1.177   1.212  0.00  0.00    +0.035 C 
ATOM     27  N   UNL     1       2.197   0.948  -0.013  0.00  0.00    -0.285 N 
ATOM     28  C   UNL     1       1.241   1.898   0.000  0.00  0.00    +0.310 C 
ATOM     29  O   UNL     1       1.472   3.091   0.002  0.00  0.00    -0.252 OA
ATOM     30  H   UNL     1       3.157   1.089  -0.023  0.00  0.00    +0.151 HD
ENDBRANCH  18  19
ENDBRANCH   2  18
TORSDOF 5
