REMARK  Name = ZINC12310008
REMARK  9 active torsions:
REMARK  status: ('A' for Active; 'I' for Inactive)
REMARK    1  A    between atoms: C_1  and  C_2
REMARK    2  A    between atoms: C_2  and  C_3
REMARK    3  A    between atoms: C_2  and  C_4
REMARK    4  A    between atoms: C_10  and  N_11
REMARK    5  A    between atoms: N_11  and  O_12
REMARK    6  A    between atoms: O_12  and  C_13
REMARK    7  A    between atoms: C_13  and  C_14
REMARK    8  A    between atoms: N_24  and  C_29
REMARK    9  A    between atoms: N_27  and  C_28
REMARK                            x       y       z     vdW  Elec       q    Type
REMARK                         _______ _______ _______ _____ _____    ______ ____
ROOT
ATOM      1  C   UNL     1      -1.365   5.991  -0.503  0.00  0.00    -0.003 A 
ATOM      2  C   UNL     1      -2.482   5.247  -0.473  0.00  0.00    +0.090 A 
ATOM      3  N   UNL     1      -2.490   3.974   0.028  0.00  0.00    -0.347 N 
ATOM      4  H   UNL     1      -3.445   3.477   0.255  0.00  0.00    +0.167 HD
ATOM      5  C   UNL     1      -1.342   3.283   0.262  0.00  0.00    +0.129 A 
ATOM      6  C   UNL     1      -0.121   3.952   0.274  0.00  0.00    +0.106 A 
ATOM      7  C   UNL     1      -0.114   5.405   0.018  0.00  0.00    +0.082 A 
ATOM      8  C   UNL     1       1.067   3.228   0.526  0.00  0.00    +0.268 A 
ATOM      9  O   UNL     1       2.146   3.793   0.544  0.00  0.00    -0.267 OA
ATOM     10  N   UNL     1       0.983   1.898   0.747  0.00  0.00    -0.263 N 
ATOM     11  C   UNL     1      -0.206   1.272   0.726  0.00  0.00    +0.333 A 
ATOM     12  O   UNL     1      -0.244   0.073   0.926  0.00  0.00    -0.246 OA
ATOM     13  N   UNL     1      -1.354   1.930   0.485  0.00  0.00    -0.282 N 
ATOM     14  C   UNL     1      -2.624   1.200   0.467  0.00  0.00    +0.155 C 
ATOM     15  C   UNL     1       2.202   1.129   1.011  0.00  0.00    +0.157 C 
ENDROOT
BRANCH   1  17
ATOM     16  C   UNL     1      -1.088   7.356  -2.555  0.00  0.00    +0.012 C 
ATOM     17  C   UNL     1      -1.387   7.393  -1.055  0.00  0.00    +0.016 C 
ATOM     18  C   UNL     1      -2.768   8.010  -0.825  0.00  0.00    +0.012 C 
ENDBRANCH   1  17
BRANCH   7  19
ATOM     19  N   UNL     1       0.952   6.139   0.241  0.00  0.00    -0.264 N 
ATOM     20  H   UNL     1       1.079   7.098  -0.283  0.00  0.00    +0.194 HD
BRANCH  19  21
ATOM     21  O   UNL     1       1.938   5.698   1.157  0.00  0.00    -0.269 OA
BRANCH  21  22
ATOM     22  C   UNL     1       3.041   6.595   1.302  0.00  0.00    +0.232 C 
BRANCH  22  23
ATOM     23  C   UNL     1       4.022   6.027   2.295  0.00  0.00    +0.034 A 
ATOM     24  C   UNL     1       3.903   6.334   3.639  0.00  0.00    +0.130 A 
ATOM     25  C   UNL     1       4.803   5.809   4.551  0.00  0.00    +0.039 A 
ATOM     26  C   UNL     1       5.825   4.987   4.117  0.00  0.00    +0.004 A 
ATOM     27  C   UNL     1       5.948   4.684   2.774  0.00  0.00    +0.020 A 
ATOM     28  C   UNL     1       5.047   5.205   1.862  0.00  0.00    +0.049 A 
ATOM     29 CL   UNL     1       5.202   4.826   0.175  0.00  0.00    -0.083 Cl
ATOM     30  F   UNL     1       2.906   7.142   4.062  0.00  0.00    -0.205 F 
ENDBRANCH  22  23
ENDBRANCH  21  22
ENDBRANCH  19  21
ENDBRANCH   7  19
TORSDOF 5
