REMARK  Name = ZINC05293601
REMARK  5 active torsions:
REMARK  status: ('A' for Active; 'I' for Inactive)
REMARK    1  A    between atoms: C_1  and  N_2
REMARK    2  A    between atoms: C_3  and  C_5
REMARK    3  A    between atoms: C_9  and  N_11
REMARK    4  A    between atoms: C_12  and  C_13
REMARK    5  A    between atoms: C_18  and  O_19
REMARK                            x       y       z     vdW  Elec       q    Type
REMARK                         _______ _______ _______ _____ _____    ______ ____
ROOT
ATOM      1  N   UNL     1      -3.474  -4.991  -0.002  0.00  0.00    -0.255 NA
ATOM      2  C   UNL     1      -3.621  -6.007  -0.805  0.00  0.00    +0.123 C 
ENDROOT
BRANCH   2   3
ATOM      3  C   UNL     1      -4.878  -6.769  -0.802  0.00  0.00    +0.037 A 
ATOM      4  C   UNL     1      -5.039  -7.864  -1.658  0.00  0.00    +0.033 A 
ATOM      5  C   UNL     1      -6.220  -8.575  -1.651  0.00  0.00    +0.043 A 
ATOM      6  C   UNL     1      -7.251  -8.210  -0.799  0.00  0.00    +0.043 A 
ATOM      7  C   UNL     1      -7.105  -7.130   0.052  0.00  0.00    +0.084 A 
ATOM      8  C   UNL     1      -5.922  -6.407   0.062  0.00  0.00    +0.144 A 
ATOM      9 CL   UNL     1      -8.403  -6.683   1.114  0.00  0.00    -0.080 Cl
ATOM     10 CL   UNL     1      -6.418  -9.934  -2.713  0.00  0.00    -0.083 Cl
BRANCH   8  11
ATOM     11  O   UNL     1      -5.776  -5.350   0.901  0.00  0.00    -0.505 OA
ATOM     12  H   UNL     1      -6.061  -4.506   0.524  0.00  0.00    +0.292 HD
ENDBRANCH   8  11
ENDBRANCH   2   3
BRANCH   1  17
ATOM     13  C   UNL     1      -1.136  -2.172   0.001  0.00  0.00    +0.039 A 
ATOM     14  C   UNL     1       0.083  -2.856  -0.008  0.00  0.00    +0.013 A 
ATOM     15  C   UNL     1       0.104  -4.236  -0.016  0.00  0.00    +0.003 A 
ATOM     16  C   UNL     1      -1.078  -4.951  -0.014  0.00  0.00    +0.028 A 
ATOM     17  C   UNL     1      -2.304  -4.281  -0.004  0.00  0.00    +0.065 A 
ATOM     18  C   UNL     1      -2.332  -2.887   0.009  0.00  0.00    +0.040 A 
BRANCH  13  21
ATOM     19  C   UNL     1      -0.018   1.461   0.010  0.00  0.00    +0.128 C 
ATOM     20  N   UNL     1       0.002  -0.004   0.002  0.00  0.00    -0.314 N 
ATOM     21  C   UNL     1      -1.156  -0.694   0.009  0.00  0.00    +0.244 C 
ATOM     22  O   UNL     1      -2.217  -0.100   0.023  0.00  0.00    -0.270 OA
ATOM     23  H   UNL     1       0.849  -0.478  -0.009  0.00  0.00    +0.149 HD
ENDBRANCH  13  21
ENDBRANCH   1  17
TORSDOF 4
