REMARK  Name = ZINC35928329
REMARK  5 active torsions:
REMARK  status: ('A' for Active; 'I' for Inactive)
REMARK    1  A    between atoms: C_1  and  S_2
REMARK    2  A    between atoms: S_2  and  C_5
REMARK    3  A    between atoms: C_7  and  C_21
REMARK    4  A    between atoms: C_9  and  N_20
REMARK    5  A    between atoms: N_10  and  C_14
REMARK                            x       y       z     vdW  Elec       q    Type
REMARK                         _______ _______ _______ _____ _____    ______ ____
ROOT
ATOM      1  C   UNL     1       0.834  -0.908  -1.392  0.00  0.00    +0.272 A 
ATOM      2  N   UNL     1       0.111  -1.104  -2.482  0.00  0.00    -0.211 NA
ATOM      3  C   UNL     1       0.655  -1.143  -3.694  0.00  0.00    +0.089 A 
ATOM      4  C   UNL     1       2.051  -0.968  -3.803  0.00  0.00    +0.086 A 
ATOM      5  C   UNL     1       2.975  -0.940  -4.841  0.00  0.00    +0.131 A 
ATOM      6  N   UNL     1       4.190  -0.730  -4.297  0.00  0.00    -0.216 N 
ATOM      7  N   UNL     1       4.076  -0.617  -2.907  0.00  0.00    -0.144 NA
ATOM      8  C   UNL     1       2.815  -0.752  -2.560  0.00  0.00    +0.189 A 
ATOM      9  N   UNL     1       2.132  -0.731  -1.399  0.00  0.00    -0.190 NA
ENDROOT
BRANCH   6  10
ATOM     10  C   UNL     1       5.388  -0.637  -5.016  0.00  0.00    +0.067 A 
ATOM     11  C   UNL     1       5.578  -1.410  -6.154  0.00  0.00    +0.028 A 
ATOM     12  C   UNL     1       6.761  -1.316  -6.861  0.00  0.00    +0.002 A 
ATOM     13  C   UNL     1       7.755  -0.454  -6.436  0.00  0.00    +0.000 A 
ATOM     14  C   UNL     1       7.569   0.317  -5.303  0.00  0.00    +0.002 A 
ATOM     15  C   UNL     1       6.386   0.233  -4.596  0.00  0.00    +0.028 A 
ENDBRANCH   6  10
BRANCH   3  16
ATOM     16  C   UNL     1      -0.181  -1.365  -4.896  0.00  0.00    +0.001 A 
ATOM     17  C   UNL     1       0.217  -2.286  -5.865  0.00  0.00    +0.010 A 
ATOM     18  C   UNL     1      -0.566  -2.488  -6.983  0.00  0.00    +0.001 A 
ATOM     19  C   UNL     1      -1.743  -1.779  -7.144  0.00  0.00    +0.000 A 
ATOM     20  C   UNL     1      -2.143  -0.865  -6.186  0.00  0.00    +0.001 A 
ATOM     21  C   UNL     1      -1.372  -0.658  -5.061  0.00  0.00    +0.010 A 
ENDBRANCH   3  16
BRANCH   1  23
ATOM     22  C   UNL     1      -0.456   0.862   0.409  0.00  0.00    +0.204 C 
ATOM     23  S   UNL     1       0.001  -0.876   0.161  0.00  0.00    +0.029 S 
ATOM     24  O   UNL     1       0.987  -1.263   1.109  0.00  0.00    -0.167 OA
ATOM     25  O   UNL     1      -1.164  -1.665  -0.036  0.00  0.00    -0.167 OA
ENDBRANCH   1  23
BRANCH   5  26
ATOM     26  N   UNL     1       2.699  -1.101  -6.186  0.00  0.00    -0.342 N 
ATOM     27  H   UNL     1       1.780  -1.100  -6.496  0.00  0.00    +0.144 HD
ATOM     28  H   UNL     1       3.424  -1.214  -6.820  0.00  0.00    +0.144 HD
ENDBRANCH   5  26
TORSDOF 4
