REMARK  Name = ZINC64774635
REMARK  9 active torsions:
REMARK  status: ('A' for Active; 'I' for Inactive)
REMARK    1  A    between atoms: C_1  and  C_2
REMARK    2  A    between atoms: C_2  and  C_4
REMARK    3  A    between atoms: C_2  and  S_15
REMARK    4  A    between atoms: S_15  and  C_16
REMARK    5  A    between atoms: C_20  and  C_23
REMARK    6  A    between atoms: C_28  and  N_29
REMARK    7  A    between atoms: C_30  and  C_32
REMARK    8  A    between atoms: C_32  and  C_33
REMARK    9  A    between atoms: C_32  and  C_34
REMARK                            x       y       z     vdW  Elec       q    Type
REMARK                         _______ _______ _______ _____ _____    ______ ____
ROOT
ATOM      1  C   UNL     1      -0.120  -0.091   2.908  0.00  0.00    +0.213 A 
ATOM      2  N   UNL     1       0.222  -0.379   4.159  0.00  0.00    -0.180 NA
ATOM      3  C   UNL     1      -0.565   0.006   5.156  0.00  0.00    +0.300 A 
ATOM      4  O   UNL     1      -0.241  -0.274   6.441  0.00  0.00    -0.263 OA
ATOM      5  C   UNL     1      -1.744   0.711   4.849  0.00  0.00    +0.161 A 
ATOM      6  N   UNL     1      -2.028   0.967   3.577  0.00  0.00    -0.141 NA
ATOM      7  N   UNL     1      -1.234   0.580   2.641  0.00  0.00    -0.122 NA
ENDROOT
BRANCH   5   8
ATOM      8  C   UNL     1      -2.654   1.160   5.928  0.00  0.00    +0.029 A 
ATOM      9  C   UNL     1      -2.150   1.859   7.023  0.00  0.00    +0.012 A 
ATOM     10  C   UNL     1      -3.002   2.276   8.026  0.00  0.00    +0.001 A 
ATOM     11  C   UNL     1      -4.356   2.001   7.950  0.00  0.00    +0.002 A 
ATOM     12  C   UNL     1      -4.868   1.307   6.870  0.00  0.00    +0.024 A 
ATOM     13  C   UNL     1      -4.025   0.888   5.851  0.00  0.00    +0.043 A 
BRANCH  13  14
ATOM     14  N   UNL     1      -4.541   0.193   4.754  0.00  0.00    -0.285 N 
ATOM     15  C   UNL     1      -5.835   0.345   4.408  0.00  0.00    +0.220 C 
ATOM     16  O   UNL     1      -6.525   1.160   4.983  0.00  0.00    -0.275 OA
ATOM     17  H   UNL     1      -3.969  -0.400   4.243  0.00  0.00    +0.155 HD
BRANCH  15  18
ATOM     18  C   UNL     1      -6.424  -0.498   3.307  0.00  0.00    +0.069 C 
ATOM     19  C   UNL     1      -6.314  -1.977   3.681  0.00  0.00    +0.017 C 
ATOM     20  C   UNL     1      -7.897  -0.129   3.115  0.00  0.00    +0.017 C 
ENDBRANCH  15  18
ENDBRANCH  13  14
ENDBRANCH   5   8
BRANCH   1  21
ATOM     21  S   UNL     1       0.924  -0.601   1.584  0.00  0.00    -0.072 S 
BRANCH  21  23
ATOM     22  C   UNL     1       0.045   1.528   0.109  0.00  0.00    +0.029 C 
ATOM     23  C   UNL     1       0.074  -0.001   0.098  0.00  0.00    +0.137 C 
BRANCH  23  24
ATOM     24  C   UNL     1       0.806  -0.481  -1.128  0.00  0.00    +0.233 C 
ATOM     25  O   UNL     1       1.988  -0.746  -1.064  0.00  0.00    -0.274 OA
ATOM     26  N   UNL     1       0.148  -0.616  -2.297  0.00  0.00    -0.270 N 
ATOM     27  C   UNL     1      -1.245  -0.224  -2.526  0.00  0.00    +0.118 C 
ATOM     28  C   UNL     1      -1.525  -0.574  -3.997  0.00  0.00    +0.056 C 
ATOM     29  C   UNL     1      -0.225  -1.158  -4.504  0.00  0.00    -0.024 A 
ATOM     30  C   UNL     1       0.697  -1.145  -3.469  0.00  0.00    +0.040 A 
ATOM     31  C   UNL     1       1.984  -1.633  -3.702  0.00  0.00    +0.024 A 
ATOM     32  C   UNL     1       2.329  -2.118  -4.946  0.00  0.00    +0.002 A 
ATOM     33  C   UNL     1       1.402  -2.123  -5.973  0.00  0.00    +0.000 A 
ATOM     34  C   UNL     1       0.123  -1.648  -5.747  0.00  0.00    +0.005 A 
ENDBRANCH  23  24
ENDBRANCH  21  23
ENDBRANCH   1  21
TORSDOF 6
