REMARK  Name = ZINC25852334
REMARK  7 active torsions:
REMARK  status: ('A' for Active; 'I' for Inactive)
REMARK    1  A    between atoms: C_1  and  C_2
REMARK    2  A    between atoms: C_6  and  C_15
REMARK    3  A    between atoms: N_8  and  C_9
REMARK    4  A    between atoms: C_15  and  O_17
REMARK    5  A    between atoms: O_17  and  C_18
REMARK    6  A    between atoms: C_18  and  C_19
REMARK    7  A    between atoms: C_30  and  C_32
REMARK                            x       y       z     vdW  Elec       q    Type
REMARK                         _______ _______ _______ _____ _____    ______ ____
ROOT
ATOM      1  C   UNL     1       2.628  -2.216  -3.003  0.00  0.00    +0.328 C 
ENDROOT
BRANCH   1   2
ATOM      2  C   UNL     1       2.960  -0.749  -2.914  0.00  0.00    +0.258 C 
ATOM      3  O   UNL     1       3.977  -0.325  -3.420  0.00  0.00    -0.271 OA
ATOM      4  N   UNL     1       2.126   0.092  -2.271  0.00  0.00    -0.259 N 
ATOM      5  C   UNL     1       0.823  -0.336  -2.003  0.00  0.00    +0.050 A 
ATOM      6  C   UNL     1       0.324  -1.413  -2.733  0.00  0.00    +0.024 A 
ATOM      7  C   UNL     1      -0.950  -1.888  -2.494  0.00  0.00    +0.002 A 
ATOM      8  C   UNL     1      -1.743  -1.298  -1.527  0.00  0.00    +0.001 A 
ATOM      9  C   UNL     1      -1.261  -0.227  -0.800  0.00  0.00    +0.016 A 
ATOM     10  C   UNL     1       0.019   0.259  -1.036  0.00  0.00    +0.029 A 
ATOM     11  S   UNL     1       0.602   1.632  -0.093  0.00  0.00    -0.121 S 
ATOM     12  C   UNL     1       2.397   1.604  -0.381  0.00  0.00    +0.102 C 
ATOM     13  C   UNL     1       2.624   1.409  -1.888  0.00  0.00    +0.122 C 
BRANCH  13  14
ATOM     14  C   UNL     1       4.098   1.500  -2.192  0.00  0.00    -0.026 A 
ATOM     15  C   UNL     1       5.002   0.751  -1.462  0.00  0.00    +0.005 A 
ATOM     16  C   UNL     1       6.353   0.831  -1.745  0.00  0.00    +0.000 A 
ATOM     17  C   UNL     1       6.800   1.667  -2.751  0.00  0.00    +0.000 A 
ATOM     18  C   UNL     1       5.896   2.420  -3.477  0.00  0.00    +0.000 A 
ATOM     19  C   UNL     1       4.545   2.336  -3.198  0.00  0.00    +0.005 A 
ENDBRANCH  13  14
ENDBRANCH   1   2
BRANCH   1  20
ATOM     20  O   UNL     1       3.857  -2.988  -3.063  0.00  0.00    -0.451 OA
BRANCH  20  21
ATOM     21  C   UNL     1       3.735  -4.327  -3.147  0.00  0.00    +0.364 C 
ATOM     22  O   UNL     1       2.633  -4.837  -3.169  0.00  0.00    -0.243 OA
BRANCH  21  28
ATOM     23  C   UNL     1       8.504  -7.449  -3.387  0.00  0.00    +0.066 C 
ATOM     24  C   UNL     1       7.199  -6.698  -3.327  0.00  0.00    +0.044 A 
ATOM     25  C   UNL     1       6.031  -7.383  -3.360  0.00  0.00    +0.076 A 
ATOM     26  C   UNL     1       4.824  -6.639  -3.302  0.00  0.00    +0.215 A 
ATOM     27  O   UNL     1       3.735  -7.190  -3.327  0.00  0.00    -0.285 OA
ATOM     28  C   UNL     1       4.941  -5.175  -3.211  0.00  0.00    +0.214 A 
ATOM     29  N   UNL     1       6.142  -4.635  -3.193  0.00  0.00    -0.156 NA
ATOM     30  N   UNL     1       7.208  -5.345  -3.242  0.00  0.00    -0.236 N 
BRANCH  30  31
ATOM     31  C   UNL     1       8.444  -4.690  -3.212  0.00  0.00    +0.066 A 
ATOM     32  C   UNL     1       8.675  -3.682  -2.285  0.00  0.00    +0.028 A 
ATOM     33  C   UNL     1       9.898  -3.041  -2.255  0.00  0.00    +0.002 A 
ATOM     34  C   UNL     1      10.889  -3.395  -3.152  0.00  0.00    +0.000 A 
ATOM     35  C   UNL     1      10.660  -4.395  -4.080  0.00  0.00    +0.002 A 
ATOM     36  C   UNL     1       9.441  -5.043  -4.112  0.00  0.00    +0.028 A 
ENDBRANCH  30  31
ENDBRANCH  21  28
ENDBRANCH  20  21
ENDBRANCH   1  20
TORSDOF 6
