REMARK  Name = ZINC49477051
REMARK  5 active torsions:
REMARK  status: ('A' for Active; 'I' for Inactive)
REMARK    1  A    between atoms: C_1  and  C_2
REMARK    2  A    between atoms: C_2  and  C_3
REMARK    3  A    between atoms: C_2  and  N_4
REMARK    4  A    between atoms: N_7  and  N_8
REMARK    5  A    between atoms: C_9  and  C_11
REMARK                            x       y       z     vdW  Elec       q    Type
REMARK                         _______ _______ _______ _____ _____    ______ ____
ROOT
ATOM      1  N   UNL     1      -3.924  -1.457   0.078  0.00  0.00    -0.229 N 
ATOM      2  C   UNL     1      -5.189  -1.924   0.087  0.00  0.00    +0.262 C 
ATOM      3  O   UNL     1      -5.801  -2.043  -0.957  0.00  0.00    -0.269 OA
ATOM      4  H   UNL     1      -3.436  -1.363   0.910  0.00  0.00    +0.173 HD
ENDROOT
BRANCH   2   5
ATOM      5  C   UNL     1      -5.831  -2.291   1.366  0.00  0.00    +0.056 A 
ATOM      6  C   UNL     1      -5.133  -2.150   2.567  0.00  0.00    +0.015 A 
ATOM      7  C   UNL     1      -5.737  -2.494   3.757  0.00  0.00    +0.016 A 
ATOM      8  C   UNL     1      -7.035  -2.978   3.764  0.00  0.00    +0.019 A 
ATOM      9  C   UNL     1      -7.734  -3.121   2.578  0.00  0.00    +0.036 A 
ATOM     10  C   UNL     1      -7.142  -2.775   1.379  0.00  0.00    +0.054 A 
ATOM     11 CL   UNL     1      -8.021  -2.947  -0.107  0.00  0.00    -0.083 Cl
ATOM     12 BR   UNL     1      -7.856  -3.447   5.402  0.00  0.00    -0.050 Br
ENDBRANCH   2   5
BRANCH   1  16
ATOM     13  N   UNL     1      -1.372  -0.511   0.012  0.00  0.00    -0.296 N 
ATOM     14  C   UNL     1      -2.051  -0.643  -1.145  0.00  0.00    +0.316 C 
ATOM     15  O   UNL     1      -1.522  -0.341  -2.197  0.00  0.00    -0.251 OA
ATOM     16  N   UNL     1      -3.315  -1.109  -1.135  0.00  0.00    -0.218 N 
ATOM     17  H   UNL     1      -1.794  -0.752   0.852  0.00  0.00    +0.151 HD
ATOM     18  H   UNL     1      -3.804  -1.204  -1.968  0.00  0.00    +0.174 HD
BRANCH  13  20
ATOM     19  C   UNL     1      -0.019   1.526   0.010  0.00  0.00    +0.027 C 
ATOM     20  C   UNL     1       0.002  -0.004   0.002  0.00  0.00    +0.068 C 
ATOM     21  C   UNL     1       0.742  -0.511   1.242  0.00  0.00    +0.027 C 
ENDBRANCH  13  20
ENDBRANCH   1  16
TORSDOF 3
