REMARK  Name = ZINC08582815
REMARK  10 active torsions:
REMARK  status: ('A' for Active; 'I' for Inactive)
REMARK    1  A    between atoms: C_1  and  C_2
REMARK    2  A    between atoms: C_7  and  C_14
REMARK    3  A    between atoms: C_8  and  O_13
REMARK    4  A    between atoms: C_11  and  C_12
REMARK    5  A    between atoms: C_14  and  C_16
REMARK    6  A    between atoms: C_14  and  N_56
REMARK    7  A    between atoms: N_20  and  C_21
REMARK    8  A    between atoms: C_21  and  C_22
REMARK    9  A    between atoms: C_21  and  C_23
REMARK   10  A    between atoms: C_21  and  C_24
REMARK                            x       y       z     vdW  Elec       q    Type
REMARK                         _______ _______ _______ _____ _____    ______ ____
ROOT
ATOM      1  C   UNL     1      -0.501   0.816  -2.364  0.00  0.00    +0.039 C 
ENDROOT
BRANCH   1   8
ATOM      2  C   UNL     1      -2.237  -6.577  -0.089  0.00  0.00    +0.044 C 
ATOM      3  C   UNL     1      -1.989  -5.107  -0.313  0.00  0.00    -0.045 A 
ATOM      4  C   UNL     1      -2.318  -4.196   0.688  0.00  0.00    +0.004 A 
ATOM      5  C   UNL     1      -2.105  -2.862   0.516  0.00  0.00    +0.010 A 
ATOM      6  C   UNL     1      -1.548  -2.398  -0.685  0.00  0.00    +0.001 A 
ATOM      7  C   UNL     1      -1.313  -1.025  -0.901  0.00  0.00    +0.017 A 
ATOM      8  C   UNL     1      -0.769  -0.642  -2.091  0.00  0.00    +0.008 A 
ATOM      9  C   UNL     1      -0.465  -1.605  -3.061  0.00  0.00    +0.215 A 
ATOM     10  N   UNL     1      -0.681  -2.885  -2.853  0.00  0.00    -0.213 NA
ATOM     11  C   UNL     1      -1.213  -3.322  -1.705  0.00  0.00    +0.078 A 
ATOM     12  C   UNL     1      -1.447  -4.691  -1.490  0.00  0.00    -0.021 A 
ATOM     13  C   UNL     1      -1.099  -5.695  -2.559  0.00  0.00    +0.046 C 
BRANCH   9  14
ATOM     14  O   UNL     1       0.070  -1.208  -4.242  0.00  0.00    -0.492 OA
ATOM     15  H   UNL     1       1.036  -1.251  -4.270  0.00  0.00    +0.294 HD
ENDBRANCH   9  14
ENDBRANCH   1   8
BRANCH   1  20
ATOM     16  C   UNL     1      -0.056   1.078   0.016  0.00  0.00    -0.077 C 
ATOM     17  C   UNL     1      -0.837   1.604   1.239  0.00  0.00    -0.020 C 
ATOM     18  C   UNL     1      -2.269   1.861   0.716  0.00  0.00    -0.020 C 
ATOM     19  C   UNL     1      -2.228   1.470  -0.776  0.00  0.00    -0.077 C 
ATOM     20  N   UNL     1      -0.808   1.597  -1.124  0.00  0.00    +0.389 N 
ATOM     21  H   UNL     1      -0.571   2.584  -1.281  0.00  0.00    -0.080 HD
ENDBRANCH   1  20
BRANCH   1  22
ATOM     22  C   UNL     1      -1.376   1.283  -3.498  0.00  0.00    +0.143 A 
ATOM     23  N   UNL     1      -2.600   0.892  -3.755  0.00  0.00    -0.115 NA
ATOM     24  N   UNL     1      -3.007   1.520  -4.804  0.00  0.00    -0.023 NA
ATOM     25  N   UNL     1      -2.074   2.302  -5.223  0.00  0.00    -0.043 NA
ATOM     26  N   UNL     1      -1.054   2.189  -4.441  0.00  0.00    -0.225 N 
BRANCH  26  27
ATOM     27  C   UNL     1       0.217   2.907  -4.559  0.00  0.00    +0.059 C 
ATOM     28  C   UNL     1       1.339   1.913  -4.865  0.00  0.00    +0.036 C 
ATOM     29  C   UNL     1       0.120   3.932  -5.691  0.00  0.00    +0.036 C 
ATOM     30  C   UNL     1       0.519   3.628  -3.244  0.00  0.00    +0.036 C 
ENDBRANCH  26  27
ENDBRANCH   1  22
TORSDOF 5
