REMARK  Name = ZINC65406094
REMARK  11 active torsions:
REMARK  status: ('A' for Active; 'I' for Inactive)
REMARK    1  A    between atoms: C_1  and  C_2
REMARK    2  A    between atoms: C_2  and  C_3
REMARK    3  A    between atoms: C_2  and  C_4
REMARK    4  A    between atoms: C_2  and  O_5
REMARK    5  A    between atoms: O_5  and  C_6
REMARK    6  A    between atoms: N_8  and  C_9
REMARK    7  A    between atoms: C_9  and  C_10
REMARK    8  A    between atoms: C_10  and  N_11
REMARK    9  A    between atoms: C_12  and  C_14
REMARK   10  A    between atoms: N_22  and  C_23
REMARK   11  A    between atoms: N_22  and  C_24
REMARK                            x       y       z     vdW  Elec       q    Type
REMARK                         _______ _______ _______ _____ _____    ______ ____
ROOT
ATOM      1  N   UNL     1       6.439   0.835  -3.172  0.00  0.00    -0.314 N 
ATOM      2  C   UNL     1       6.568   0.690  -4.505  0.00  0.00    +0.216 C 
ATOM      3  O   UNL     1       5.591   0.759  -5.221  0.00  0.00    -0.276 OA
ATOM      4  H   UNL     1       7.220   0.780  -2.600  0.00  0.00    +0.149 HD
ENDROOT
BRANCH   2   5
ATOM      5  C   UNL     1       7.927   0.442  -5.108  0.00  0.00    +0.078 C 
ATOM      6  C   UNL     1       8.855   1.611  -4.770  0.00  0.00    +0.032 C 
ATOM      7  C   UNL     1      10.245   1.339  -5.355  0.00  0.00    +0.110 C 
ATOM      8  N   UNL     1      10.109   1.073  -6.793  0.00  0.00    -0.285 N 
ATOM      9  C   UNL     1       9.173   0.029  -7.233  0.00  0.00    +0.110 C 
ATOM     10  C   UNL     1       7.795   0.316  -6.628  0.00  0.00    +0.032 C 
ATOM     11  C   UNL     1      10.829   1.773  -7.692  0.00  0.00    +0.304 C 
ATOM     12  O   UNL     1      10.946   2.977  -7.572  0.00  0.00    -0.252 OA
ATOM     13  N   UNL     1      11.420   1.137  -8.724  0.00  0.00    -0.292 N 
ATOM     14  C   UNL     1      12.150   1.905  -9.735  0.00  0.00    +0.133 C 
ATOM     15  C   UNL     1      11.331  -0.321  -8.834  0.00  0.00    +0.133 C 
ENDBRANCH   2   5
BRANCH   1  16
ATOM     16  C   UNL     1       5.118   1.076  -2.586  0.00  0.00    +0.123 C 
BRANCH  16  17
ATOM     17  C   UNL     1       5.249   1.203  -1.067  0.00  0.00    +0.126 C 
BRANCH  17  20
ATOM     18  C   UNL     1       3.798   1.589   0.853  0.00  0.00    +0.401 C 
ATOM     19  O   UNL     1       4.777   1.520   1.569  0.00  0.00    -0.226 OA
ATOM     20  N   UNL     1       3.928   1.444  -0.481  0.00  0.00    -0.280 N 
ATOM     21  H   UNL     1       3.146   1.499  -1.053  0.00  0.00    +0.152 HD
BRANCH  18  22
ATOM     22  O   UNL     1       2.584   1.811   1.391  0.00  0.00    -0.445 OA
BRANCH  22  24
ATOM     23  C   UNL     1       3.385   3.142   3.242  0.00  0.00    +0.055 C 
ATOM     24  C   UNL     1       2.521   1.955   2.811  0.00  0.00    +0.107 C 
ATOM     25  C   UNL     1       3.039   0.679   3.477  0.00  0.00    +0.055 C 
ATOM     26  C   UNL     1       1.071   2.199   3.235  0.00  0.00    +0.055 C 
ENDBRANCH  22  24
ENDBRANCH  18  22
ENDBRANCH  17  20
ENDBRANCH  16  17
ENDBRANCH   1  16
TORSDOF 6
