REMARK  Name = ZINC21006167
REMARK  9 active torsions:
REMARK  status: ('A' for Active; 'I' for Inactive)
REMARK    1  A    between atoms: C_1  and  C_2
REMARK    2  A    between atoms: C_5  and  N_9
REMARK    3  A    between atoms: C_6  and  C_8
REMARK    4  A    between atoms: C_10  and  C_12
REMARK    5  A    between atoms: C_13  and  C_31
REMARK    6  A    between atoms: C_16  and  C_22
REMARK    7  A    between atoms: C_17  and  C_19
REMARK    8  A    between atoms: C_19  and  O_20
REMARK    9  A    between atoms: O_20  and  C_21
REMARK                            x       y       z     vdW  Elec       q    Type
REMARK                         _______ _______ _______ _____ _____    ______ ____
ROOT
ATOM      1  C   UNL     1       1.418  -0.694  -0.326  0.00  0.00    +0.169 A 
ATOM      2  C   UNL     1       2.460   0.182  -0.098  0.00  0.00    +0.074 A 
ATOM      3  N   UNL     1       2.166   1.490   0.146  0.00  0.00    -0.214 N 
ATOM      4  C   UNL     1       0.849   1.883   0.157  0.00  0.00    +0.186 A 
ATOM      5  C   UNL     1       0.841   3.254   0.428  0.00  0.00    +0.053 A 
ATOM      6  C   UNL     1       2.174   3.655   0.577  0.00  0.00    +0.099 A 
ATOM      7  N   UNL     1       2.953   2.614   0.410  0.00  0.00    -0.167 NA
ATOM      8  N   UNL     1      -0.120   0.990  -0.071  0.00  0.00    -0.128 NA
ATOM      9  N   UNL     1       0.150  -0.246  -0.303  0.00  0.00    -0.141 NA
ATOM     10  C   UNL     1       3.889  -0.296  -0.120  0.00  0.00    +0.068 C 
ENDROOT
BRANCH   5  11
ATOM     11  C   UNL     1      -0.355   4.121   0.539  0.00  0.00    -0.012 A 
ATOM     12  C   UNL     1      -0.562   5.149  -0.381  0.00  0.00    +0.010 A 
ATOM     13  C   UNL     1      -1.681   5.949  -0.276  0.00  0.00    +0.020 A 
ATOM     14  C   UNL     1      -2.591   5.742   0.746  0.00  0.00    +0.041 A 
ATOM     15  C   UNL     1      -2.387   4.727   1.666  0.00  0.00    +0.020 A 
ATOM     16  C   UNL     1      -1.275   3.916   1.567  0.00  0.00    +0.010 A 
ATOM     17 CL   UNL     1      -3.993   6.758   0.876  0.00  0.00    -0.084 Cl
ENDBRANCH   5  11
BRANCH   1  19
ATOM     18  N   UNL     1       0.676  -2.995  -0.700  0.00  0.00    -0.280 N 
ATOM     19  C   UNL     1       1.695  -2.119  -0.594  0.00  0.00    +0.270 C 
ATOM     20  O   UNL     1       2.842  -2.502  -0.720  0.00  0.00    -0.268 OA
ATOM     21  H   UNL     1      -0.363  -2.637  -0.660  0.00  0.00    +0.155 HD
BRANCH  18  26
ATOM     22  C   UNL     1       1.749  -8.527  -1.349  0.00  0.00    +0.044 C 
ATOM     23  C   UNL     1       1.464  -7.057  -1.177  0.00  0.00    -0.050 A 
ATOM     24  C   UNL     1       2.317  -6.119  -1.730  0.00  0.00    +0.005 A 
ATOM     25  C   UNL     1       2.058  -4.772  -1.573  0.00  0.00    +0.024 A 
ATOM     26  C   UNL     1       0.940  -4.359  -0.860  0.00  0.00    +0.037 A 
ATOM     27  C   UNL     1       0.088  -5.303  -0.302  0.00  0.00    -0.029 A 
ATOM     28  C   UNL     1       0.350  -6.649  -0.467  0.00  0.00    +0.008 A 
ATOM     29  C   UNL     1      -1.123  -4.859   0.477  0.00  0.00    +0.045 C 
ENDBRANCH  18  26
ENDBRANCH   1  19
BRANCH   6  30
ATOM     30  C   UNL     1       2.638   5.057   0.879  0.00  0.00    +0.217 C 
BRANCH  30  31
ATOM     31  O   UNL     1       2.717   5.239   2.294  0.00  0.00    -0.377 OA
ATOM     32  C   UNL     1       3.150   6.542   2.690  0.00  0.00    +0.194 C 
ENDBRANCH  30  31
ENDBRANCH   6  30
TORSDOF 5
