REMARK  Name = ZINC64640342
REMARK  6 active torsions:
REMARK  status: ('A' for Active; 'I' for Inactive)
REMARK    1  A    between atoms: C_2  and  C_3
REMARK    2  A    between atoms: C_3  and  N_4
REMARK    3  A    between atoms: C_5  and  C_7
REMARK    4  A    between atoms: N_9  and  C_31
REMARK    5  A    between atoms: C_11  and  C_14
REMARK    6  A    between atoms: C_19  and  C_22
REMARK                            x       y       z     vdW  Elec       q    Type
REMARK                         _______ _______ _______ _____ _____    ______ ____
ROOT
ATOM      1  C   UNL     1       2.498  -3.406   2.475  0.00  0.00    +0.184 C 
ATOM      2  C   UNL     1       3.823  -4.107   2.462  0.00  0.00    +0.074 C 
ATOM      3  N   UNL     1       3.991  -5.276   2.011  0.00  0.00    -0.371 N 
ATOM      4  C   UNL     1       2.934  -6.097   1.443  0.00  0.00    +0.160 C 
ATOM      5  C   UNL     1       1.577  -5.627   1.874  0.00  0.00    +0.077 C 
ATOM      6  C   UNL     1       1.373  -4.393   2.347  0.00  0.00    +0.183 C 
ATOM      7  O   UNL     1       0.129  -4.027   2.717  0.00  0.00    -0.291 OA
ENDROOT
BRANCH   5   8
ATOM      8  C   UNL     1       0.477  -6.517   1.776  0.00  0.00    +0.248 C 
ATOM      9  O   UNL     1       0.352  -7.420   2.583  0.00  0.00    -0.270 OA
ATOM     10  N   UNL     1      -0.429  -6.362   0.791  0.00  0.00    -0.298 N 
ATOM     11  C   UNL     1      -0.228  -5.355  -0.260  0.00  0.00    +0.108 C 
ATOM     12  C   UNL     1      -0.334  -6.040  -1.626  0.00  0.00    +0.026 C 
ATOM     13  C   UNL     1      -1.667  -6.786  -1.717  0.00  0.00    +0.035 C 
ATOM     14  C   UNL     1      -1.727  -7.862  -0.631  0.00  0.00    +0.026 C 
ATOM     15  C   UNL     1      -1.634  -7.202   0.743  0.00  0.00    +0.108 C 
BRANCH  13  16
ATOM     16  C   UNL     1      -1.792  -7.442  -3.093  0.00  0.00    +0.177 C 
ATOM     17  N   UNL     1      -1.811  -6.415  -4.142  0.00  0.00    -0.363 N 
ATOM     18  C   UNL     1      -2.946  -6.521  -4.771  0.00  0.00    +0.060 A 
ATOM     19  C   UNL     1      -3.536  -5.784  -5.897  0.00  0.00    +0.027 A 
ATOM     20  C   UNL     1      -4.760  -6.125  -6.347  0.00  0.00    +0.002 A 
ATOM     21  C   UNL     1      -5.512  -7.170  -5.780  0.00  0.00    +0.002 A 
ATOM     22  C   UNL     1      -5.065  -7.908  -4.744  0.00  0.00    +0.027 A 
ATOM     23  C   UNL     1      -3.741  -7.627  -4.171  0.00  0.00    +0.060 A 
ATOM     24  N   UNL     1      -3.068  -8.162  -3.195  0.00  0.00    -0.363 N 
ATOM     25  H   UNL     1      -1.107  -5.775  -4.331  0.00  0.00    +0.162 HD
ATOM     26  H   UNL     1      -3.356  -8.901  -2.636  0.00  0.00    +0.162 HD
ENDBRANCH  13  16
ENDBRANCH   5   8
BRANCH   3  27
ATOM     27  C   UNL     1       5.342  -5.841   2.063  0.00  0.00    +0.082 C 
ATOM     28  C   UNL     1       5.801  -6.247   0.648  0.00  0.00    +0.025 C 
ATOM     29  C   UNL     1       6.609  -7.549   0.869  0.00  0.00    +0.002 C 
ATOM     30  C   UNL     1       5.804  -8.266   1.981  0.00  0.00    +0.002 C 
ATOM     31  C   UNL     1       5.344  -7.125   2.911  0.00  0.00    +0.025 C 
ENDBRANCH   3  27
BRANCH   1  33
ATOM     32  N   UNL     1       1.346  -1.667   1.145  0.00  0.00    -0.311 N 
ATOM     33  C   UNL     1       2.439  -2.435   1.324  0.00  0.00    +0.229 C 
ATOM     34  O   UNL     1       3.375  -2.345   0.558  0.00  0.00    -0.275 OA
ATOM     35  H   UNL     1       0.597  -1.739   1.757  0.00  0.00    +0.149 HD
BRANCH  32  36
ATOM     36  C   UNL     1       1.289  -0.723   0.026  0.00  0.00    +0.131 C 
BRANCH  36  38
ATOM     37  C   UNL     1      -0.052   1.317   0.069  0.00  0.00    +0.005 C 
ATOM     38  C   UNL     1      -0.029   0.007   0.052  0.00  0.00    -0.016 C 
ENDBRANCH  36  38
ENDBRANCH  32  36
ENDBRANCH   1  33
TORSDOF 6
