REMARK  Name = ZINC63375413
REMARK  9 active torsions:
REMARK  status: ('A' for Active; 'I' for Inactive)
REMARK    1  A    between atoms: C_1  and  C_2
REMARK    2  A    between atoms: C_2  and  C_3
REMARK    3  A    between atoms: C_3  and  C_5
REMARK    4  A    between atoms: C_3  and  N_6
REMARK    5  A    between atoms: C_7  and  C_9
REMARK    6  A    between atoms: C_12  and  N_15
REMARK    7  A    between atoms: C_31  and  C_36
REMARK    8  A    between atoms: C_40  and  O_42
REMARK    9  A    between atoms: O_42  and  C_43
REMARK                            x       y       z     vdW  Elec       q    Type
REMARK                         _______ _______ _______ _____ _____    ______ ____
ROOT
ATOM      1  N   UNL     1      -6.067   1.244  -6.110  0.00  0.00    -0.193 N 
ATOM      2  C   UNL     1      -7.405   1.315  -6.267  0.00  0.00    +0.248 C 
ATOM      3  O   UNL     1      -8.255   0.990  -5.467  0.00  0.00    -0.273 OA
ATOM      4  C   UNL     1      -7.623   1.885  -7.652  0.00  0.00    +0.169 C 
ATOM      5  C   UNL     1      -8.447   0.901  -8.502  0.00  0.00    +0.065 C 
ATOM      6  C   UNL     1      -8.127   1.214  -9.944  0.00  0.00    -0.034 C 
ATOM      7  C   UNL     1      -8.927   1.499 -10.966  0.00  0.00    -0.001 A 
ATOM      8  C   UNL     1     -10.394   1.516 -11.085  0.00  0.00    +0.010 A 
ATOM      9  C   UNL     1     -10.893   1.879 -12.296  0.00  0.00    +0.001 A 
ATOM     10  C   UNL     1     -10.090   2.223 -13.387  0.00  0.00    +0.002 A 
ATOM     11  C   UNL     1      -8.733   2.226 -13.370  0.00  0.00    +0.026 A 
ATOM     12  C   UNL     1      -8.091   1.855 -12.153  0.00  0.00    +0.043 A 
ATOM     13  N   UNL     1      -6.828   1.755 -11.864  0.00  0.00    -0.375 N 
ATOM     14  C   UNL     1      -6.705   1.274 -10.487  0.00  0.00    +0.131 C 
ATOM     15  C   UNL     1      -5.932   2.268  -9.608  0.00  0.00    +0.135 C 
ATOM     16  N   UNL     1      -6.256   1.967  -8.204  0.00  0.00    -0.264 N 
ATOM     17  C   UNL     1      -5.417   1.653  -7.209  0.00  0.00    +0.317 C 
ATOM     18  O   UNL     1      -4.207   1.727  -7.293  0.00  0.00    -0.252 OA
ATOM     19  H   UNL     1      -6.092   1.964 -12.460  0.00  0.00    +0.160 HD
ENDROOT
BRANCH   1  23
ATOM     20  C   UNL     1      -4.185  -0.068  -2.629  0.00  0.00    +0.037 A 
ATOM     21  C   UNL     1      -3.429   0.219  -3.768  0.00  0.00    +0.015 A 
ATOM     22  C   UNL     1      -4.054   0.652  -4.916  0.00  0.00    +0.025 A 
ATOM     23  C   UNL     1      -5.436   0.804  -4.943  0.00  0.00    +0.045 A 
ATOM     24  C   UNL     1      -6.192   0.521  -3.810  0.00  0.00    +0.025 A 
ATOM     25  C   UNL     1      -5.574   0.082  -2.660  0.00  0.00    +0.015 A 
BRANCH  20  27
ATOM     26  N   UNL     1      -2.179  -0.676  -1.367  0.00  0.00    -0.309 N 
ATOM     27  C   UNL     1      -3.519  -0.533  -1.396  0.00  0.00    +0.244 C 
ATOM     28  O   UNL     1      -4.179  -0.786  -0.407  0.00  0.00    -0.270 OA
ATOM     29  H   UNL     1      -1.653  -0.474  -2.157  0.00  0.00    +0.149 HD
BRANCH  26  30
ATOM     30  C   UNL     1      -1.518  -1.138  -0.144  0.00  0.00    +0.070 C 
ATOM     31  C   UNL     1      -1.536  -2.667  -0.101  0.00  0.00    +0.028 C 
BRANCH  30  33
ATOM     32  C   UNL     1      -0.053   0.884  -0.048  0.00  0.00    +0.005 C 
ATOM     33  C   UNL     1      -0.070  -0.644  -0.130  0.00  0.00    +0.018 C 
ENDBRANCH  30  33
ENDBRANCH  26  30
ENDBRANCH  20  27
ENDBRANCH   1  23
BRANCH  15  34
ATOM     34  C   UNL     1      -4.451   2.118  -9.841  0.00  0.00    -0.021 A 
ATOM     35  C   UNL     1      -3.838   0.897  -9.626  0.00  0.00    +0.006 A 
ATOM     36  C   UNL     1      -2.480   0.756  -9.838  0.00  0.00    +0.004 A 
ATOM     37  C   UNL     1      -1.730   1.835 -10.265  0.00  0.00    +0.045 A 
ATOM     38  C   UNL     1      -2.342   3.061 -10.482  0.00  0.00    +0.120 A 
ATOM     39  C   UNL     1      -3.708   3.199 -10.274  0.00  0.00    +0.051 A 
BRANCH  38  40
ATOM     40  O   UNL     1      -1.608   4.125 -10.902  0.00  0.00    -0.495 OA
ATOM     41  C   UNL     1      -0.209   3.909 -11.101  0.00  0.00    +0.277 C 
ENDBRANCH  38  40
ENDBRANCH  15  34
TORSDOF 6
