REMARK  Name = ZINC33369009
REMARK  7 active torsions:
REMARK  status: ('A' for Active; 'I' for Inactive)
REMARK    1  A    between atoms: C_1  and  O_2
REMARK    2  A    between atoms: O_2  and  C_3
REMARK    3  A    between atoms: C_6  and  C_9
REMARK    4  A    between atoms: C_9  and  C_10
REMARK    5  A    between atoms: C_10  and  N_11
REMARK    6  A    between atoms: C_15  and  C_16
REMARK    7  A    between atoms: C_17  and  N_27
REMARK                            x       y       z     vdW  Elec       q    Type
REMARK                         _______ _______ _______ _____ _____    ______ ____
ROOT
ATOM      1  N   UNL     1      -1.629  -0.345   0.096  0.00  0.00    -0.255 N 
ATOM      2  C   UNL     1      -2.228  -0.528  -1.068  0.00  0.00    +0.258 C 
ATOM      3  O   UNL     1      -1.763  -0.059  -2.092  0.00  0.00    -0.269 OA
ATOM      4  C   UNL     1      -3.431  -1.290  -1.091  0.00  0.00    +0.077 C 
ATOM      5  C   UNL     1      -4.230  -1.619  -2.148  0.00  0.00    +0.037 C 
ATOM      6  S   UNL     1      -3.610  -1.698   0.640  0.00  0.00    -0.061 S 
ATOM      7  C   UNL     1      -2.141  -0.871   1.231  0.00  0.00    +0.121 C 
ATOM      8  S   UNL     1      -1.536  -0.768   2.830  0.00  0.00    -0.027 S 
ENDROOT
BRANCH   5   9
ATOM      9  C   UNL     1      -3.823  -1.307  -3.466  0.00  0.00    +0.081 A 
ATOM     10  C   UNL     1      -2.589  -1.778  -3.974  0.00  0.00    +0.136 A 
ATOM     11  N   UNL     1      -2.235  -1.473  -5.214  0.00  0.00    -0.214 NA
ATOM     12  C   UNL     1      -3.009  -0.724  -5.999  0.00  0.00    +0.142 A 
ATOM     13  C   UNL     1      -2.579  -0.430  -7.306  0.00  0.00    +0.047 A 
ATOM     14  C   UNL     1      -3.364   0.336  -8.116  0.00  0.00    +0.005 A 
ATOM     15  C   UNL     1      -4.589   0.819  -7.636  0.00  0.00    +0.018 A 
ATOM     16  C   UNL     1      -4.986   0.527  -6.377  0.00  0.00    +0.096 A 
ATOM     17  N   UNL     1      -4.209  -0.238  -5.559  0.00  0.00    -0.268 N 
ATOM     18  C   UNL     1      -4.636  -0.512  -4.308  0.00  0.00    +0.267 A 
ATOM     19  O   UNL     1      -5.705  -0.081  -3.910  0.00  0.00    -0.267 OA
BRANCH  10  20
ATOM     20  N   UNL     1      -1.764  -2.550  -3.187  0.00  0.00    -0.315 N 
ATOM     21  C   UNL     1      -2.446  -3.801  -2.767  0.00  0.00    +0.106 C 
ATOM     22  C   UNL     1      -1.271  -4.734  -2.380  0.00  0.00    +0.020 C 
ATOM     23  C   UNL     1      -0.194  -4.386  -3.433  0.00  0.00    +0.020 C 
ATOM     24  C   UNL     1      -0.564  -2.979  -3.938  0.00  0.00    +0.106 C 
ENDBRANCH  10  20
ENDBRANCH   5   9
BRANCH   1  25
ATOM     25  C   UNL     1      -0.389   0.433   0.156  0.00  0.00    +0.119 C 
BRANCH  25  26
ATOM     26  C   UNL     1      -0.724   1.909   0.382  0.00  0.00    +0.054 C 
BRANCH  26  30
ATOM     27  C   UNL     1       2.892   4.180   0.556  0.00  0.00    +0.120 A 
ATOM     28  C   UNL     1       2.255   3.981  -0.660  0.00  0.00    +0.046 A 
ATOM     29  C   UNL     1       1.086   3.246  -0.714  0.00  0.00    +0.007 A 
ATOM     30  C   UNL     1       0.551   2.710   0.443  0.00  0.00    -0.046 A 
ATOM     31  C   UNL     1       1.182   2.911   1.657  0.00  0.00    +0.007 A 
ATOM     32  C   UNL     1       2.354   3.640   1.715  0.00  0.00    +0.046 A 
BRANCH  27  34
ATOM     33  C   UNL     1       4.644   5.065   1.897  0.00  0.00    +0.277 C 
ATOM     34  O   UNL     1       4.042   4.901   0.611  0.00  0.00    -0.495 OA
ENDBRANCH  27  34
ENDBRANCH  26  30
ENDBRANCH  25  26
ENDBRANCH   1  25
TORSDOF 6
