REMARK  Name = ZINC13057437
REMARK  11 active torsions:
REMARK  status: ('A' for Active; 'I' for Inactive)
REMARK    1  A    between atoms: C_1  and  C_2
REMARK    2  A    between atoms: C_6  and  N_9
REMARK    3  A    between atoms: C_7  and  C_8
REMARK    4  A    between atoms: C_10  and  C_12
REMARK    5  A    between atoms: C_12  and  N_53
REMARK    6  A    between atoms: C_13  and  N_53
REMARK    7  A    between atoms: C_14  and  C_15
REMARK    8  A    between atoms: C_14  and  N_53
REMARK    9  A    between atoms: N_17  and  C_18
REMARK   10  A    between atoms: C_19  and  C_26
REMARK   11  A    between atoms: C_21  and  C_25
REMARK                            x       y       z     vdW  Elec       q    Type
REMARK                         _______ _______ _______ _____ _____    ______ ____
ROOT
ATOM      1  C   UNL     1      -3.376   2.913   0.554  0.00  0.00    -0.095 C 
ATOM      2  N   UNL     1      -1.982   2.470   0.769  0.00  0.00    +0.389 N 
ATOM      3  H   UNL     1      -1.967   1.764   1.514  0.00  0.00    -0.081 HD
ENDROOT
BRANCH   2   4
ATOM      4  C   UNL     1      -1.446   1.871  -0.471  0.00  0.00    +0.019 C 
BRANCH   4   6
ATOM      5  N   UNL     1      -1.851  -0.163  -1.819  0.00  0.00    -0.287 N 
ATOM      6  C   UNL     1      -2.177   0.582  -0.744  0.00  0.00    +0.201 C 
ATOM      7  O   UNL     1      -3.058   0.215   0.004  0.00  0.00    -0.278 OA
ATOM      8  H   UNL     1      -1.203   0.168  -2.460  0.00  0.00    +0.155 HD
BRANCH   5  14
ATOM      9  C   UNL     1      -3.229  -3.775  -4.857  0.00  0.00    +0.044 C 
ATOM     10  C   UNL     1      -3.130  -3.188  -3.472  0.00  0.00    -0.046 A 
ATOM     11  C   UNL     1      -3.629  -3.887  -2.389  0.00  0.00    +0.004 A 
ATOM     12  C   UNL     1      -3.540  -3.353  -1.117  0.00  0.00    +0.002 A 
ATOM     13  C   UNL     1      -2.951  -2.118  -0.924  0.00  0.00    +0.023 A 
ATOM     14  C   UNL     1      -2.449  -1.414  -2.010  0.00  0.00    +0.036 A 
ATOM     15  C   UNL     1      -2.545  -1.951  -3.288  0.00  0.00    -0.026 A 
ATOM     16  C   UNL     1      -2.007  -1.187  -4.470  0.00  0.00    +0.046 C 
ENDBRANCH   5  14
ENDBRANCH   4   6
ENDBRANCH   2   4
BRANCH   2  17
ATOM     17  C   UNL     1      -1.145   3.618   1.178  0.00  0.00    +0.019 C 
BRANCH  17  18
ATOM     18  C   UNL     1      -1.577   4.069   2.550  0.00  0.00    +0.201 C 
ATOM     19  O   UNL     1      -2.492   3.507   3.113  0.00  0.00    -0.278 OA
ATOM     20  N   UNL     1      -0.946   5.098   3.150  0.00  0.00    -0.286 N 
ATOM     21  H   UNL     1      -0.249   5.581   2.679  0.00  0.00    +0.155 HD
BRANCH  20  22
ATOM     22  C   UNL     1      -1.298   5.470   4.453  0.00  0.00    +0.055 A 
ATOM     23  C   UNL     1      -1.425   6.812   4.784  0.00  0.00    -0.028 A 
ATOM     24  C   UNL     1      -1.772   7.176   6.070  0.00  0.00    +0.008 A 
ATOM     25  C   UNL     1      -1.993   6.205   7.029  0.00  0.00    -0.049 A 
ATOM     26  C   UNL     1      -1.867   4.867   6.705  0.00  0.00    +0.025 A 
ATOM     27  C   UNL     1      -1.525   4.495   5.418  0.00  0.00    +0.063 A 
ATOM     28 CL   UNL     1      -1.375   2.815   5.009  0.00  0.00    -0.082 Cl
ATOM     29  C   UNL     1      -2.371   6.606   8.432  0.00  0.00    +0.044 C 
ATOM     30  C   UNL     1      -1.183   7.872   3.739  0.00  0.00    +0.046 C 
ENDBRANCH  20  22
ENDBRANCH  17  18
ENDBRANCH   2  17
TORSDOF 6
