REMARK  Name = ZINC50673101
REMARK  6 active torsions:
REMARK  status: ('A' for Active; 'I' for Inactive)
REMARK    1  A    between atoms: C_3  and  N_22
REMARK    2  A    between atoms: C_4  and  S_10
REMARK    3  A    between atoms: C_6  and  N_7
REMARK    4  A    between atoms: S_10  and  N_13
REMARK    5  A    between atoms: N_13  and  C_14
REMARK    6  A    between atoms: C_14  and  C_15
REMARK                            x       y       z     vdW  Elec       q    Type
REMARK                         _______ _______ _______ _____ _____    ______ ____
ROOT
ATOM      1  C   UNL     1       0.194   1.818  -0.340  0.00  0.00    +0.034 A 
ATOM      2  C   UNL     1       0.418   0.825  -1.274  0.00  0.00    +0.027 A 
ATOM      3  C   UNL     1       1.551   0.027  -1.179  0.00  0.00    +0.051 A 
ATOM      4  C   UNL     1       2.455   0.231  -0.145  0.00  0.00    +0.128 A 
ATOM      5  C   UNL     1       2.225   1.226   0.785  0.00  0.00    +0.063 A 
ATOM      6  C   UNL     1       1.096   2.018   0.688  0.00  0.00    +0.128 A 
ENDROOT
BRANCH   6   7
ATOM      7  N   UNL     1       0.853   3.083   1.687  0.00  0.00    +0.056 N 
ATOM      8  O   UNL     1      -0.134   3.776   1.603  0.00  0.00    -0.126 OA
ATOM      9  O   UNL     1       1.641   3.259   2.587  0.00  0.00    -0.126 OA
ENDBRANCH   6   7
BRANCH   4  10
ATOM     10  S   UNL     1       3.894  -0.778  -0.019  0.00  0.00    +0.060 S 
ATOM     11  O   UNL     1       4.631  -0.298   1.097  0.00  0.00    -0.153 OA
ATOM     12  O   UNL     1       3.455  -2.126  -0.120  0.00  0.00    -0.153 OA
BRANCH  10  13
ATOM     13  N   UNL     1       4.820  -0.480  -1.360  0.00  0.00    -0.190 NA
ATOM     14  H   UNL     1       4.976  -1.185  -2.007  0.00  0.00    +0.148 HD
BRANCH  13  15
ATOM     15  C   UNL     1       5.402   0.848  -1.567  0.00  0.00    +0.111 C 
BRANCH  15  16
ATOM     16  C   UNL     1       6.498   0.764  -2.631  0.00  0.00    +0.030 C 
ATOM     17  C   UNL     1       7.024   2.170  -2.937  0.00  0.00    +0.009 C 
ATOM     18  C   UNL     1       8.173   2.065  -3.945  0.00  0.00    +0.028 C 
ATOM     19  C   UNL     1       9.260   1.150  -3.374  0.00  0.00    +0.160 C 
ATOM     20  O   UNL     1       8.697  -0.131  -3.083  0.00  0.00    -0.379 OA
ATOM     21  C   UNL     1       7.649  -0.102  -2.112  0.00  0.00    +0.164 C 
ENDBRANCH  15  16
ENDBRANCH  13  15
ENDBRANCH  10  13
ENDBRANCH   4  10
BRANCH   3  22
ATOM     22  N   UNL     1       1.780  -0.978  -2.122  0.00  0.00    -0.356 N 
ATOM     23  H   UNL     1       1.106  -1.180  -2.789  0.00  0.00    +0.142 HD
ATOM     24  H   UNL     1       2.614  -1.473  -2.109  0.00  0.00    +0.142 HD
ENDBRANCH   3  22
TORSDOF 6
