REMARK  Name = ZINC10757002
REMARK  7 active torsions:
REMARK  status: ('A' for Active; 'I' for Inactive)
REMARK    1  A    between atoms: C_1  and  C_2
REMARK    2  A    between atoms: N_11  and  C_15
REMARK    3  A    between atoms: C_15  and  C_16
REMARK    4  A    between atoms: C_16  and  O_18
REMARK    5  A    between atoms: O_18  and  C_19
REMARK    6  A    between atoms: C_19  and  C_20
REMARK    7  A    between atoms: N_22  and  C_23
REMARK                            x       y       z     vdW  Elec       q    Type
REMARK                         _______ _______ _______ _____ _____    ______ ____
ROOT
ATOM      1  C   UNL     1       7.080   2.004  -1.158  0.00  0.00    +0.326 C 
ATOM      2  O   UNL     1       7.269   0.833  -0.931  0.00  0.00    -0.249 OA
ENDROOT
BRANCH   1   3
ATOM      3  C   UNL     1       8.219   2.874  -1.624  0.00  0.00    +0.238 C 
BRANCH   3  13
ATOM      4  C   UNL     1      12.632   3.048  -2.013  0.00  0.00    +0.010 C 
ATOM      5  C   UNL     1      12.748   1.729  -1.246  0.00  0.00    +0.018 C 
ATOM      6  C   UNL     1      13.153   2.015   0.202  0.00  0.00    +0.006 C 
ATOM      7  C   UNL     1      13.248   0.697   0.973  0.00  0.00    +0.000 C 
ATOM      8  C   UNL     1      11.887  -0.002   0.963  0.00  0.00    +0.003 C 
ATOM      9  C   UNL     1      11.477  -0.296  -0.483  0.00  0.00    +0.035 C 
ATOM     10  C   UNL     1      11.404   1.009  -1.269  0.00  0.00    +0.115 C 
ATOM     11  C   UNL     1      10.321   1.904  -0.714  0.00  0.00    +0.247 C 
ATOM     12  O   UNL     1      10.256   2.372   0.403  0.00  0.00    -0.273 OA
ATOM     13  N   UNL     1       9.439   2.071  -1.722  0.00  0.00    -0.213 N 
ATOM     14  C   UNL     1       9.822   1.415  -2.824  0.00  0.00    +0.310 C 
ATOM     15  O   UNL     1       9.193   1.417  -3.864  0.00  0.00    -0.252 OA
ATOM     16  N   UNL     1      10.982   0.752  -2.652  0.00  0.00    -0.285 N 
ATOM     17  H   UNL     1      11.446   0.213  -3.311  0.00  0.00    +0.151 HD
ENDBRANCH   3  13
ENDBRANCH   1   3
BRANCH   1  18
ATOM     18  O   UNL     1       5.856   2.530  -0.995  0.00  0.00    -0.454 OA
BRANCH  18  19
ATOM     19  C   UNL     1       4.808   1.633  -0.543  0.00  0.00    +0.328 C 
BRANCH  19  20
ATOM     20  C   UNL     1       3.513   2.395  -0.418  0.00  0.00    +0.255 C 
ATOM     21  O   UNL     1       3.478   3.578  -0.684  0.00  0.00    -0.272 OA
ATOM     22  N   UNL     1       2.395   1.762  -0.012  0.00  0.00    -0.280 N 
ATOM     23  H   UNL     1       2.438   0.835   0.269  0.00  0.00    +0.155 HD
BRANCH  22  24
ATOM     24  C   UNL     1       1.172   2.444   0.005  0.00  0.00    +0.071 A 
ATOM     25  C   UNL     1       0.361   2.448  -1.123  0.00  0.00    +0.064 A 
ATOM     26  C   UNL     1      -0.846   3.121  -1.102  0.00  0.00    +0.022 A 
ATOM     27  C   UNL     1      -1.247   3.790   0.039  0.00  0.00    +0.003 A 
ATOM     28  C   UNL     1      -0.445   3.784   1.166  0.00  0.00    +0.022 A 
ATOM     29  C   UNL     1       0.766   3.118   1.151  0.00  0.00    +0.064 A 
ATOM     30 CL   UNL     1       1.775   3.116   2.563  0.00  0.00    -0.082 Cl
ATOM     31 CL   UNL     1       0.863   1.607  -2.557  0.00  0.00    -0.082 Cl
ENDBRANCH  22  24
ENDBRANCH  19  20
ENDBRANCH  18  19
ENDBRANCH   1  18
TORSDOF 6
