REMARK  Name = ZINC42380629
REMARK  11 active torsions:
REMARK  status: ('A' for Active; 'I' for Inactive)
REMARK    1  A    between atoms: C_1  and  C_2
REMARK    2  A    between atoms: C_2  and  C_3
REMARK    3  A    between atoms: C_3  and  C_5
REMARK    4  A    between atoms: C_3  and  N_6
REMARK    5  A    between atoms: C_7  and  C_9
REMARK    6  A    between atoms: C_9  and  C_11
REMARK    7  A    between atoms: C_9  and  S_12
REMARK    8  A    between atoms: S_12  and  C_13
REMARK    9  A    between atoms: C_14  and  C_21
REMARK   10  A    between atoms: C_15  and  N_20
REMARK   11  A    between atoms: C_17  and  N_19
REMARK                            x       y       z     vdW  Elec       q    Type
REMARK                         _______ _______ _______ _____ _____    ______ ____
ROOT
ATOM      1  C   UNL     1      -0.197   1.641  -7.389  0.00  0.00    +0.119 A 
ATOM      2  C   UNL     1       0.337   2.226  -8.551  0.00  0.00    +0.104 A 
ATOM      3  C   UNL     1      -0.547   2.654  -9.564  0.00  0.00    +0.048 A 
ATOM      4  C   UNL     1      -1.911   2.478  -9.365  0.00  0.00    +0.067 A 
ATOM      5  C   UNL     1      -2.358   1.892  -8.188  0.00  0.00    +0.119 A 
ATOM      6  N   UNL     1      -1.506   1.492  -7.253  0.00  0.00    -0.225 NA
ENDROOT
BRANCH   5   7
ATOM      7  N   UNL     1      -3.719   1.716  -7.989  0.00  0.00    -0.343 N 
ATOM      8  H   UNL     1      -4.349   2.002  -8.668  0.00  0.00    +0.144 HD
ATOM      9  H   UNL     1      -4.040   1.308  -7.170  0.00  0.00    +0.144 HD
ENDBRANCH   5   7
BRANCH   3  10
ATOM     10  N   UNL     1      -0.067   3.236 -10.727  0.00  0.00    -0.357 N 
ATOM     11  H   UNL     1       0.888   3.354 -10.853  0.00  0.00    +0.142 HD
ATOM     12  H   UNL     1      -0.686   3.526 -11.416  0.00  0.00    +0.142 HD
ENDBRANCH   3  10
BRANCH   2  13
ATOM     13  C   UNL     1       1.752   2.384  -8.704  0.00  0.00    +0.104 C 
ATOM     14  N   UNL     1       2.874   2.509  -8.825  0.00  0.00    -0.191 NA
ENDBRANCH   2  13
BRANCH   1  15
ATOM     15  S   UNL     1       0.883   1.097  -6.108  0.00  0.00    -0.092 S 
BRANCH  15  16
ATOM     16  C   UNL     1      -0.234   0.422  -4.849  0.00  0.00    +0.135 C 
ATOM     17  C   UNL     1      -0.952  -0.807  -5.410  0.00  0.00    +0.029 C 
BRANCH  16  19
ATOM     18  N   UNL     1      -0.055  -0.114  -2.441  0.00  0.00    -0.312 N 
ATOM     19  C   UNL     1       0.561   0.028  -3.631  0.00  0.00    +0.226 C 
ATOM     20  O   UNL     1       1.755  -0.162  -3.722  0.00  0.00    -0.275 OA
ATOM     21  H   UNL     1      -1.010   0.038  -2.368  0.00  0.00    +0.149 HD
BRANCH  18  22
ATOM     22  C   UNL     1       0.718  -0.497  -1.257  0.00  0.00    +0.070 C 
ATOM     23  C   UNL     1       0.849  -2.021  -1.205  0.00  0.00    +0.028 C 
BRANCH  22  25
ATOM     24  C   UNL     1      -0.019   1.526   0.010  0.00  0.00    +0.005 C 
ATOM     25  C   UNL     1       0.002  -0.004   0.002  0.00  0.00    +0.018 C 
ENDBRANCH  22  25
ENDBRANCH  18  22
ENDBRANCH  16  19
ENDBRANCH  15  16
ENDBRANCH   1  15
TORSDOF 8
