REMARK  Name = ZINC40003162
REMARK  10 active torsions:
REMARK  status: ('A' for Active; 'I' for Inactive)
REMARK    1  A    between atoms: C_1  and  C_2
REMARK    2  A    between atoms: C_2  and  S_3
REMARK    3  A    between atoms: S_3  and  C_4
REMARK    4  A    between atoms: C_10  and  C_29
REMARK    5  A    between atoms: C_12  and  C_17
REMARK    6  A    between atoms: C_17  and  C_19
REMARK    7  A    between atoms: C_22  and  O_25
REMARK    8  A    between atoms: O_25  and  C_26
REMARK    9  A    between atoms: C_26  and  C_27
REMARK   10  A    between atoms: C_32  and  O_35
REMARK                            x       y       z     vdW  Elec       q    Type
REMARK                         _______ _______ _______ _____ _____    ______ ____
ROOT
ATOM      1  C   UNL     1       1.149  -2.384   1.351  0.00  0.00    +0.160 A 
ATOM      2  N   UNL     1       0.476  -3.092   0.454  0.00  0.00    -0.133 NA
ATOM      3  N   UNL     1       0.446  -4.352   0.486  0.00  0.00    -0.125 NA
ATOM      4  C   UNL     1       1.084  -5.046   1.416  0.00  0.00    +0.192 A 
ATOM      5  S   UNL     1       1.820  -3.709   2.351  0.00  0.00    -0.024 S 
ATOM      6  N   UNL     1       1.163  -6.420   1.608  0.00  0.00    -0.230 N 
ATOM      7  C   UNL     1       0.529  -7.447   0.773  0.00  0.00    +0.152 C 
ATOM      8  C   UNL     1       0.906  -8.777   1.382  0.00  0.00    +0.077 C 
ATOM      9  C   UNL     1       1.681  -8.507   2.459  0.00  0.00    +0.250 C 
ATOM     10  C   UNL     1       1.840  -7.044   2.588  0.00  0.00    +0.293 C 
ATOM     11  O   UNL     1       2.485  -6.487   3.455  0.00  0.00    -0.266 OA
ATOM     12  O   UNL     1       2.228  -9.430   3.283  0.00  0.00    -0.282 OA
ENDROOT
BRANCH   7  13
ATOM     13  C   UNL     1      -0.968  -7.275   0.788  0.00  0.00    -0.022 A 
ATOM     14  C   UNL     1      -1.621  -7.014   1.978  0.00  0.00    +0.009 A 
ATOM     15  C   UNL     1      -2.994  -6.857   1.995  0.00  0.00    +0.046 A 
ATOM     16  C   UNL     1      -3.717  -6.959   0.815  0.00  0.00    +0.117 A 
ATOM     17  C   UNL     1      -3.059  -7.220  -0.378  0.00  0.00    +0.046 A 
ATOM     18  C   UNL     1      -1.686  -7.372  -0.390  0.00  0.00    +0.009 A 
BRANCH  16  19
ATOM     19  O   UNL     1      -5.067  -6.805   0.829  0.00  0.00    -0.507 OA
ATOM     20  H   UNL     1      -5.360  -5.893   0.698  0.00  0.00    +0.292 HD
ENDBRANCH  16  19
ENDBRANCH   7  13
BRANCH   8  21
ATOM     21  C   UNL     1       0.510 -10.103   0.901  0.00  0.00    +0.195 C 
ATOM     22  O   UNL     1      -0.218 -10.804   1.579  0.00  0.00    -0.287 OA
BRANCH  21  23
ATOM     23  C   UNL     1       0.994 -10.589  -0.407  0.00  0.00    +0.022 A 
ATOM     24  C   UNL     1       1.927  -9.841  -1.131  0.00  0.00    +0.015 A 
ATOM     25  C   UNL     1       2.376 -10.298  -2.349  0.00  0.00    +0.046 A 
ATOM     26  C   UNL     1       1.902 -11.501  -2.861  0.00  0.00    +0.121 A 
ATOM     27  C   UNL     1       0.973 -12.247  -2.144  0.00  0.00    +0.046 A 
ATOM     28  C   UNL     1       0.523 -11.800  -0.922  0.00  0.00    +0.015 A 
BRANCH  26  29
ATOM     29  O   UNL     1       2.347 -11.947  -4.062  0.00  0.00    -0.488 OA
BRANCH  29  30
ATOM     30  C   UNL     1       1.819 -13.190  -4.529  0.00  0.00    +0.256 C 
BRANCH  30  31
ATOM     31  C   UNL     1       2.423 -13.522  -5.868  0.00  0.00    +0.006 C 
ATOM     32  C   UNL     1       2.855 -14.736  -6.110  0.00  0.00    +0.007 C 
ENDBRANCH  30  31
ENDBRANCH  29  30
ENDBRANCH  26  29
ENDBRANCH  21  23
ENDBRANCH   8  21
BRANCH   1  33
ATOM     33  S   UNL     1       1.336  -0.639   1.508  0.00  0.00    -0.097 S 
BRANCH  33  35
ATOM     34  C   UNL     1       0.441   1.560   0.150  0.00  0.00    +0.016 C 
ATOM     35  C   UNL     1       0.364   0.032   0.131  0.00  0.00    +0.073 C 
ENDBRANCH  33  35
ENDBRANCH   1  33
TORSDOF 9
