REMARK  Name = ZINC64966437
REMARK  9 active torsions:
REMARK  status: ('A' for Active; 'I' for Inactive)
REMARK    1  A    between atoms: C_1  and  N_2
REMARK    2  A    between atoms: N_2  and  C_3
REMARK    3  A    between atoms: N_2  and  S_4
REMARK    4  A    between atoms: S_4  and  C_7
REMARK    5  A    between atoms: N_13  and  C_23
REMARK    6  A    between atoms: C_23  and  C_24
REMARK    7  A    between atoms: N_26  and  C_27
REMARK    8  A    between atoms: C_27  and  C_28
REMARK    9  A    between atoms: C_28  and  N_29
REMARK                            x       y       z     vdW  Elec       q    Type
REMARK                         _______ _______ _______ _____ _____    ______ ____
ROOT
ATOM      1  C   UNL     1      -1.884  -1.109  -1.669  0.00  0.00    +0.107 A 
ATOM      2  C   UNL     1      -2.674  -0.177  -2.316  0.00  0.00    +0.030 A 
ATOM      3  C   UNL     1      -3.039  -0.368  -3.637  0.00  0.00    +0.027 A 
ATOM      4  C   UNL     1      -2.611  -1.502  -4.310  0.00  0.00    +0.052 A 
ATOM      5  C   UNL     1      -1.823  -2.445  -3.657  0.00  0.00    +0.060 A 
ATOM      6  C   UNL     1      -1.452  -2.240  -2.337  0.00  0.00    +0.054 A 
ATOM      7  N   UNL     1      -1.421  -3.600  -4.338  0.00  0.00    -0.259 N 
ATOM      8  C   UNL     1      -1.556  -3.685  -5.671  0.00  0.00    +0.241 C 
ATOM      9  O   UNL     1      -1.185  -4.691  -6.236  0.00  0.00    -0.273 OA
ATOM     10  C   UNL     1      -2.156  -2.569  -6.487  0.00  0.00    +0.160 C 
ATOM     11  N   UNL     1      -2.968  -1.694  -5.659  0.00  0.00    -0.317 N 
ATOM     12  C   UNL     1      -4.128  -0.955  -6.155  0.00  0.00    +0.106 C 
ATOM     13  C   UNL     1      -4.881  -1.755  -7.213  0.00  0.00    +0.019 C 
ATOM     14  C   UNL     1      -3.879  -2.187  -8.290  0.00  0.00    +0.004 C 
ATOM     15  C   UNL     1      -2.898  -3.173  -7.668  0.00  0.00    +0.032 C 
ENDROOT
BRANCH   1  16
ATOM     16  S   UNL     1      -1.421  -0.852   0.011  0.00  0.00    +0.060 S 
ATOM     17  O   UNL     1      -1.127  -2.132   0.552  0.00  0.00    -0.153 OA
ATOM     18  O   UNL     1      -2.401   0.008   0.576  0.00  0.00    -0.153 OA
BRANCH  16  20
ATOM     19  C   UNL     1      -0.018   1.461   0.010  0.00  0.00    +0.131 C 
ATOM     20  N   UNL     1       0.002  -0.004   0.002  0.00  0.00    -0.183 NA
ATOM     21  C   UNL     1       1.281  -0.719  -0.014  0.00  0.00    +0.131 C 
ENDBRANCH  16  20
ENDBRANCH   1  16
BRANCH   7  22
ATOM     22  C   UNL     1      -0.850  -4.724  -3.592  0.00  0.00    +0.209 C 
BRANCH  22  23
ATOM     23  C   UNL     1      -1.953  -5.659  -3.169  0.00  0.00    +0.231 C 
ATOM     24  O   UNL     1      -3.103  -5.412  -3.463  0.00  0.00    -0.274 OA
ATOM     25  N   UNL     1      -1.661  -6.771  -2.465  0.00  0.00    -0.316 N 
ATOM     26  H   UNL     1      -0.741  -6.969  -2.231  0.00  0.00    +0.149 HD
BRANCH  25  27
ATOM     27  C   UNL     1      -2.734  -7.680  -2.055  0.00  0.00    +0.086 C 
BRANCH  27  28
ATOM     28  C   UNL     1      -2.137  -8.854  -1.275  0.00  0.00    -0.060 C 
BRANCH  28  29
ATOM     29  N   UNL     1      -3.213  -9.766  -0.863  0.00  0.00    +0.381 N 
ATOM     30  C   UNL     1      -3.790 -10.446  -2.051  0.00  0.00    -0.079 C 
ATOM     31  C   UNL     1      -4.449 -11.712  -1.448  0.00  0.00    -0.020 C 
ATOM     32  C   UNL     1      -3.456 -12.123  -0.337  0.00  0.00    -0.020 C 
ATOM     33  C   UNL     1      -2.669 -10.842  -0.007  0.00  0.00    -0.079 C 
ATOM     34  H   UNL     1      -3.930  -9.257  -0.369  0.00  0.00    -0.082 HD
ENDBRANCH  28  29
ENDBRANCH  27  28
ENDBRANCH  25  27
ENDBRANCH  22  23
ENDBRANCH   7  22
TORSDOF 7
