REMARK  Name = ZINC63873781
REMARK  11 active torsions:
REMARK  status: ('A' for Active; 'I' for Inactive)
REMARK    1  A    between atoms: C_1  and  C_2
REMARK    2  A    between atoms: C_2  and  N_3
REMARK    3  A    between atoms: N_3  and  C_4
REMARK    4  A    between atoms: N_3  and  S_6
REMARK    5  A    between atoms: C_4  and  C_5
REMARK    6  A    between atoms: S_6  and  C_9
REMARK    7  A    between atoms: C_12  and  N_15
REMARK    8  A    between atoms: C_16  and  C_18
REMARK    9  A    between atoms: C_18  and  S_19
REMARK   10  A    between atoms: S_19  and  C_20
REMARK   11  A    between atoms: C_23  and  C_25
REMARK                            x       y       z     vdW  Elec       q    Type
REMARK                         _______ _______ _______ _____ _____    ______ ____
ROOT
ATOM      1  N   UNL     1      -0.691   4.039  -5.829  0.00  0.00    -0.285 N 
ATOM      2  C   UNL     1       0.286   4.375  -6.694  0.00  0.00    +0.228 C 
ATOM      3  O   UNL     1       1.225   3.627  -6.869  0.00  0.00    -0.275 OA
ATOM      4  H   UNL     1      -1.479   4.599  -5.746  0.00  0.00    +0.155 HD
ENDROOT
BRANCH   1   8
ATOM      5  C   UNL     1      -0.329   0.596  -3.511  0.00  0.00    +0.106 A 
ATOM      6  C   UNL     1       0.798   1.325  -3.845  0.00  0.00    +0.030 A 
ATOM      7  C   UNL     1       0.681   2.467  -4.613  0.00  0.00    +0.025 A 
ATOM      8  C   UNL     1      -0.569   2.882  -5.051  0.00  0.00    +0.034 A 
ATOM      9  C   UNL     1      -1.699   2.148  -4.715  0.00  0.00    +0.025 A 
ATOM     10  C   UNL     1      -1.575   1.004  -3.950  0.00  0.00    +0.030 A 
BRANCH   5  11
ATOM     11  S   UNL     1      -0.175  -0.860  -2.531  0.00  0.00    +0.061 S 
ATOM     12  O   UNL     1      -1.435  -1.062  -1.905  0.00  0.00    -0.153 OA
ATOM     13  O   UNL     1       1.030  -0.726  -1.791  0.00  0.00    -0.153 OA
BRANCH  11  14
ATOM     14  N   UNL     1       0.046  -2.129  -3.571  0.00  0.00    -0.177 NA
BRANCH  14  16
ATOM     15  C   UNL     1       1.752  -1.845  -5.300  0.00  0.00    +0.022 C 
ATOM     16  C   UNL     1       1.400  -2.519  -3.973  0.00  0.00    +0.106 C 
ENDBRANCH  14  16
BRANCH  14  17
ATOM     17  C   UNL     1      -1.112  -2.862  -4.089  0.00  0.00    +0.106 C 
ATOM     18  C   UNL     1      -1.367  -4.094  -3.219  0.00  0.00    +0.022 C 
ENDBRANCH  14  17
ENDBRANCH  11  14
ENDBRANCH   5  11
ENDBRANCH   1   8
BRANCH   2  19
ATOM     19  C   UNL     1       0.212   5.680  -7.445  0.00  0.00    +0.175 C 
BRANCH  19  20
ATOM     20  S   UNL     1       1.663   5.841  -8.522  0.00  0.00    -0.056 S 
BRANCH  20  21
ATOM     21  C   UNL     1       1.431   7.395  -9.319  0.00  0.00    +0.278 A 
ATOM     22  N   UNL     1       0.416   8.225  -9.136  0.00  0.00    -0.101 NA
ATOM     23  N   UNL     1       0.573   9.262  -9.881  0.00  0.00    -0.107 NA
ATOM     24  C   UNL     1       1.695   9.138 -10.571  0.00  0.00    +0.248 A 
ATOM     25  O   UNL     1       2.256   7.956 -10.220  0.00  0.00    -0.411 OA
BRANCH  24  26
ATOM     26  C   UNL     1       2.210  10.062 -11.491  0.00  0.00    +0.044 C 
ATOM     27  C   UNL     1       1.654  11.288 -11.857  0.00  0.00    +0.008 A 
ATOM     28  C   UNL     1       0.479  11.959 -11.457  0.00  0.00    +0.010 A 
ATOM     29  C   UNL     1       0.180  13.171 -11.991  0.00  0.00    +0.001 A 
ATOM     30  C   UNL     1       1.011  13.779 -12.935  0.00  0.00    +0.002 A 
ATOM     31  C   UNL     1       2.155  13.192 -13.365  0.00  0.00    +0.026 A 
ATOM     32  C   UNL     1       2.534  11.925 -12.851  0.00  0.00    +0.043 A 
ATOM     33  N   UNL     1       3.577  11.159 -13.102  0.00  0.00    -0.380 N 
ATOM     34  C   UNL     1       3.489   9.941 -12.290  0.00  0.00    +0.154 C 
ATOM     35  H   UNL     1       4.291  11.369 -13.723  0.00  0.00    +0.160 HD
ENDBRANCH  24  26
ENDBRANCH  20  21
ENDBRANCH  19  20
ENDBRANCH   2  19
TORSDOF 9
