REMARK  Name = ZINC03315419
REMARK  9 active torsions:
REMARK  status: ('A' for Active; 'I' for Inactive)
REMARK    1  A    between atoms: C_1  and  C_2
REMARK    2  A    between atoms: C_2  and  C_3
REMARK    3  A    between atoms: C_2  and  C_4
REMARK    4  A    between atoms: C_4  and  C_6
REMARK    5  A    between atoms: C_4  and  N_22
REMARK    6  A    between atoms: C_6  and  O_8
REMARK    7  A    between atoms: O_8  and  C_9
REMARK    8  A    between atoms: C_9  and  C_10
REMARK    9  A    between atoms: C_23  and  C_25
REMARK                            x       y       z     vdW  Elec       q    Type
REMARK                         _______ _______ _______ _____ _____    ______ ____
ROOT
ATOM      1  C   UNL     1      -6.073   5.345   1.487  0.00  0.00    +0.328 C 
ATOM      2  O   UNL     1      -6.920   5.376   0.626  0.00  0.00    -0.249 OA
ENDROOT
BRANCH   1   3
ATOM      3  C   UNL     1      -6.257   6.138   2.755  0.00  0.00    +0.185 C 
BRANCH   3   4
ATOM      4  N   UNL     1      -7.533   6.856   2.701  0.00  0.00    -0.298 N 
ATOM      5  C   UNL     1      -8.157   7.207   3.843  0.00  0.00    +0.246 C 
ATOM      6  O   UNL     1      -7.661   6.929   4.917  0.00  0.00    -0.270 OA
ATOM      7  H   UNL     1      -7.982   7.107   1.729  0.00  0.00    +0.150 HD
BRANCH   5   8
ATOM      8  C   UNL     1      -9.445   7.931   3.788  0.00  0.00    +0.055 A 
ATOM      9  C   UNL     1     -10.015   8.257   2.556  0.00  0.00    +0.014 A 
ATOM     10  C   UNL     1     -11.219   8.927   2.512  0.00  0.00    +0.001 A 
ATOM     11  C   UNL     1     -11.858   9.287   3.686  0.00  0.00    +0.001 A 
ATOM     12  C   UNL     1     -11.298   8.973   4.911  0.00  0.00    +0.021 A 
ATOM     13  C   UNL     1     -10.094   8.296   4.970  0.00  0.00    +0.053 A 
ATOM     14 CL   UNL     1      -9.391   7.903   6.507  0.00  0.00    -0.083 Cl
ENDBRANCH   5   8
ENDBRANCH   3   4
BRANCH   3  16
ATOM     15  C   UNL     1      -5.300   7.949   4.186  0.00  0.00    +0.009 C 
ATOM     16  C   UNL     1      -5.112   7.144   2.898  0.00  0.00    +0.014 C 
ATOM     17  C   UNL     1      -3.780   6.395   2.954  0.00  0.00    +0.009 C 
ENDBRANCH   3  16
ENDBRANCH   1   3
BRANCH   1  18
ATOM     18  O   UNL     1      -4.967   4.604   1.313  0.00  0.00    -0.457 OA
BRANCH  18  19
ATOM     19  C   UNL     1      -4.856   3.867   0.068  0.00  0.00    +0.287 C 
BRANCH  19  20
ATOM     20  C   UNL     1      -3.559   3.099   0.051  0.00  0.00    +0.086 A 
ATOM     21  C   UNL     1      -3.574   1.718   0.045  0.00  0.00    +0.097 A 
ATOM     22  C   UNL     1      -2.357   1.028   0.030  0.00  0.00    +0.259 A 
ATOM     23  O   UNL     1      -2.336  -0.193   0.024  0.00  0.00    -0.267 OA
ATOM     24  N   UNL     1      -1.206   1.733   0.017  0.00  0.00    -0.267 N 
ATOM     25  C   UNL     1      -0.013   1.076   0.008  0.00  0.00    +0.111 A 
ATOM     26  C   UNL     1       1.154   1.761   0.001  0.00  0.00    +0.035 A 
ATOM     27  C   UNL     1       1.147   3.163   0.008  0.00  0.00    +0.020 A 
ATOM     28  C   UNL     1      -0.041   3.830   0.022  0.00  0.00    +0.048 A 
ATOM     29  C   UNL     1      -1.244   3.099   0.030  0.00  0.00    +0.141 A 
ATOM     30  N   UNL     1      -2.406   3.750   0.044  0.00  0.00    -0.231 NA
ATOM     31 BR   UNL     1       2.797   0.825  -0.019  0.00  0.00    -0.049 Br
ENDBRANCH  19  20
ENDBRANCH  18  19
ENDBRANCH   1  18
TORSDOF 7
