REMARK  Name = ZINC45925239
REMARK  9 active torsions:
REMARK  status: ('A' for Active; 'I' for Inactive)
REMARK    1  A    between atoms: C_1  and  C_2
REMARK    2  A    between atoms: C_2  and  C_3
REMARK    3  A    between atoms: C_2  and  N_4
REMARK    4  A    between atoms: C_5  and  C_7
REMARK    5  A    between atoms: C_7  and  S_8
REMARK    6  A    between atoms: S_8  and  C_9
REMARK    7  A    between atoms: C_12  and  S_16
REMARK    8  A    between atoms: C_13  and  N_15
REMARK    9  A    between atoms: S_16  and  C_19
REMARK                            x       y       z     vdW  Elec       q    Type
REMARK                         _______ _______ _______ _____ _____    ______ ____
ROOT
ATOM      1  C   UNL     1       5.198  -1.692  -3.678  0.00  0.00    +0.190 A 
ATOM      2  N   UNL     1       4.380  -1.970  -4.683  0.00  0.00    -0.228 NA
ATOM      3  C   UNL     1       4.848  -2.409  -5.842  0.00  0.00    +0.144 A 
ATOM      4  C   UNL     1       6.210  -2.577  -6.000  0.00  0.00    +0.152 A 
ATOM      5  C   UNL     1       7.048  -2.276  -4.924  0.00  0.00    +0.146 A 
ATOM      6  N   UNL     1       6.511  -1.836  -3.791  0.00  0.00    -0.205 NA
ENDROOT
BRANCH   5   7
ATOM      7  N   UNL     1       8.420  -2.430  -5.037  0.00  0.00    -0.342 N 
ATOM      8  H   UNL     1       8.806  -2.749  -5.869  0.00  0.00    +0.144 HD
ATOM      9  H   UNL     1       8.996  -2.219  -4.286  0.00  0.00    +0.144 HD
ENDBRANCH   5   7
BRANCH   4  10
ATOM     10  S   UNL     1       6.875  -3.159  -7.525  0.00  0.00    +0.036 S 
ATOM     11  O   UNL     1       7.774  -4.210  -7.201  0.00  0.00    -0.164 OA
ATOM     12  O   UNL     1       5.774  -3.341  -8.404  0.00  0.00    -0.164 OA
BRANCH  10  13
ATOM     13  C   UNL     1       7.848  -1.854  -8.200  0.00  0.00    +0.132 A 
ATOM     14  C   UNL     1       9.166  -1.593  -8.023  0.00  0.00    +0.036 A 
ATOM     15  C   UNL     1       9.725  -0.500  -8.660  0.00  0.00    +0.025 A 
ATOM     16  C   UNL     1       8.937   0.278  -9.443  0.00  0.00    +0.057 A 
ATOM     17  S   UNL     1       7.355  -0.538  -9.302  0.00  0.00    -0.063 S 
ATOM     18 BR   UNL     1       9.396   1.821 -10.434  0.00  0.00    -0.043 Br
ENDBRANCH  10  13
ENDBRANCH   4  10
BRANCH   1  19
ATOM     19  S   UNL     1       4.525  -1.111  -2.157  0.00  0.00    -0.077 S 
BRANCH  19  20
ATOM     20  C   UNL     1       2.736  -1.073  -2.455  0.00  0.00    +0.173 C 
BRANCH  20  22
ATOM     21  N   UNL     1       0.688  -0.476  -1.203  0.00  0.00    -0.312 N 
ATOM     22  C   UNL     1       2.031  -0.587  -1.215  0.00  0.00    +0.224 C 
ATOM     23  O   UNL     1       2.672  -0.295  -0.228  0.00  0.00    -0.275 OA
ATOM     24  H   UNL     1       0.175  -0.710  -1.993  0.00  0.00    +0.149 HD
BRANCH  21  26
ATOM     25  C   UNL     1      -0.019   1.526   0.010  0.00  0.00    +0.027 C 
ATOM     26  C   UNL     1       0.002  -0.004   0.002  0.00  0.00    +0.067 C 
ATOM     27  C   UNL     1      -1.433  -0.534   0.013  0.00  0.00    +0.027 C 
ENDBRANCH  21  26
ENDBRANCH  20  22
ENDBRANCH  19  20
ENDBRANCH   1  19
TORSDOF 7
