REMARK  Name = ZINC22988983
REMARK  9 active torsions:
REMARK  status: ('A' for Active; 'I' for Inactive)
REMARK    1  A    between atoms: C_1  and  C_2
REMARK    2  A    between atoms: C_4  and  C_14
REMARK    3  A    between atoms: C_6  and  C_11
REMARK    4  A    between atoms: C_14  and  O_16
REMARK    5  A    between atoms: O_16  and  C_17
REMARK    6  A    between atoms: C_17  and  C_18
REMARK    7  A    between atoms: N_20  and  C_21
REMARK    8  A    between atoms: N_20  and  C_22
REMARK    9  A    between atoms: C_22  and  C_29
REMARK                            x       y       z     vdW  Elec       q    Type
REMARK                         _______ _______ _______ _____ _____    ______ ____
ROOT
ATOM      1  C   UNL     1       4.107   7.319   2.697  0.00  0.00    +0.254 C 
ATOM      2  O   UNL     1       4.023   6.823   3.801  0.00  0.00    -0.272 OA
ATOM      3  N   UNL     1       5.128   6.984   1.884  0.00  0.00    -0.285 N 
ATOM      4  C   UNL     1       5.229   7.582   0.551  0.00  0.00    +0.133 C 
ENDROOT
BRANCH   3   5
ATOM      5  C   UNL     1       6.136   6.020   2.333  0.00  0.00    +0.122 C 
ATOM      6  C   UNL     1       5.454   4.718   2.764  0.00  0.00    +0.038 C 
ATOM      7  C   UNL     1       4.792   4.064   1.550  0.00  0.00    +0.003 C 
ATOM      8  C   UNL     1       5.859   3.674   0.526  0.00  0.00    +0.008 C 
ATOM      9  C   UNL     1       6.557   4.936   0.010  0.00  0.00    +0.077 C 
ATOM     10  C   UNL     1       7.086   5.712   1.196  0.00  0.00    +0.161 C 
ATOM     11  O   UNL     1       8.237   6.075   1.235  0.00  0.00    -0.295 OA
BRANCH   5  12
ATOM     12  C   UNL     1       6.906   6.597   3.493  0.00  0.00    +0.002 A 
ATOM     13  C   UNL     1       6.608   7.864   3.959  0.00  0.00    +0.007 A 
ATOM     14  C   UNL     1       7.314   8.393   5.023  0.00  0.00    +0.000 A 
ATOM     15  C   UNL     1       8.315   7.654   5.625  0.00  0.00    +0.001 A 
ATOM     16  C   UNL     1       8.618   6.390   5.156  0.00  0.00    +0.020 A 
ATOM     17  C   UNL     1       7.911   5.859   4.091  0.00  0.00    +0.047 A 
ATOM     18 CL   UNL     1       8.286   4.268   3.507  0.00  0.00    -0.083 Cl
ENDBRANCH   5  12
ENDBRANCH   3   5
BRANCH   1  19
ATOM     19  C   UNL     1       3.070   8.309   2.235  0.00  0.00    +0.328 C 
BRANCH  19  20
ATOM     20  O   UNL     1       2.083   8.501   3.283  0.00  0.00    -0.452 OA
BRANCH  20  21
ATOM     21  C   UNL     1       1.079   9.363   3.028  0.00  0.00    +0.340 C 
ATOM     22  O   UNL     1       1.030   9.938   1.960  0.00  0.00    -0.245 OA
BRANCH  21  26
ATOM     23  C   UNL     1      -0.405  11.787   1.556  0.00  0.00    +0.070 C 
ATOM     24  C   UNL     1      -1.187  11.610   2.832  0.00  0.00    +0.091 A 
ATOM     25  C   UNL     1      -0.924  10.624   3.879  0.00  0.00    +0.077 A 
ATOM     26  C   UNL     1       0.038   9.608   4.049  0.00  0.00    +0.075 A 
ATOM     27  C   UNL     1      -0.028   8.838   5.210  0.00  0.00    +0.039 A 
ATOM     28  C   UNL     1      -1.018   9.106   6.144  0.00  0.00    +0.049 A 
ATOM     29  N   UNL     1      -1.902  10.061   5.957  0.00  0.00    -0.215 NA
ATOM     30  C   UNL     1      -1.896  10.823   4.874  0.00  0.00    +0.260 A 
ATOM     31  O   UNL     1      -2.676  11.842   4.460  0.00  0.00    -0.334 OA
ATOM     32  N   UNL     1      -2.218  12.305   3.205  0.00  0.00    -0.080 NA
BRANCH  28  33
ATOM     33  C   UNL     1      -1.085   8.278   7.401  0.00  0.00    +0.038 C 
ATOM     34  C   UNL     1      -0.310   6.959   7.420  0.00  0.00    +0.010 C 
ATOM     35  C   UNL     1      -1.838   6.948   7.332  0.00  0.00    +0.010 C 
ENDBRANCH  28  33
ENDBRANCH  21  26
ENDBRANCH  20  21
ENDBRANCH  19  20
ENDBRANCH   1  19
TORSDOF 7
