REMARK  Name = ZINC39770289
REMARK  10 active torsions:
REMARK  status: ('A' for Active; 'I' for Inactive)
REMARK    1  A    between atoms: C_1  and  C_2
REMARK    2  A    between atoms: C_2  and  C_3
REMARK    3  A    between atoms: C_3  and  N_4
REMARK    4  A    between atoms: C_5  and  N_30
REMARK    5  A    between atoms: C_6  and  C_14
REMARK    6  A    between atoms: C_7  and  C_13
REMARK    7  A    between atoms: C_8  and  C_11
REMARK    8  A    between atoms: N_18  and  C_22
REMARK    9  A    between atoms: C_22  and  C_23
REMARK   10  A    between atoms: C_23  and  C_24
REMARK                            x       y       z     vdW  Elec       q    Type
REMARK                         _______ _______ _______ _____ _____    ______ ____
ROOT
ATOM      1  N   UNL     1       0.566  -2.669  -1.449  0.00  0.00    -0.295 N 
ATOM      2  C   UNL     1       1.695  -2.757  -0.699  0.00  0.00    +0.112 A 
ATOM      3  C   UNL     1       2.219  -4.010  -0.342  0.00  0.00    +0.019 A 
ATOM      4  C   UNL     1       1.564  -5.179  -0.766  0.00  0.00    -0.017 A 
ATOM      5  C   UNL     1       0.408  -5.062  -1.533  0.00  0.00    +0.120 A 
ATOM      6  C   UNL     1      -0.082  -3.773  -1.863  0.00  0.00    +0.270 A 
ATOM      7  O   UNL     1      -1.096  -3.665  -2.530  0.00  0.00    -0.266 OA
ATOM      8  C   UNL     1       2.105  -6.537  -0.397  0.00  0.00    +0.046 C 
ENDROOT
BRANCH   3   9
ATOM      9  C   UNL     1       3.437  -4.098   0.466  0.00  0.00    +0.032 C 
ATOM     10  C   UNL     1       3.383  -4.613   1.725  0.00  0.00    +0.077 C 
ATOM     11  C   UNL     1       2.249  -5.014   2.495  0.00  0.00    +0.258 C 
ATOM     12  O   UNL     1       1.120  -4.918   2.046  0.00  0.00    -0.269 OA
ATOM     13  N   UNL     1       2.460  -5.491   3.709  0.00  0.00    -0.255 N 
ATOM     14  C   UNL     1       3.712  -5.597   4.206  0.00  0.00    +0.121 C 
ATOM     15  S   UNL     1       4.213  -6.180   5.736  0.00  0.00    -0.027 S 
ATOM     16  S   UNL     1       4.713  -4.981   2.861  0.00  0.00    -0.061 S 
BRANCH  13  17
ATOM     17  C   UNL     1       1.321  -5.912   4.528  0.00  0.00    +0.119 C 
BRANCH  17  18
ATOM     18  C   UNL     1       1.026  -7.391   4.271  0.00  0.00    +0.054 C 
BRANCH  18  19
ATOM     19  C   UNL     1      -0.146  -7.824   5.113  0.00  0.00    -0.046 A 
ATOM     20  C   UNL     1       0.063  -8.319   6.386  0.00  0.00    +0.004 A 
ATOM     21  C   UNL     1      -1.012  -8.716   7.159  0.00  0.00    +0.000 A 
ATOM     22  C   UNL     1      -2.297  -8.617   6.658  0.00  0.00    +0.000 A 
ATOM     23  C   UNL     1      -2.506  -8.121   5.385  0.00  0.00    +0.000 A 
ATOM     24  C   UNL     1      -1.431  -7.720   4.614  0.00  0.00    +0.004 A 
ENDBRANCH  18  19
ENDBRANCH  17  18
ENDBRANCH  13  17
ENDBRANCH   3   9
BRANCH   2  25
ATOM     25  N   UNL     1       2.326  -1.618  -0.290  0.00  0.00    -0.316 N 
ATOM     26  C   UNL     1       3.244  -0.970  -1.200  0.00  0.00    +0.106 C 
ATOM     27  C   UNL     1       4.666  -1.550  -1.002  0.00  0.00    +0.019 C 
ATOM     28  C   UNL     1       5.229  -1.098   0.279  0.00  0.00    +0.002 C 
ATOM     29  C   UNL     1       4.455  -1.570   1.507  0.00  0.00    +0.002 C 
ATOM     30  C   UNL     1       3.317  -0.617   1.777  0.00  0.00    +0.019 C 
ATOM     31  C   UNL     1       2.038  -1.096   1.060  0.00  0.00    +0.106 C 
ENDBRANCH   2  25
BRANCH   5  32
ATOM     32  C   UNL     1      -0.282  -6.234  -1.982  0.00  0.00    +0.105 C 
ATOM     33  N   UNL     1      -0.829  -7.164  -2.337  0.00  0.00    -0.191 NA
ENDBRANCH   5  32
BRANCH   1  34
ATOM     34  C   UNL     1       0.041  -1.350  -1.808  0.00  0.00    +0.126 C 
BRANCH  34  36
ATOM     35  C   UNL     1      -1.389   0.549  -1.039  0.00  0.00    +0.005 C 
ATOM     36  C   UNL     1      -0.943  -0.882  -0.734  0.00  0.00    +0.018 C 
ENDBRANCH  34  36
ENDBRANCH   1  34
TORSDOF 8
