REMARK  Name = ZINC39927390
REMARK  4 active torsions:
REMARK  status: ('A' for Active; 'I' for Inactive)
REMARK    1  A    between atoms: C_1  and  C_2
REMARK    2  A    between atoms: C_4  and  N_16
REMARK    3  A    between atoms: N_5  and  C_7
REMARK    4  A    between atoms: C_17  and  C_19
REMARK                            x       y       z     vdW  Elec       q    Type
REMARK                         _______ _______ _______ _____ _____    ______ ____
ROOT
ATOM      1  C   UNL     1       0.017   1.503   0.014  0.00  0.00    +0.067 C 
ATOM      2  C   UNL     1       0.017  -0.004   0.003  0.00  0.00    +0.062 A 
ATOM      3  C   UNL     1       0.033  -0.815  -1.135  0.00  0.00    +0.068 A 
ATOM      4  C   UNL     1       0.028  -2.112  -0.723  0.00  0.00    +0.128 A 
ATOM      5  N   UNL     1       0.010  -2.111   0.630  0.00  0.00    -0.209 N 
ATOM      6  N   UNL     1       0.009  -0.777   1.059  0.00  0.00    -0.171 NA
ENDROOT
BRANCH   5   7
ATOM      7  C   UNL     1      -0.000  -3.294   1.493  0.00  0.00    +0.303 C 
ATOM      8  N   UNL     1       1.073  -3.200   2.491  0.00  0.00    -0.345 N 
ATOM      9  C   UNL     1       0.514  -3.208   3.667  0.00  0.00    +0.062 A 
ATOM     10  C   UNL     1       1.056  -3.140   5.031  0.00  0.00    +0.027 A 
ATOM     11  C   UNL     1       0.214  -3.170   6.083  0.00  0.00    +0.002 A 
ATOM     12  C   UNL     1      -1.181  -3.264   5.936  0.00  0.00    +0.002 A 
ATOM     13  C   UNL     1      -1.781  -3.333   4.731  0.00  0.00    +0.027 A 
ATOM     14  C   UNL     1      -0.963  -3.309   3.510  0.00  0.00    +0.062 A 
ATOM     15  N   UNL     1      -1.260  -3.359   2.244  0.00  0.00    -0.345 N 
ATOM     16  H   UNL     1       2.023  -3.142   2.308  0.00  0.00    +0.163 HD
ATOM     17  H   UNL     1      -2.151  -3.426   1.866  0.00  0.00    +0.163 HD
ENDBRANCH   5   7
BRANCH   4  18
ATOM     18  N   UNL     1       0.039  -3.238  -1.546  0.00  0.00    -0.269 N 
ATOM     19  C   UNL     1      -0.071  -3.098  -2.882  0.00  0.00    +0.233 C 
ATOM     20  O   UNL     1      -0.180  -1.992  -3.368  0.00  0.00    -0.274 OA
ATOM     21  H   UNL     1       0.126  -4.122  -1.157  0.00  0.00    +0.156 HD
BRANCH  19  22
ATOM     22  C   UNL     1      -0.059  -4.314  -3.771  0.00  0.00    +0.159 C 
ATOM     23  C   UNL     1      -0.807  -4.050  -5.097  0.00  0.00    +0.133 C 
ATOM     24  C   UNL     1       0.122  -3.542  -6.172  0.00  0.00    -0.015 A 
ATOM     25  C   UNL     1      -0.242  -2.843  -7.326  0.00  0.00    +0.006 A 
ATOM     26  C   UNL     1       0.702  -2.445  -8.245  0.00  0.00    +0.000 A 
ATOM     27  C   UNL     1       2.042  -2.726  -8.052  0.00  0.00    +0.001 A 
ATOM     28  C   UNL     1       2.428  -3.410  -6.914  0.00  0.00    +0.015 A 
ATOM     29  C   UNL     1       1.478  -3.802  -5.990  0.00  0.00    +0.013 A 
ATOM     30  S   UNL     1       1.627  -4.647  -4.429  0.00  0.00    -0.110 S 
ATOM     31 CL   UNL     1      -1.567  -5.585  -5.659  0.00  0.00    -0.115 Cl
ENDBRANCH  19  22
ENDBRANCH   4  18
TORSDOF 3
