REMARK  Name = ZINC45918927
REMARK  4 active torsions:
REMARK  status: ('A' for Active; 'I' for Inactive)
REMARK    1  A    between atoms: C_6  and  C_7
REMARK    2  A    between atoms: C_14  and  O_20
REMARK    3  A    between atoms: C_15  and  C_18
REMARK    4  A    between atoms: C_18  and  O_19
REMARK                            x       y       z     vdW  Elec       q    Type
REMARK                         _______ _______ _______ _____ _____    ______ ____
ROOT
ATOM      1  C   UNL     1      -1.258  -0.760   0.011  0.00  0.00    +0.058 C 
ATOM      2  C   UNL     1      -1.239  -2.111  -0.099  0.00  0.00    +0.176 C 
ATOM      3  C   UNL     1      -2.413  -2.991  -0.215  0.00  0.00    +0.231 C 
ATOM      4  O   UNL     1      -3.588  -2.668  -0.233  0.00  0.00    -0.283 OA
ATOM      5  C   UNL     1      -1.849  -4.350  -0.305  0.00  0.00    +0.068 A 
ATOM      6  C   UNL     1      -2.424  -5.615  -0.430  0.00  0.00    +0.019 A 
ATOM      7  C   UNL     1      -1.626  -6.723  -0.490  0.00  0.00    +0.047 A 
ATOM      8  C   UNL     1      -0.241  -6.591  -0.427  0.00  0.00    +0.126 A 
ATOM      9  C   UNL     1       0.343  -5.341  -0.303  0.00  0.00    +0.062 A 
ATOM     10  C   UNL     1      -0.454  -4.205  -0.241  0.00  0.00    +0.148 A 
ATOM     11  O   UNL     1      -0.137  -2.896  -0.128  0.00  0.00    -0.451 OA
ENDROOT
BRANCH   1  17
ATOM     12  C   UNL     1      -0.018   1.396  -0.018  0.00  0.00    +0.009 A 
ATOM     13  C   UNL     1       1.168   2.098  -0.030  0.00  0.00    +0.022 A 
ATOM     14  C   UNL     1       2.378   1.423  -0.026  0.00  0.00    +0.059 A 
ATOM     15  C   UNL     1       2.406   0.037  -0.011  0.00  0.00    +0.060 A 
ATOM     16  C   UNL     1       1.228  -0.680   0.001  0.00  0.00    +0.029 A 
ATOM     17  C   UNL     1       0.002  -0.004  -0.003  0.00  0.00    -0.020 A 
ATOM     18 CL   UNL     1       3.928  -0.799  -0.007  0.00  0.00    -0.082 Cl
ATOM     19 CL   UNL     1       3.866   2.317  -0.042  0.00  0.00    -0.082 Cl
ENDBRANCH   1  17
BRANCH   8  20
ATOM     20  O   UNL     1       0.543  -7.697  -0.486  0.00  0.00    -0.506 OA
ATOM     21  H   UNL     1       0.804  -7.947  -1.383  0.00  0.00    +0.292 HD
ENDBRANCH   8  20
BRANCH   9  22
ATOM     22  C   UNL     1       1.843  -5.214  -0.235  0.00  0.00    +0.198 C 
BRANCH  22  23
ATOM     23  O   UNL     1       2.368  -5.064  -1.556  0.00  0.00    -0.390 OA
ATOM     24  H   UNL     1       3.331  -4.977  -1.589  0.00  0.00    +0.210 HD
ENDBRANCH  22  23
ENDBRANCH   9  22
TORSDOF 4
