REMARK  Name = ZINC45645094
REMARK  8 active torsions:
REMARK  status: ('A' for Active; 'I' for Inactive)
REMARK    1  A    between atoms: C_4  and  O_7
REMARK    2  A    between atoms: O_7  and  C_8
REMARK    3  A    between atoms: C_8  and  C_9
REMARK    4  A    between atoms: C_12  and  C_14
REMARK    5  A    between atoms: N_16  and  N_17
REMARK    6  A    between atoms: N_17  and  S_18
REMARK    7  A    between atoms: S_18  and  C_21
REMARK    8  A    between atoms: C_23  and  C_26
REMARK                            x       y       z     vdW  Elec       q    Type
REMARK                         _______ _______ _______ _____ _____    ______ ____
ROOT
ATOM      1  C   UNL     1       7.924  -3.793  -1.708  0.00  0.00    +0.294 C 
ATOM      2  O   UNL     1       8.976  -4.213  -1.261  0.00  0.00    -0.265 OA
ATOM      3  N   UNL     1       7.743  -3.713  -3.042  0.00  0.00    -0.225 N 
ATOM      4  H   UNL     1       6.905  -3.379  -3.398  0.00  0.00    +0.171 HD
ENDROOT
BRANCH   1   8
ATOM      5  C   UNL     1       4.932  -2.615  -0.061  0.00  0.00    +0.143 A 
ATOM      6  C   UNL     1       5.673  -2.917   1.028  0.00  0.00    +0.049 A 
ATOM      7  C   UNL     1       6.906  -3.404   0.567  0.00  0.00    +0.055 A 
ATOM      8  C   UNL     1       6.855  -3.375  -0.797  0.00  0.00    +0.191 A 
ATOM      9  O   UNL     1       5.646  -2.898  -1.159  0.00  0.00    -0.452 OA
BRANCH   5  10
ATOM     10  C   UNL     1       3.531  -2.060  -0.044  0.00  0.00    +0.303 C 
BRANCH  10  11
ATOM     11  O   UNL     1       3.586  -0.632  -0.037  0.00  0.00    -0.484 OA
BRANCH  11  15
ATOM     12  C   UNL     1      -0.017   1.378   0.010  0.00  0.00    +0.000 A 
ATOM     13  C   UNL     1       1.170   2.088   0.002  0.00  0.00    +0.004 A 
ATOM     14  C   UNL     1       2.377   1.417  -0.013  0.00  0.00    +0.045 A 
ATOM     15  C   UNL     1       2.399   0.030  -0.021  0.00  0.00    +0.121 A 
ATOM     16  C   UNL     1       1.207  -0.680  -0.013  0.00  0.00    +0.045 A 
ATOM     17  C   UNL     1       0.002  -0.004   0.002  0.00  0.00    +0.004 A 
ENDBRANCH  11  15
ENDBRANCH  10  11
ENDBRANCH   5  10
ENDBRANCH   1   8
BRANCH   3  18
ATOM     18  N   UNL     1       8.765  -4.113  -3.913  0.00  0.00    -0.107 NA
ATOM     19  H   UNL     1       9.650  -3.724  -3.833  0.00  0.00    +0.172 HD
BRANCH  18  20
ATOM     20  S   UNL     1       8.462  -5.250  -5.078  0.00  0.00    +0.080 S 
ATOM     21  O   UNL     1       9.633  -5.333  -5.879  0.00  0.00    -0.151 OA
ATOM     22  O   UNL     1       7.913  -6.378  -4.412  0.00  0.00    -0.151 OA
BRANCH  20  23
ATOM     23  C   UNL     1       7.189  -4.607  -6.114  0.00  0.00    +0.145 A 
ATOM     24  C   UNL     1       7.313  -3.864  -7.230  0.00  0.00    +0.051 A 
ATOM     25  C   UNL     1       6.077  -3.482  -7.871  0.00  0.00    +0.072 A 
ATOM     26  C   UNL     1       4.909  -3.916  -7.277  0.00  0.00    +0.062 A 
ATOM     27  S   UNL     1       5.427  -4.790  -5.942  0.00  0.00    -0.076 S 
BRANCH  25  28
ATOM     28  C   UNL     1       6.063  -2.672  -9.094  0.00  0.00    +0.387 C 
ATOM     29  O   UNL     1       7.117  -2.302  -9.596  0.00  0.00    -0.241 OA
ATOM     30  O   UNL     1       4.997  -2.365  -9.613  0.00  0.00    -0.241 OA
ENDBRANCH  25  28
ENDBRANCH  20  23
ENDBRANCH  18  20
ENDBRANCH   3  18
TORSDOF 8
