REMARK  Name = ZINC57334066
REMARK  7 active torsions:
REMARK  status: ('A' for Active; 'I' for Inactive)
REMARK    1  A    between atoms: C_1  and  C_2
REMARK    2  A    between atoms: C_3  and  C_20
REMARK    3  A    between atoms: C_7  and  N_8
REMARK    4  A    between atoms: C_9  and  C_11
REMARK    5  A    between atoms: C_11  and  N_12
REMARK    6  A    between atoms: C_17  and  C_19
REMARK    7  A    between atoms: C_23  and  C_28
REMARK                            x       y       z     vdW  Elec       q    Type
REMARK                         _______ _______ _______ _____ _____    ______ ____
ROOT
ATOM      1  C   UNL     1      -1.267   1.182   0.182  0.00  0.00    +0.046 C 
ATOM      2  C   UNL     1      -0.585  -0.158   0.085  0.00  0.00    -0.020 A 
ATOM      3  C   UNL     1      -0.569  -0.848  -1.126  0.00  0.00    +0.014 A 
ATOM      4  C   UNL     1       0.064  -2.088  -1.209  0.00  0.00    +0.011 A 
ATOM      5  C   UNL     1       0.671  -2.629  -0.094  0.00  0.00    +0.002 A 
ATOM      6  C   UNL     1       0.656  -1.946   1.107  0.00  0.00    +0.023 A 
ATOM      7  C   UNL     1       0.033  -0.706   1.198  0.00  0.00    +0.037 A 
ENDROOT
BRANCH   3   8
ATOM      8  C   UNL     1      -1.223  -0.267  -2.321  0.00  0.00    +0.133 A 
ATOM      9  N   UNL     1      -1.855   0.873  -2.439  0.00  0.00    -0.156 NA
ATOM     10  N   UNL     1      -2.412   1.263  -3.649  0.00  0.00    -0.190 N 
ATOM     11  C   UNL     1      -3.123   2.315  -4.191  0.00  0.00    +0.153 A 
ATOM     12  N   UNL     1      -3.347   2.045  -5.447  0.00  0.00    -0.132 NA
ATOM     13  N   UNL     1      -2.836   0.903  -5.751  0.00  0.00    -0.120 NA
ATOM     14  C   UNL     1      -2.263   0.394  -4.702  0.00  0.00    +0.218 A 
ATOM     15  S   UNL     1      -1.344  -0.937  -3.971  0.00  0.00    -0.026 S 
ATOM     16  C   UNL     1      -3.562   3.558  -3.460  0.00  0.00    +0.090 C 
ENDBRANCH   3   8
BRANCH   7  17
ATOM     17  N   UNL     1       0.025  -0.015   2.414  0.00  0.00    -0.287 N 
ATOM     18  C   UNL     1      -0.056  -0.695   3.575  0.00  0.00    +0.201 C 
ATOM     19  O   UNL     1      -0.040  -1.907   3.570  0.00  0.00    -0.278 OA
ATOM     20  H   UNL     1       0.078   0.954   2.422  0.00  0.00    +0.155 HD
BRANCH  18  21
ATOM     21  C   UNL     1      -0.168   0.052   4.880  0.00  0.00    +0.019 C 
BRANCH  21  22
ATOM     22  N   UNL     1      -0.241  -0.908   5.989  0.00  0.00    +0.387 N 
ATOM     23  C   UNL     1       1.017  -1.659   6.068  0.00  0.00    -0.078 C 
ATOM     24  C   UNL     1       0.916  -2.717   7.170  0.00  0.00    -0.019 C 
ATOM     25  C   UNL     1       0.647  -2.026   8.510  0.00  0.00    -0.003 C 
ATOM     26  C   UNL     1      -0.628  -1.185   8.393  0.00  0.00    -0.016 C 
ATOM     27  C   UNL     1      -0.470  -0.185   7.245  0.00  0.00    -0.071 C 
ATOM     28  C   UNL     1      -1.742   0.657   7.125  0.00  0.00    -0.013 C 
ATOM     29  H   UNL     1      -1.004  -1.549   5.827  0.00  0.00    -0.081 HD
ENDBRANCH  21  22
ENDBRANCH  18  21
ENDBRANCH   7  17
TORSDOF 4
