REMARK  Name = ZINC36242610
REMARK  7 active torsions:
REMARK  status: ('A' for Active; 'I' for Inactive)
REMARK    1  A    between atoms: C_1  and  C_2
REMARK    2  A    between atoms: C_6  and  O_9
REMARK    3  A    between atoms: C_7  and  C_8
REMARK    4  A    between atoms: O_9  and  C_10
REMARK    5  A    between atoms: C_10  and  C_11
REMARK    6  A    between atoms: C_16  and  C_21
REMARK    7  A    between atoms: C_19  and  N_20
REMARK                            x       y       z     vdW  Elec       q    Type
REMARK                         _______ _______ _______ _____ _____    ______ ____
ROOT
ATOM      1  C   UNL     1       0.083  -4.787   3.662  0.00  0.00    +0.176 A 
ATOM      2  N   UNL     1       1.145  -5.069   4.373  0.00  0.00    -0.130 NA
ATOM      3  N   UNL     1       0.802  -5.555   5.513  0.00  0.00    -0.127 NA
ATOM      4  C   UNL     1      -0.517  -5.610   5.590  0.00  0.00    +0.182 A 
ATOM      5  N   UNL     1      -1.006  -5.114   4.408  0.00  0.00    -0.279 N 
ATOM      6  C   UNL     1      -2.353  -5.040   4.193  0.00  0.00    +0.024 A 
ATOM      7  C   UNL     1      -3.225  -5.448   5.138  0.00  0.00    +0.023 A 
ATOM      8  C   UNL     1      -2.760  -5.958   6.362  0.00  0.00    +0.028 A 
ATOM      9  C   UNL     1      -1.416  -6.047   6.591  0.00  0.00    +0.070 A 
ATOM     10  C   UNL     1      -2.871  -4.495   2.886  0.00  0.00    +0.064 C 
ENDROOT
BRANCH   9  11
ATOM     11  N   UNL     1      -0.937  -6.550   7.801  0.00  0.00    -0.355 N 
ATOM     12  H   UNL     1       0.019  -6.601   7.961  0.00  0.00    +0.142 HD
ATOM     13  H   UNL     1      -1.559  -6.848   8.483  0.00  0.00    +0.142 HD
ENDBRANCH   9  11
BRANCH   1  14
ATOM     14  C   UNL     1       0.069  -4.202   2.274  0.00  0.00    +0.305 C 
BRANCH  14  15
ATOM     15  O   UNL     1       0.050  -2.776   2.358  0.00  0.00    -0.484 OA
BRANCH  15  21
ATOM     16  C   UNL     1      -0.018   1.503   0.010  0.00  0.00    +0.044 C 
ATOM     17  C   UNL     1       0.002  -0.004   0.002  0.00  0.00    -0.044 A 
ATOM     18  C   UNL     1       0.006  -0.688  -1.200  0.00  0.00    +0.004 A 
ATOM     19  C   UNL     1       0.024  -2.071  -1.211  0.00  0.00    +0.004 A 
ATOM     20  C   UNL     1       0.039  -2.772  -0.020  0.00  0.00    +0.046 A 
ATOM     21  C   UNL     1       0.035  -2.088   1.186  0.00  0.00    +0.124 A 
ATOM     22  C   UNL     1       0.023  -0.700   1.195  0.00  0.00    -0.006 A 
ATOM     23  C   UNL     1       0.026   0.046   2.504  0.00  0.00    +0.048 C 
ENDBRANCH  15  21
ENDBRANCH  14  15
ENDBRANCH   1  14
TORSDOF 4
