REMARK  Name = ZINC61862781
REMARK  4 active torsions:
REMARK  status: ('A' for Active; 'I' for Inactive)
REMARK    1  A    between atoms: C_1  and  N_2
REMARK    2  A    between atoms: N_2  and  C_3
REMARK    3  A    between atoms: C_3  and  C_5
REMARK    4  A    between atoms: C_3  and  C_12
REMARK                            x       y       z     vdW  Elec       q    Type
REMARK                         _______ _______ _______ _____ _____    ______ ____
ROOT
ATOM      1  C   UNL     1      -2.067  -0.116  -1.267  0.00  0.00    -0.040 A 
ATOM      2  C   UNL     1      -1.322   0.130  -2.404  0.00  0.00    +0.031 A 
ATOM      3  C   UNL     1      -1.958   0.494  -3.580  0.00  0.00    +0.067 A 
ATOM      4  C   UNL     1      -3.350   0.612  -3.611  0.00  0.00    +0.068 A 
ATOM      5  C   UNL     1      -4.090   0.363  -2.466  0.00  0.00    +0.043 A 
ATOM      6  C   UNL     1      -3.447  -0.005  -1.299  0.00  0.00    +0.022 A 
ATOM      7 BR   UNL     1      -4.457  -0.352   0.262  0.00  0.00    -0.050 Br
ATOM      8  N   UNL     1      -3.693   0.986  -4.909  0.00  0.00    -0.306 N 
ATOM      9  H   UNL     1      -4.593   1.144  -5.234  0.00  0.00    +0.170 HD
ATOM     10  C   UNL     1      -2.563   1.091  -5.633  0.00  0.00    +0.325 A 
ATOM     11  O   UNL     1      -2.510   1.402  -6.808  0.00  0.00    -0.247 OA
ATOM     12  N   UNL     1      -1.500   0.800  -4.860  0.00  0.00    -0.306 N 
ATOM     13  H   UNL     1      -0.573   0.804  -5.144  0.00  0.00    +0.170 HD
ENDROOT
BRANCH   1  14
ATOM     14  C   UNL     1      -1.376  -0.512   0.012  0.00  0.00    +0.010 C 
BRANCH  14  15
ATOM     15  C   UNL     1      -1.356  -2.015   0.128  0.00  0.00    +0.032 A 
ATOM     16  C   UNL     1      -0.153  -2.670   0.314  0.00  0.00    +0.023 A 
ATOM     17  C   UNL     1      -0.146  -4.052   0.419  0.00  0.00    +0.018 A 
ATOM     18  C   UNL     1      -1.355  -4.727   0.333  0.00  0.00    +0.036 A 
ATOM     19  C   UNL     1      -2.518  -4.004   0.146  0.00  0.00    +0.126 A 
ATOM     20  N   UNL     1      -2.487  -2.689   0.056  0.00  0.00    -0.260 NA
ATOM     21 BR   UNL     1      -1.410  -6.613   0.468  0.00  0.00    -0.049 Br
ENDBRANCH  14  15
BRANCH  14  23
ATOM     22  C   UNL     1      -0.018   1.465   0.010  0.00  0.00    -0.099 C 
ATOM     23  N   UNL     1       0.002  -0.004   0.002  0.00  0.00    +0.385 N 
ATOM     24  H   UNL     1       0.474  -0.330  -0.828  0.00  0.00    -0.085 HD
ATOM     25  H   UNL     1       0.490  -0.338   0.820  0.00  0.00    -0.085 HD
ENDBRANCH  14  23
ENDBRANCH   1  14
TORSDOF 3
