REMARK  Name = ZINC39711894
REMARK  12 active torsions:
REMARK  status: ('A' for Active; 'I' for Inactive)
REMARK    1  A    between atoms: C_1  and  C_2
REMARK    2  A    between atoms: C_3  and  C_30
REMARK    3  A    between atoms: C_4  and  C_29
REMARK    4  A    between atoms: C_9  and  S_11
REMARK    5  A    between atoms: S_11  and  C_12
REMARK    6  A    between atoms: C_12  and  C_14
REMARK    7  A    between atoms: C_12  and  C_15
REMARK    8  A    between atoms: N_17  and  C_18
REMARK    9  A    between atoms: C_23  and  C_28
REMARK   10  A    between atoms: C_25  and  C_27
REMARK   11  A    between atoms: C_30  and  C_31
REMARK   12  A    between atoms: C_31  and  C_32
REMARK                            x       y       z     vdW  Elec       q    Type
REMARK                         _______ _______ _______ _____ _____    ______ ____
ROOT
ATOM      1  C   UNL     1      -0.018   1.503   0.010  0.00  0.00    +0.066 C 
ATOM      2  C   UNL     1       0.002  -0.004   0.002  0.00  0.00    +0.047 A 
ATOM      3  C   UNL     1      -1.202  -0.717   0.004  0.00  0.00    -0.005 A 
ATOM      4  C   UNL     1      -1.169  -2.075  -0.004  0.00  0.00    +0.048 A 
ATOM      5  N   UNL     1       0.035  -2.706  -0.014  0.00  0.00    -0.200 N 
ATOM      6  C   UNL     1       1.192  -1.980  -0.015  0.00  0.00    +0.254 A 
ATOM      7  N   UNL     1       1.151  -0.643  -0.012  0.00  0.00    -0.216 NA
ATOM      8  N   UNL     1       2.202  -2.844  -0.025  0.00  0.00    -0.183 NA
ATOM      9  C   UNL     1       1.728  -4.088  -0.030  0.00  0.00    +0.212 A 
ATOM     10  N   UNL     1       0.410  -4.055  -0.023  0.00  0.00    -0.137 NA
ATOM     11  C   UNL     1      -2.449  -2.871  -0.002  0.00  0.00    +0.066 C 
ENDROOT
BRANCH   9  12
ATOM     12  S   UNL     1       2.710  -5.551  -0.044  0.00  0.00    -0.072 S 
BRANCH  12  13
ATOM     13  C   UNL     1       4.416  -4.935  -0.049  0.00  0.00    +0.137 C 
ATOM     14  C   UNL     1       4.695  -4.196   1.262  0.00  0.00    +0.029 C 
BRANCH  13  15
ATOM     15  C   UNL     1       5.369  -6.095  -0.184  0.00  0.00    +0.226 C 
ATOM     16  O   UNL     1       5.000  -7.217   0.090  0.00  0.00    -0.275 OA
ATOM     17  N   UNL     1       6.630  -5.885  -0.610  0.00  0.00    -0.311 N 
ATOM     18  H   UNL     1       6.924  -4.987  -0.830  0.00  0.00    +0.149 HD
BRANCH  17  19
ATOM     19  C   UNL     1       7.556  -7.012  -0.742  0.00  0.00    +0.076 C 
ATOM     20  C   UNL     1       7.361  -7.675  -2.107  0.00  0.00    +0.022 C 
ATOM     21  C   UNL     1       8.329  -8.852  -2.245  0.00  0.00    +0.002 C 
ATOM     22  C   UNL     1       9.768  -8.347  -2.124  0.00  0.00    +0.003 C 
ATOM     23  C   UNL     1       9.962  -7.684  -0.759  0.00  0.00    -0.009 C 
ATOM     24  C   UNL     1       8.995  -6.507  -0.621  0.00  0.00    +0.009 C 
ATOM     25  C   UNL     1       9.190  -5.844   0.744  0.00  0.00    +0.009 C 
ATOM     26  C   UNL     1       9.685  -8.704   0.348  0.00  0.00    +0.008 C 
ENDBRANCH  17  19
ENDBRANCH  13  15
ENDBRANCH  12  13
ENDBRANCH   9  12
BRANCH   3  27
ATOM     27  C   UNL     1      -2.520   0.013   0.015  0.00  0.00    +0.050 C 
BRANCH  27  28
ATOM     28  C   UNL     1      -2.898   0.361   1.456  0.00  0.00    +0.130 C 
BRANCH  28  29
ATOM     29  C   UNL     1      -4.216   1.091   1.467  0.00  0.00    +0.356 C 
ATOM     30  O   UNL     1      -4.800   1.313   0.420  0.00  0.00    -0.246 OA
ATOM     31  O   UNL     1      -4.700   1.461   2.524  0.00  0.00    -0.246 OA
ENDBRANCH  28  29
ENDBRANCH  27  28
ENDBRANCH   3  27
TORSDOF 7
