REMARK  Name = ZINC64659819
REMARK  6 active torsions:
REMARK  status: ('A' for Active; 'I' for Inactive)
REMARK    1  A    between atoms: C_1  and  C_2
REMARK    2  A    between atoms: C_2  and  C_3
REMARK    3  A    between atoms: N_14  and  C_15
REMARK    4  A    between atoms: C_15  and  C_16
REMARK    5  A    between atoms: C_18  and  C_21
REMARK    6  A    between atoms: C_21  and  C_22
REMARK                            x       y       z     vdW  Elec       q    Type
REMARK                         _______ _______ _______ _____ _____    ______ ____
ROOT
ATOM      1  C   UNL     1       1.646  -2.913   0.784  0.00  0.00    +0.189 A 
ATOM      2  N   UNL     1       1.973  -2.084   1.782  0.00  0.00    -0.194 NA
ATOM      3  C   UNL     1       1.621  -2.601   2.926  0.00  0.00    +0.232 A 
ATOM      4  O   UNL     1       1.050  -3.789   2.692  0.00  0.00    -0.338 OA
ATOM      5  N   UNL     1       1.073  -3.969   1.284  0.00  0.00    -0.060 NA
ENDROOT
BRANCH   1   6
ATOM      6  C   UNL     1       1.894  -2.661  -0.681  0.00  0.00    +0.189 C 
BRANCH   6  17
ATOM      7  C   UNL     1       0.718  -0.497  -1.257  0.00  0.00    +0.161 C 
ATOM      8  N   UNL     1       0.011  -0.003  -2.443  0.00  0.00    -0.325 N 
ATOM      9  C   UNL     1      -1.172  -0.626  -2.826  0.00  0.00    +0.041 A 
ATOM     10  C   UNL     1      -2.171   0.057  -3.498  0.00  0.00    +0.024 A 
ATOM     11  C   UNL     1      -3.325  -0.607  -3.867  0.00  0.00    +0.002 A 
ATOM     12  C   UNL     1      -3.489  -1.952  -3.571  0.00  0.00    +0.001 A 
ATOM     13  C   UNL     1      -2.505  -2.646  -2.899  0.00  0.00    +0.015 A 
ATOM     14  C   UNL     1      -1.338  -1.987  -2.517  0.00  0.00    +0.058 A 
ATOM     15  C   UNL     1      -0.268  -2.678  -1.776  0.00  0.00    +0.250 C 
ATOM     16  O   UNL     1      -0.301  -3.886  -1.635  0.00  0.00    -0.270 OA
ATOM     17  N   UNL     1       0.744  -1.960  -1.258  0.00  0.00    -0.272 N 
ATOM     18  H   UNL     1       0.362   0.745  -2.951  0.00  0.00    +0.148 HD
BRANCH   7  20
ATOM     19  C   UNL     1      -0.019   1.526   0.010  0.00  0.00    +0.007 C 
ATOM     20  C   UNL     1       0.002  -0.004   0.002  0.00  0.00    +0.039 C 
ENDBRANCH   7  20
ENDBRANCH   6  17
ENDBRANCH   1   6
BRANCH   3  21
ATOM     21  C   UNL     1       1.821  -1.969   4.280  0.00  0.00    +0.132 C 
BRANCH  21  22
ATOM     22  C   UNL     1       0.619  -1.128   4.624  0.00  0.00    -0.033 C 
ATOM     23  C   UNL     1      -0.450  -1.502   5.364  0.00  0.00    -0.001 A 
ATOM     24  C   UNL     1      -0.800  -2.756   6.042  0.00  0.00    +0.010 A 
ATOM     25  C   UNL     1      -1.968  -2.831   6.720  0.00  0.00    +0.001 A 
ATOM     26  C   UNL     1      -2.850  -1.744   6.791  0.00  0.00    +0.002 A 
ATOM     27  C   UNL     1      -2.598  -0.559   6.195  0.00  0.00    +0.026 A 
ATOM     28  C   UNL     1      -1.398  -0.368   5.455  0.00  0.00    +0.043 A 
ATOM     29  N   UNL     1      -0.933   0.666   4.797  0.00  0.00    -0.380 N 
ATOM     30  C   UNL     1       0.367   0.307   4.219  0.00  0.00    +0.145 C 
ATOM     31  H   UNL     1      -1.373   1.526   4.711  0.00  0.00    +0.160 HD
ENDBRANCH  21  22
ENDBRANCH   3  21
TORSDOF 5
