REMARK  Name = ZINC17080100
REMARK  5 active torsions:
REMARK  status: ('A' for Active; 'I' for Inactive)
REMARK    1  A    between atoms: C_1  and  O_2
REMARK    2  A    between atoms: O_2  and  C_3
REMARK    3  A    between atoms: C_6  and  C_9
REMARK    4  A    between atoms: C_14  and  C_20
REMARK    5  A    between atoms: C_23  and  N_26
REMARK                            x       y       z     vdW  Elec       q    Type
REMARK                         _______ _______ _______ _____ _____    ______ ____
ROOT
ATOM      1  C   UNL     1       1.416   2.038  -0.001  0.00  0.00    +0.032 C 
ATOM      2  C   UNL     1      -0.018   1.504   0.010  0.00  0.00    +0.059 C 
ATOM      3  C   UNL     1       0.002  -0.004   0.002  0.00  0.00    +0.018 C 
ATOM      4  C   UNL     1       1.015  -0.685   0.578  0.00  0.00    +0.020 C 
ATOM      5  C   UNL     1       1.010  -2.196   0.563  0.00  0.00    +0.063 C 
ATOM      6  C   UNL     1       0.395  -2.689  -0.748  0.00  0.00    +0.109 C 
ATOM      7  C   UNL     1      -0.897  -1.953  -0.994  0.00  0.00    +0.218 C 
ATOM      8  O   UNL     1      -1.817  -2.516  -1.547  0.00  0.00    -0.275 OA
ATOM      9  N   UNL     1      -1.031  -0.674  -0.603  0.00  0.00    -0.289 N 
ATOM     10  C   UNL     1       2.086  -0.019   1.196  0.00  0.00    +0.162 C 
ATOM     11  O   UNL     1       2.974  -0.667   1.715  0.00  0.00    -0.292 OA
ATOM     12  C   UNL     1       2.152   1.484   1.224  0.00  0.00    +0.088 C 
ATOM     13  H   UNL     1      -1.873  -0.216  -0.752  0.00  0.00    +0.155 HD
ENDROOT
BRANCH   1  17
ATOM     14  C   UNL     1       1.359   6.307   0.167  0.00  0.00    +0.120 A 
ATOM     15  C   UNL     1       1.946   5.662  -0.912  0.00  0.00    +0.046 A 
ATOM     16  C   UNL     1       1.963   4.282  -0.964  0.00  0.00    +0.007 A 
ATOM     17  C   UNL     1       1.396   3.543   0.059  0.00  0.00    -0.043 A 
ATOM     18  C   UNL     1       0.806   4.184   1.132  0.00  0.00    +0.007 A 
ATOM     19  C   UNL     1       0.792   5.564   1.192  0.00  0.00    +0.046 A 
BRANCH  14  21
ATOM     20  C   UNL     1       0.720   8.261   1.361  0.00  0.00    +0.277 C 
ATOM     21  O   UNL     1       1.341   7.665   0.220  0.00  0.00    -0.495 OA
ENDBRANCH  14  21
ENDBRANCH   1  17
BRANCH   5  22
ATOM     22  C   UNL     1       0.197  -2.708   1.724  0.00  0.00    -0.039 A 
ATOM     23  C   UNL     1      -1.137  -2.367   1.836  0.00  0.00    +0.006 A 
ATOM     24  C   UNL     1      -1.884  -2.840   2.899  0.00  0.00    +0.033 A 
ATOM     25  C   UNL     1      -1.294  -3.647   3.854  0.00  0.00    +0.126 A 
ATOM     26  C   UNL     1       0.042  -3.984   3.744  0.00  0.00    +0.033 A 
ATOM     27  C   UNL     1       0.788  -3.514   2.679  0.00  0.00    +0.006 A 
BRANCH  25  28
ATOM     28  N   UNL     1      -2.093  -4.151   4.993  0.00  0.00    +0.056 N 
ATOM     29  O   UNL     1      -1.573  -4.863   5.834  0.00  0.00    -0.126 OA
ATOM     30  O   UNL     1      -3.270  -3.855   5.090  0.00  0.00    -0.126 OA
ENDBRANCH  25  28
ENDBRANCH   5  22
TORSDOF 4
