REMARK  Name = ZINC55123487
REMARK  5 active torsions:
REMARK  status: ('A' for Active; 'I' for Inactive)
REMARK    1  A    between atoms: C_1  and  C_2
REMARK    2  A    between atoms: C_8  and  N_10
REMARK    3  A    between atoms: C_11  and  C_13
REMARK    4  A    between atoms: C_13  and  C_14
REMARK    5  A    between atoms: C_20  and  N_22
REMARK                            x       y       z     vdW  Elec       q    Type
REMARK                         _______ _______ _______ _____ _____    ______ ____
ROOT
ATOM      1  N   UNL     1       0.056  -0.038   2.447  0.00  0.00    -0.312 N 
ATOM      2  C   UNL     1       0.738   0.093   3.602  0.00  0.00    +0.213 C 
ATOM      3  O   UNL     1       1.919  -0.179   3.644  0.00  0.00    -0.276 OA
ATOM      4  H   UNL     1      -0.888   0.180   2.413  0.00  0.00    +0.149 HD
ENDROOT
BRANCH   1  11
ATOM      5  C   UNL     1      -0.019   1.526   0.010  0.00  0.00    +0.009 C 
ATOM      6  C   UNL     1       0.002  -0.004   0.002  0.00  0.00    +0.006 C 
ATOM      7  C   UNL     1      -1.433  -0.534   0.013  0.00  0.00    +0.005 C 
ATOM      8  C   UNL     1      -1.413  -2.063   0.004  0.00  0.00    +0.000 C 
ATOM      9  C   UNL     1      -0.673  -2.570   1.244  0.00  0.00    +0.002 C 
ATOM     10  C   UNL     1       0.763  -2.041   1.233  0.00  0.00    +0.022 C 
ATOM     11  C   UNL     1       0.742  -0.511   1.242  0.00  0.00    +0.076 C 
ENDBRANCH   1  11
BRANCH   2  12
ATOM     12  C   UNL     1       0.033   0.579   4.842  0.00  0.00    +0.097 C 
BRANCH  12  13
ATOM     13  C   UNL     1       1.026   0.638   6.004  0.00  0.00    -0.017 C 
ATOM     14  C   UNL     1       1.504  -0.777   6.338  0.00  0.00    +0.002 C 
ATOM     15  C   UNL     1       0.304  -1.640   6.736  0.00  0.00    +0.000 C 
ATOM     16  C   UNL     1      -0.379  -1.029   7.961  0.00  0.00    -0.002 C 
ATOM     17  C   UNL     1      -0.857   0.385   7.627  0.00  0.00    -0.016 C 
ATOM     18  C   UNL     1       0.342   1.248   7.229  0.00  0.00    -0.072 C 
BRANCH  18  19
ATOM     19  N   UNL     1      -0.116   2.606   6.908  0.00  0.00    +0.380 N 
ATOM     20  H   UNL     1      -0.771   2.567   6.142  0.00  0.00    -0.090 HD
ATOM     21  H   UNL     1      -0.567   3.009   7.716  0.00  0.00    -0.090 HD
ATOM     22  H   UNL     1       0.675   3.175   6.646  0.00  0.00    -0.090 HD
ENDBRANCH  18  19
ENDBRANCH  12  13
ENDBRANCH   2  12
TORSDOF 4
