REMARK  Name = ZINC12469517
REMARK  7 active torsions:
REMARK  status: ('A' for Active; 'I' for Inactive)
REMARK    1  A    between atoms: C_1  and  N_2
REMARK    2  A    between atoms: N_2  and  C_3
REMARK    3  A    between atoms: C_6  and  O_9
REMARK    4  A    between atoms: O_9  and  C_10
REMARK    5  A    between atoms: C_14  and  C_16
REMARK    6  A    between atoms: C_21  and  C_32
REMARK    7  A    between atoms: C_24  and  C_27
REMARK                            x       y       z     vdW  Elec       q    Type
REMARK                         _______ _______ _______ _____ _____    ______ ____
ROOT
ATOM      1  C   UNL     1      -0.194   0.300  -2.383  0.00  0.00    +0.149 A 
ATOM      2  C   UNL     1      -0.268  -0.183  -3.709  0.00  0.00    +0.078 A 
ATOM      3  C   UNL     1      -0.273   0.884  -4.532  0.00  0.00    +0.119 A 
ATOM      4  N   UNL     1      -0.207   2.013  -3.764  0.00  0.00    -0.238 N 
ATOM      5  N   UNL     1      -0.162   1.620  -2.427  0.00  0.00    -0.164 NA
ATOM      6  C   UNL     1      -0.197   3.371  -4.315  0.00  0.00    +0.215 C 
ATOM      7  C   UNL     1      -0.745   3.330  -5.746  0.00  0.00    +0.066 C 
ATOM      8  C   UNL     1      -0.032   2.236  -6.547  0.00  0.00    +0.140 C 
ATOM      9  N   UNL     1      -0.331   0.930  -5.928  0.00  0.00    -0.319 N 
ATOM     10  H   UNL     1      -0.555   0.149  -6.458  0.00  0.00    +0.148 HD
ENDROOT
BRANCH   8  11
ATOM     11  C   UNL     1       1.455   2.481  -6.527  0.00  0.00    +0.125 A 
ATOM     12  C   UNL     1       2.171   3.054  -7.511  0.00  0.00    +0.046 A 
ATOM     13  C   UNL     1       3.516   3.084  -7.074  0.00  0.00    +0.041 A 
ATOM     14  C   UNL     1       3.541   2.527  -5.850  0.00  0.00    +0.195 A 
ATOM     15  O   UNL     1       2.289   2.168  -5.521  0.00  0.00    -0.466 OA
ENDBRANCH   8  11
BRANCH   1  18
ATOM     16  C   UNL     1      -0.439   1.503   0.158  0.00  0.00    +0.138 C 
ATOM     17  N   UNL     1      -0.213   0.060   0.052  0.00  0.00    -0.269 N 
ATOM     18  C   UNL     1      -0.163  -0.527  -1.160  0.00  0.00    +0.271 C 
ATOM     19  O   UNL     1      -0.093  -1.738  -1.247  0.00  0.00    -0.268 OA
BRANCH  17  20
ATOM     20  C   UNL     1      -0.050  -0.710   1.210  0.00  0.00    +0.037 A 
ATOM     21  C   UNL     1       0.331  -2.042   1.111  0.00  0.00    +0.027 A 
ATOM     22  C   UNL     1       0.491  -2.800   2.254  0.00  0.00    +0.048 A 
ATOM     23  C   UNL     1       0.273  -2.232   3.501  0.00  0.00    +0.130 A 
ATOM     24  C   UNL     1      -0.107  -0.902   3.600  0.00  0.00    +0.048 A 
ATOM     25  C   UNL     1      -0.263  -0.141   2.459  0.00  0.00    +0.027 A 
BRANCH  23  26
ATOM     26  O   UNL     1       0.431  -2.980   4.625  0.00  0.00    -0.406 OA
BRANCH  26  27
ATOM     27  C   UNL     1       0.189  -2.331   5.875  0.00  0.00    +0.575 C 
ATOM     28  F   UNL     1      -1.131  -1.869   5.913  0.00  0.00    -0.133 F 
ATOM     29  F   UNL     1       0.396  -3.238   6.920  0.00  0.00    -0.133 F 
ATOM     30  F   UNL     1       1.066  -1.250   6.016  0.00  0.00    -0.133 F 
ENDBRANCH  26  27
ENDBRANCH  23  26
ENDBRANCH  17  20
ENDBRANCH   1  18
BRANCH   6  31
ATOM     31  C   UNL     1      -1.075   4.280  -3.453  0.00  0.00    +0.412 C 
ATOM     32  F   UNL     1      -0.578   4.305  -2.145  0.00  0.00    -0.168 F 
ATOM     33  F   UNL     1      -1.063   5.576  -3.980  0.00  0.00    -0.168 F 
ATOM     34  F   UNL     1      -2.385   3.792  -3.445  0.00  0.00    -0.168 F 
ENDBRANCH   6  31
TORSDOF 6
