REMARK  Name = ZINC45626512
REMARK  8 active torsions:
REMARK  status: ('A' for Active; 'I' for Inactive)
REMARK    1  A    between atoms: C_1  and  C_2
REMARK    2  A    between atoms: C_2  and  C_4
REMARK    3  A    between atoms: C_2  and  N_18
REMARK    4  A    between atoms: C_4  and  N_5
REMARK    5  A    between atoms: C_6  and  C_8
REMARK    6  A    between atoms: C_10  and  N_15
REMARK    7  A    between atoms: N_18  and  C_19
REMARK    8  A    between atoms: N_18  and  C_20
REMARK                            x       y       z     vdW  Elec       q    Type
REMARK                         _______ _______ _______ _____ _____    ______ ____
ROOT
ATOM      1  N   UNL     1       0.479  -2.378   0.935  0.00  0.00    -0.313 N 
ATOM      2  C   UNL     1       0.869  -3.220   1.912  0.00  0.00    +0.245 C 
ATOM      3  O   UNL     1       1.351  -2.780   2.938  0.00  0.00    -0.270 OA
ATOM      4  H   UNL     1       0.095  -2.729   0.117  0.00  0.00    +0.149 HD
ENDROOT
BRANCH   2   5
ATOM      5  C   UNL     1       0.710  -4.679   1.737  0.00  0.00    +0.053 A 
ATOM      6  C   UNL     1       0.162  -5.189   0.558  0.00  0.00    +0.047 A 
ATOM      7  C   UNL     1       0.017  -6.551   0.401  0.00  0.00    +0.127 A 
ATOM      8  C   UNL     1       0.413  -7.414   1.408  0.00  0.00    +0.034 A 
ATOM      9  C   UNL     1       0.956  -6.917   2.579  0.00  0.00    +0.018 A 
ATOM     10  C   UNL     1       1.113  -5.555   2.748  0.00  0.00    +0.030 A 
ATOM     11 BR   UNL     1       1.863  -4.878   4.346  0.00  0.00    -0.050 Br
BRANCH   7  12
ATOM     12  N   UNL     1      -0.564  -7.092  -0.848  0.00  0.00    +0.056 N 
ATOM     13  O   UNL     1      -0.910  -6.340  -1.729  0.00  0.00    -0.126 OA
ATOM     14  O   UNL     1      -0.692  -8.286  -0.988  0.00  0.00    -0.126 OA
ENDBRANCH   7  12
ENDBRANCH   2   5
BRANCH   1  15
ATOM     15  C   UNL     1       0.636  -0.932   1.109  0.00  0.00    +0.089 C 
BRANCH  15  17
ATOM     16  C   UNL     1       0.267   1.300   0.048  0.00  0.00    -0.012 C 
ATOM     17  C   UNL     1       0.022  -0.205  -0.089  0.00  0.00    -0.055 C 
BRANCH  17  18
ATOM     18  N   UNL     1       0.643  -0.691  -1.328  0.00  0.00    +0.379 N 
ATOM     19  C   UNL     1      -0.041  -0.097  -2.485  0.00  0.00    -0.096 C 
ATOM     20  C   UNL     1       2.062  -0.308  -1.348  0.00  0.00    -0.096 C 
ATOM     21  H   UNL     1       0.566  -1.696  -1.371  0.00  0.00    -0.082 HD
ENDBRANCH  17  18
ENDBRANCH  15  17
ENDBRANCH   1  15
TORSDOF 5
