REMARK  Name = ZINC41224264
REMARK  7 active torsions:
REMARK  status: ('A' for Active; 'I' for Inactive)
REMARK    1  A    between atoms: C_1  and  O_2
REMARK    2  A    between atoms: O_2  and  C_3
REMARK    3  A    between atoms: C_5  and  N_22
REMARK    4  A    between atoms: C_6  and  C_10
REMARK    5  A    between atoms: C_8  and  O_9
REMARK    6  A    between atoms: N_11  and  N_12
REMARK    7  A    between atoms: C_13  and  C_15
REMARK                            x       y       z     vdW  Elec       q    Type
REMARK                         _______ _______ _______ _____ _____    ______ ____
ROOT
ATOM      1  C   UNL     1      -1.269  -0.522   0.040  0.00  0.00    +0.163 A 
ATOM      2  C   UNL     1      -1.181  -1.906   0.008  0.00  0.00    +0.082 A 
ATOM      3  C   UNL     1      -2.326  -2.674  -0.016  0.00  0.00    +0.138 A 
ATOM      4  C   UNL     1      -3.580  -2.057  -0.007  0.00  0.00    +0.028 A 
ATOM      5  C   UNL     1      -3.669  -0.663   0.026  0.00  0.00    +0.061 A 
ATOM      6  C   UNL     1      -2.516   0.099   0.054  0.00  0.00    +0.159 A 
ENDROOT
BRANCH   3   7
ATOM      7  N   UNL     1      -2.227  -4.150  -0.051  0.00  0.00    +0.057 N 
ATOM      8  O   UNL     1      -1.148  -4.681  -0.174  0.00  0.00    -0.126 OA
ATOM      9  O   UNL     1      -3.226  -4.825   0.044  0.00  0.00    -0.126 OA
ENDBRANCH   3   7
BRANCH   1  11
ATOM     10  C   UNL     1       1.108  -0.472   0.046  0.00  0.00    +0.277 C 
ATOM     11  O   UNL     1      -0.137   0.229   0.062  0.00  0.00    -0.491 OA
ENDBRANCH   1  11
BRANCH   6  12
ATOM     12  O   UNL     1      -2.599   1.456   0.090  0.00  0.00    -0.503 OA
ATOM     13  H   UNL     1      -2.621   1.873  -0.782  0.00  0.00    +0.292 HD
ENDBRANCH   6  12
BRANCH   4  14
ATOM     14  C   UNL     1      -4.806  -2.875  -0.032  0.00  0.00    +0.140 C 
ATOM     15  N   UNL     1      -5.966  -2.303  -0.139  0.00  0.00    -0.187 NA
BRANCH  15  16
ATOM     16  N   UNL     1      -7.131  -3.081  -0.163  0.00  0.00    -0.203 N 
ATOM     17  C   UNL     1      -8.336  -2.487  -0.275  0.00  0.00    +0.263 C 
ATOM     18  O   UNL     1      -8.411  -1.276  -0.354  0.00  0.00    -0.268 OA
ATOM     19  H   UNL     1      -7.071  -4.047  -0.100  0.00  0.00    +0.178 HD
BRANCH  17  20
ATOM     20  C   UNL     1      -9.564  -3.307  -0.300  0.00  0.00    +0.038 A 
ATOM     21  C   UNL     1      -9.481  -4.697  -0.203  0.00  0.00    +0.014 A 
ATOM     22  C   UNL     1     -10.631  -5.457  -0.228  0.00  0.00    +0.021 A 
ATOM     23  C   UNL     1     -11.867  -4.844  -0.348  0.00  0.00    +0.041 A 
ATOM     24  C   UNL     1     -11.957  -3.465  -0.445  0.00  0.00    +0.021 A 
ATOM     25  C   UNL     1     -10.814  -2.694  -0.415  0.00  0.00    +0.014 A 
ATOM     26 CL   UNL     1     -13.311  -5.808  -0.378  0.00  0.00    -0.084 Cl
ENDBRANCH  17  20
ENDBRANCH  15  16
ENDBRANCH   4  14
TORSDOF 6
