REMARK  Name = ZINC63492937
REMARK  4 active torsions:
REMARK  status: ('A' for Active; 'I' for Inactive)
REMARK    1  A    between atoms: C_6  and  N_10
REMARK    2  A    between atoms: C_11  and  C_13
REMARK    3  A    between atoms: C_13  and  O_14
REMARK    4  A    between atoms: O_14  and  C_15
REMARK                            x       y       z     vdW  Elec       q    Type
REMARK                         _______ _______ _______ _____ _____    ______ ____
ROOT
ATOM      1  O   UNL     1       3.727  -6.221  -2.401  0.00  0.00    -0.481 OA
ENDROOT
BRANCH   1   2
ATOM      2  C   UNL     1       4.098  -7.015  -3.439  0.00  0.00    +0.143 A 
ATOM      3  C   UNL     1       4.628  -6.446  -4.585  0.00  0.00    +0.094 A 
ATOM      4  C   UNL     1       5.007  -7.256  -5.644  0.00  0.00    +0.143 A 
ATOM      5  C   UNL     1       4.846  -8.649  -5.542  0.00  0.00    +0.023 A 
ATOM      6  C   UNL     1       4.309  -9.209  -4.377  0.00  0.00    +0.035 A 
ATOM      7  C   UNL     1       3.946  -8.398  -3.340  0.00  0.00    +0.083 A 
ATOM      8 CL   UNL     1       3.286  -9.091  -1.892  0.00  0.00    -0.080 Cl
ATOM      9  C   UNL     1       5.247  -9.502  -6.668  0.00  0.00    -0.027 A 
ATOM     10  C   UNL     1       5.758  -8.910  -7.769  0.00  0.00    +0.041 A 
ATOM     11  C   UNL     1       5.900  -7.500  -7.798  0.00  0.00    +0.341 A 
ATOM     12  O   UNL     1       6.375  -6.976  -8.789  0.00  0.00    -0.245 OA
ATOM     13  O   UNL     1       5.528  -6.726  -6.770  0.00  0.00    -0.422 OA
ATOM     14  C   UNL     1       6.182  -9.688  -8.987  0.00  0.00    +0.042 C 
ATOM     15  C   UNL     1       6.378 -11.163  -8.643  0.00  0.00    +0.005 C 
ATOM     16  C   UNL     1       5.124 -11.659  -7.912  0.00  0.00    +0.005 C 
ATOM     17  C   UNL     1       5.074 -10.990  -6.539  0.00  0.00    +0.036 C 
ENDBRANCH   1   2
BRANCH   1  18
ATOM     18  C   UNL     1       3.908  -4.813  -2.565  0.00  0.00    +0.324 C 
BRANCH  18  20
ATOM     19  N   UNL     1       3.522  -2.756  -1.248  0.00  0.00    -0.276 N 
ATOM     20  C   UNL     1       3.445  -4.099  -1.322  0.00  0.00    +0.253 C 
ATOM     21  O   UNL     1       3.004  -4.734  -0.387  0.00  0.00    -0.272 OA
ATOM     22  H   UNL     1       3.874  -2.248  -1.996  0.00  0.00    +0.152 HD
BRANCH  19  28
ATOM     23  C   UNL     1      -0.016   1.344   0.009  0.00  0.00    +0.002 A 
ATOM     24  C   UNL     1       1.158   2.118   0.002  0.00  0.00    +0.002 A 
ATOM     25  C   UNL     1       2.389   1.570  -0.013  0.00  0.00    +0.027 A 
ATOM     26  C   UNL     1       2.533   0.108  -0.022  0.00  0.00    +0.061 A 
ATOM     27  N   UNL     1       3.569  -0.680  -0.036  0.00  0.00    -0.348 N 
ATOM     28  C   UNL     1       3.071  -2.062  -0.039  0.00  0.00    +0.269 C 
ATOM     29  N   UNL     1       1.606  -1.974  -0.024  0.00  0.00    -0.348 N 
ATOM     30  C   UNL     1       1.290  -0.712  -0.014  0.00  0.00    +0.061 A 
ATOM     31  C   UNL     1       0.002  -0.004   0.002  0.00  0.00    +0.027 A 
ATOM     32  H   UNL     1       4.499  -0.405  -0.045  0.00  0.00    +0.163 HD
ATOM     33  H   UNL     1       0.987  -2.721  -0.022  0.00  0.00    +0.163 HD
ENDBRANCH  19  28
ENDBRANCH  18  20
ENDBRANCH   1  18
TORSDOF 4
