REMARK  Name = ZINC15947372
REMARK  6 active torsions:
REMARK  status: ('A' for Active; 'I' for Inactive)
REMARK    1  A    between atoms: C_4  and  C_7
REMARK    2  A    between atoms: C_7  and  N_8
REMARK    3  A    between atoms: C_16  and  O_32
REMARK    4  A    between atoms: C_18  and  C_21
REMARK    5  A    between atoms: C_22  and  C_23
REMARK    6  A    between atoms: C_27  and  N_29
REMARK                            x       y       z     vdW  Elec       q    Type
REMARK                         _______ _______ _______ _____ _____    ______ ____
ROOT
ATOM      1  N   UNL     1       3.314  -0.989   1.681  0.00  0.00    +0.386 N 
ATOM      2  C   UNL     1       4.599  -1.647   1.414  0.00  0.00    -0.073 C 
ATOM      3  C   UNL     1       5.479  -1.618   2.668  0.00  0.00    +0.018 C 
ATOM      4  C   UNL     1       4.663  -2.177   3.825  0.00  0.00    -0.027 A 
ATOM      5  C   UNL     1       3.315  -2.264   3.724  0.00  0.00    -0.021 A 
ATOM      6  S   UNL     1       2.792  -2.957   5.266  0.00  0.00    -0.080 S 
ATOM      7  C   UNL     1       4.267  -3.127   6.005  0.00  0.00    +0.080 A 
ATOM      8  C   UNL     1       5.207  -2.647   5.083  0.00  0.00    +0.067 A 
ATOM      9  C   UNL     1       6.635  -2.666   5.490  0.00  0.00    +0.220 C 
ATOM     10  N   UNL     1       6.953  -3.347   6.558  0.00  0.00    -0.223 NA
ATOM     11  C   UNL     1       6.015  -4.141   7.341  0.00  0.00    +0.217 C 
ATOM     12  N   UNL     1       4.641  -3.618   7.236  0.00  0.00    -0.313 N 
ATOM     13  C   UNL     1       2.489  -1.849   2.549  0.00  0.00    -0.035 C 
ATOM     14  H   UNL     1       4.033  -3.620   7.992  0.00  0.00    +0.149 HD
ATOM     15  H   UNL     1       3.478  -0.106   2.142  0.00  0.00    -0.081 HD
ENDROOT
BRANCH  11  16
ATOM     16  C   UNL     1       6.038  -5.563   6.841  0.00  0.00    +0.019 C 
ATOM     17  C   UNL     1       6.263  -6.559   7.687  0.00  0.00    +0.007 C 
BRANCH  17  18
ATOM     18  C   UNL     1       6.317  -6.296   9.140  0.00  0.00    -0.023 A 
ATOM     19  C   UNL     1       5.428  -5.393   9.723  0.00  0.00    +0.008 A 
ATOM     20  C   UNL     1       5.484  -5.152  11.080  0.00  0.00    +0.003 A 
ATOM     21  C   UNL     1       6.419  -5.804  11.864  0.00  0.00    +0.033 A 
ATOM     22  C   UNL     1       7.304  -6.701  11.292  0.00  0.00    +0.127 A 
ATOM     23  C   UNL     1       7.254  -6.955   9.937  0.00  0.00    +0.040 A 
BRANCH  22  24
ATOM     24  N   UNL     1       8.302  -7.394  12.138  0.00  0.00    +0.056 N 
ATOM     25  O   UNL     1       8.343  -7.176  13.326  0.00  0.00    -0.126 OA
ATOM     26  O   UNL     1       9.076  -8.178  11.640  0.00  0.00    -0.126 OA
ENDBRANCH  22  24
ENDBRANCH  17  18
ENDBRANCH  11  16
BRANCH   9  27
ATOM     27  O   UNL     1       7.574  -2.000   4.779  0.00  0.00    -0.492 OA
ATOM     28  H   UNL     1       8.469  -2.082   5.136  0.00  0.00    +0.294 HD
ENDBRANCH   9  27
BRANCH   1  29
ATOM     29  C   UNL     1       2.611  -0.755   0.413  0.00  0.00    -0.043 C 
BRANCH  29  33
ATOM     30  C   UNL     1      -0.957   1.475   1.150  0.00  0.00    +0.000 A 
ATOM     31  C   UNL     1       0.228   2.135   0.883  0.00  0.00    +0.000 A 
ATOM     32  C   UNL     1       1.383   1.413   0.644  0.00  0.00    +0.002 A 
ATOM     33  C   UNL     1       1.352   0.032   0.673  0.00  0.00    -0.064 A 
ATOM     34  C   UNL     1       0.168  -0.628   0.942  0.00  0.00    +0.002 A 
ATOM     35  C   UNL     1      -0.987   0.094   1.179  0.00  0.00    +0.000 A 
ENDBRANCH  29  33
ENDBRANCH   1  29
TORSDOF 6
