REMARK  Name = ZINC09029283
REMARK  6 active torsions:
REMARK  status: ('A' for Active; 'I' for Inactive)
REMARK    1  A    between atoms: C_1  and  C_2
REMARK    2  A    between atoms: C_2  and  O_3
REMARK    3  A    between atoms: O_3  and  C_4
REMARK    4  A    between atoms: C_4  and  C_6
REMARK    5  A    between atoms: C_8  and  N_20
REMARK    6  A    between atoms: C_21  and  C_23
REMARK                            x       y       z     vdW  Elec       q    Type
REMARK                         _______ _______ _______ _____ _____    ______ ____
ROOT
ATOM      1  C   UNL     1       4.649   2.455  -0.039  0.00  0.00    +0.121 A 
ATOM      2  C   UNL     1       5.276   1.190  -0.049  0.00  0.00    +0.049 A 
ATOM      3  C   UNL     1       4.501   0.065  -0.043  0.00  0.00    +0.100 A 
ATOM      4  C   UNL     1       3.098   0.185  -0.026  0.00  0.00    +0.280 A 
ATOM      5  O   UNL     1       2.407  -0.821  -0.020  0.00  0.00    -0.265 OA
ATOM      6  N   UNL     1       2.511   1.396  -0.017  0.00  0.00    -0.242 N 
ATOM      7  C   UNL     1       3.253   2.533  -0.023  0.00  0.00    +0.223 A 
ATOM      8  O   UNL     1       2.428   3.597  -0.011  0.00  0.00    -0.436 OA
ATOM      9  C   UNL     1       1.144   3.169   0.002  0.00  0.00    +0.154 A 
ATOM     10  C   UNL     1       1.168   1.775  -0.001  0.00  0.00    +0.095 A 
ATOM     11  C   UNL     1      -0.020   1.060   0.011  0.00  0.00    +0.030 A 
ATOM     12  C   UNL     1      -1.226   1.732   0.021  0.00  0.00    +0.002 A 
ATOM     13  C   UNL     1      -1.251   3.116   0.028  0.00  0.00    +0.004 A 
ATOM     14  C   UNL     1      -0.073   3.835   0.017  0.00  0.00    +0.048 A 
ENDROOT
BRANCH   3  15
ATOM     15  N   UNL     1       5.101  -1.204  -0.052  0.00  0.00    -0.277 N 
ATOM     16  C   UNL     1       4.867  -2.067   0.957  0.00  0.00    +0.250 C 
ATOM     17  O   UNL     1       4.071  -1.781   1.830  0.00  0.00    -0.270 OA
ATOM     18  H   UNL     1       5.683  -1.460  -0.785  0.00  0.00    +0.155 HD
BRANCH  16  19
ATOM     19  C   UNL     1       5.579  -3.361   1.001  0.00  0.00    +0.055 A 
ATOM     20  C   UNL     1       6.490  -3.696  -0.003  0.00  0.00    +0.014 A 
ATOM     21  C   UNL     1       7.155  -4.903   0.048  0.00  0.00    +0.001 A 
ATOM     22  C   UNL     1       6.914  -5.787   1.085  0.00  0.00    +0.001 A 
ATOM     23  C   UNL     1       6.010  -5.466   2.080  0.00  0.00    +0.021 A 
ATOM     24  C   UNL     1       5.340  -4.258   2.045  0.00  0.00    +0.053 A 
ATOM     25 CL   UNL     1       4.204  -3.856   3.295  0.00  0.00    -0.083 Cl
ENDBRANCH  16  19
ENDBRANCH   3  15
BRANCH   1  26
ATOM     26  C   UNL     1       5.458   3.680  -0.045  0.00  0.00    +0.344 C 
ATOM     27  O   UNL     1       4.914   4.768  -0.036  0.00  0.00    -0.245 OA
BRANCH  26  28
ATOM     28  O   UNL     1       6.804   3.599  -0.061  0.00  0.00    -0.461 OA
BRANCH  28  30
ATOM     29  C   UNL     1       9.041   4.560  -0.084  0.00  0.00    +0.048 C 
ATOM     30  C   UNL     1       7.539   4.851  -0.066  0.00  0.00    +0.229 C 
ENDBRANCH  28  30
ENDBRANCH  26  28
ENDBRANCH   1  26
TORSDOF 5
