REMARK  Name = ZINC39666069
REMARK  11 active torsions:
REMARK  status: ('A' for Active; 'I' for Inactive)
REMARK    1  A    between atoms: C_1  and  C_2
REMARK    2  A    between atoms: C_5  and  O_8
REMARK    3  A    between atoms: O_8  and  C_9
REMARK    4  A    between atoms: C_9  and  C_11
REMARK    5  A    between atoms: C_9  and  C_12
REMARK    6  A    between atoms: C_12  and  N_13
REMARK    7  A    between atoms: C_14  and  C_16
REMARK    8  A    between atoms: C_27  and  C_29
REMARK    9  A    between atoms: C_29  and  C_31
REMARK   10  A    between atoms: C_29  and  O_32
REMARK   11  A    between atoms: O_32  and  C_33
REMARK                            x       y       z     vdW  Elec       q    Type
REMARK                         _______ _______ _______ _____ _____    ______ ____
ROOT
ATOM      1  C   UNL     1      -4.012  -6.670   0.471  0.00  0.00    +0.100 C 
ATOM      2  C   UNL     1      -4.655  -5.777   1.556  0.00  0.00    +0.121 C 
ATOM      3  N   UNL     1      -6.039  -6.288   1.691  0.00  0.00    -0.297 N 
ATOM      4  C   UNL     1      -5.900  -7.761   1.586  0.00  0.00    +0.115 C 
ATOM      5  C   UNL     1      -4.832  -7.971   0.495  0.00  0.00    -0.004 C 
ATOM      6  C   UNL     1      -5.498  -8.200  -0.859  0.00  0.00    -0.010 C 
ATOM      7  C   UNL     1      -6.261  -9.528  -0.829  0.00  0.00    -0.082 C 
ATOM      8  N   UNL     1      -5.330 -10.622  -0.528  0.00  0.00    +0.379 N 
ATOM      9  C   UNL     1      -4.763 -10.443   0.814  0.00  0.00    -0.082 C 
ATOM     10  C   UNL     1      -3.938  -9.154   0.854  0.00  0.00    -0.010 C 
ATOM     11  C   UNL     1      -7.169  -5.576   1.868  0.00  0.00    +0.256 C 
ATOM     12  O   UNL     1      -7.111  -4.374   2.018  0.00  0.00    -0.272 OA
ATOM     13  H   UNL     1      -5.823 -11.502  -0.569  0.00  0.00    -0.086 HD
ATOM     14  H   UNL     1      -4.585 -10.625  -1.208  0.00  0.00    -0.086 HD
ENDROOT
BRANCH   1  16
ATOM     15  N   UNL     1      -1.674  -7.152  -0.176  0.00  0.00    -0.312 N 
ATOM     16  C   UNL     1      -2.571  -6.952   0.810  0.00  0.00    +0.218 C 
ATOM     17  O   UNL     1      -2.218  -6.999   1.969  0.00  0.00    -0.275 OA
ATOM     18  H   UNL     1      -1.956  -7.114  -1.103  0.00  0.00    +0.149 HD
BRANCH  15  19
ATOM     19  C   UNL     1      -0.273  -7.426   0.153  0.00  0.00    +0.148 C 
BRANCH  19  20
ATOM     20  C   UNL     1       0.527  -7.612  -1.138  0.00  0.00    +0.187 C 
ATOM     21  C   UNL     1       1.990  -7.898  -0.795  0.00  0.00    +0.053 C 
BRANCH  20  22
ATOM     22  O   UNL     1      -0.012  -8.710  -1.878  0.00  0.00    -0.488 OA
BRANCH  22  27
ATOM     23  C   UNL     1       0.956  -8.773  -7.426  0.00  0.00    +0.044 C 
ATOM     24  C   UNL     1       0.697  -8.756  -5.942  0.00  0.00    -0.050 A 
ATOM     25  C   UNL     1       1.117  -7.681  -5.180  0.00  0.00    +0.007 A 
ATOM     26  C   UNL     1       0.880  -7.663  -3.819  0.00  0.00    +0.046 A 
ATOM     27  C   UNL     1       0.221  -8.725  -3.217  0.00  0.00    +0.121 A 
ATOM     28  C   UNL     1      -0.200  -9.802  -3.983  0.00  0.00    +0.046 A 
ATOM     29  C   UNL     1       0.035  -9.813  -5.345  0.00  0.00    +0.007 A 
ENDBRANCH  22  27
ENDBRANCH  20  22
ENDBRANCH  19  20
ENDBRANCH  15  19
ENDBRANCH   1  16
BRANCH  11  30
ATOM     30  C   UNL     1      -8.505  -6.273   1.880  0.00  0.00    +0.256 C 
ATOM     31  C   UNL     1      -8.622  -7.130   3.142  0.00  0.00    +0.062 C 
BRANCH  30  32
ATOM     32  O   UNL     1      -9.551  -5.299   1.867  0.00  0.00    -0.480 OA
BRANCH  32  33
ATOM     33  C   UNL     1     -10.752  -5.689   1.364  0.00  0.00    +0.122 A 
ATOM     34  C   UNL     1     -11.773  -4.763   1.207  0.00  0.00    +0.045 A 
ATOM     35  C   UNL     1     -12.992  -5.162   0.695  0.00  0.00    +0.004 A 
ATOM     36  C   UNL     1     -13.195  -6.483   0.339  0.00  0.00    +0.000 A 
ATOM     37  C   UNL     1     -12.179  -7.407   0.494  0.00  0.00    +0.004 A 
ATOM     38  C   UNL     1     -10.956  -7.012   1.000  0.00  0.00    +0.045 A 
ENDBRANCH  32  33
ENDBRANCH  30  32
ENDBRANCH  11  30
TORSDOF 8
