REMARK  Name = ZINC04307473
REMARK  7 active torsions:
REMARK  status: ('A' for Active; 'I' for Inactive)
REMARK    1  A    between atoms: C_1  and  C_2
REMARK    2  A    between atoms: C_5  and  N_9
REMARK    3  A    between atoms: C_10  and  C_12
REMARK    4  A    between atoms: C_12  and  N_13
REMARK    5  A    between atoms: C_16  and  C_20
REMARK    6  A    between atoms: C_16  and  C_21
REMARK    7  A    between atoms: C_24  and  N_27
REMARK                            x       y       z     vdW  Elec       q    Type
REMARK                         _______ _______ _______ _____ _____    ______ ____
ROOT
ATOM      1  N   UNL     1       5.947   3.080   0.277  0.00  0.00    -0.215 N 
ATOM      2  C   UNL     1       6.617   2.606  -0.792  0.00  0.00    +0.251 C 
ATOM      3  O   UNL     1       6.407   2.859  -1.959  0.00  0.00    -0.272 OA
ATOM      4  C   UNL     1       7.686   1.689  -0.232  0.00  0.00    +0.135 C 
ATOM      5  N   UNL     1       7.475   1.760   1.224  0.00  0.00    -0.281 N 
ATOM      6  C   UNL     1       6.443   2.599   1.423  0.00  0.00    +0.310 C 
ATOM      7  O   UNL     1       6.007   2.886   2.520  0.00  0.00    -0.252 OA
ATOM      8  C   UNL     1       9.081   2.201  -0.600  0.00  0.00    +0.047 C 
ATOM      9  H   UNL     1       7.983   1.294   1.907  0.00  0.00    +0.152 HD
ENDROOT
BRANCH   4  10
ATOM     10  C   UNL     1       7.490   0.280  -0.729  0.00  0.00    -0.015 A 
ATOM     11  C   UNL     1       6.910   0.057  -1.964  0.00  0.00    +0.008 A 
ATOM     12  C   UNL     1       6.734  -1.236  -2.421  0.00  0.00    +0.033 A 
ATOM     13  C   UNL     1       7.128  -2.306  -1.639  0.00  0.00    +0.126 A 
ATOM     14  C   UNL     1       7.702  -2.083  -0.402  0.00  0.00    +0.033 A 
ATOM     15  C   UNL     1       7.883  -0.790   0.054  0.00  0.00    +0.008 A 
BRANCH  13  16
ATOM     16  N   UNL     1       6.934  -3.690  -2.126  0.00  0.00    +0.056 N 
ATOM     17  O   UNL     1       7.280  -4.632  -1.437  0.00  0.00    -0.126 OA
ATOM     18  O   UNL     1       6.428  -3.886  -3.216  0.00  0.00    -0.126 OA
ENDBRANCH  13  16
ENDBRANCH   4  10
BRANCH   1  19
ATOM     19  C   UNL     1       4.820   4.012   0.194  0.00  0.00    +0.214 C 
BRANCH  19  21
ATOM     20  N   UNL     1       2.357   3.888   0.000  0.00  0.00    -0.283 N 
ATOM     21  C   UNL     1       3.533   3.235   0.088  0.00  0.00    +0.235 C 
ATOM     22  O   UNL     1       3.555   2.023   0.082  0.00  0.00    -0.274 OA
ATOM     23  H   UNL     1       2.344   4.855  -0.075  0.00  0.00    +0.155 HD
BRANCH  20  28
ATOM     24  C   UNL     1      -2.512   0.975   0.066  0.00  0.00    +0.044 C 
ATOM     25  C   UNL     1      -1.220   1.750   0.051  0.00  0.00    -0.049 A 
ATOM     26  C   UNL     1      -0.088   1.216   0.638  0.00  0.00    +0.005 A 
ATOM     27  C   UNL     1       1.100   1.921   0.621  0.00  0.00    +0.025 A 
ATOM     28  C   UNL     1       1.155   3.171   0.019  0.00  0.00    +0.052 A 
ATOM     29  C   UNL     1       0.015   3.708  -0.565  0.00  0.00    +0.062 A 
ATOM     30  C   UNL     1      -1.171   2.997  -0.545  0.00  0.00    +0.025 A 
ATOM     31 CL   UNL     1       0.078   5.270  -1.320  0.00  0.00    -0.082 Cl
ENDBRANCH  20  28
ENDBRANCH  19  21
ENDBRANCH   1  19
TORSDOF 5
