REMARK  Name = ZINC63393351
REMARK  5 active torsions:
REMARK  status: ('A' for Active; 'I' for Inactive)
REMARK    1  A    between atoms: C_3  and  C_8
REMARK    2  A    between atoms: C_11  and  C_15
REMARK    3  A    between atoms: C_17  and  N_21
REMARK    4  A    between atoms: N_21  and  C_22
REMARK    5  A    between atoms: C_22  and  C_23
REMARK                            x       y       z     vdW  Elec       q    Type
REMARK                         _______ _______ _______ _____ _____    ______ ____
ROOT
ATOM      1  C   UNL     1       3.672   2.183  -0.022  0.00  0.00    +0.198 C 
ATOM      2  N   UNL     1       4.731   1.426   0.692  0.00  0.00    -0.267 NA
ATOM      3  C   UNL     1       5.469   2.522   1.369  0.00  0.00    +0.226 C 
ATOM      4  N   UNL     1       4.494   3.614   1.485  0.00  0.00    -0.193 NA
ATOM      5  N   UNL     1       3.527   3.433   0.735  0.00  0.00    -0.290 N 
ATOM      6  H   UNL     1       4.329   0.791   1.365  0.00  0.00    +0.126 HD
ATOM      7  H   UNL     1       2.772   4.037   0.657  0.00  0.00    +0.184 HD
ENDROOT
BRANCH   1  10
ATOM      8  C   UNL     1      -0.017   1.378   0.010  0.00  0.00    +0.001 A 
ATOM      9  C   UNL     1       1.171   2.086   0.002  0.00  0.00    +0.007 A 
ATOM     10  C   UNL     1       2.378   1.411  -0.013  0.00  0.00    -0.008 A 
ATOM     11  C   UNL     1       2.397   0.029  -0.022  0.00  0.00    +0.022 A 
ATOM     12  C   UNL     1       1.210  -0.679  -0.014  0.00  0.00    +0.018 A 
ATOM     13  C   UNL     1       0.002  -0.004   0.002  0.00  0.00    +0.015 A 
ATOM     14 BR   UNL     1       1.236  -2.570  -0.025  0.00  0.00    -0.050 Br
ENDBRANCH   1  10
BRANCH   3  15
ATOM     15  C   UNL     1       5.937   2.072   2.755  0.00  0.00    +0.214 C 
ATOM     16  C   UNL     1       6.640   3.207   3.479  0.00  0.00    +0.054 C 
ATOM     17  C   UNL     1       7.893   2.734   3.671  0.00  0.00    +0.155 C 
ATOM     18  N   UNL     1       8.014   1.503   3.168  0.00  0.00    -0.160 NA
ATOM     19  N   UNL     1       6.990   1.049   2.643  0.00  0.00    -0.175 NA
BRANCH  16  20
ATOM     20  N   UNL     1       6.127   4.424   3.851  0.00  0.00    -0.340 N 
ATOM     21  H   UNL     1       5.203   4.642   3.651  0.00  0.00    +0.146 HD
BRANCH  20  22
ATOM     22  C   UNL     1       6.974   5.394   4.549  0.00  0.00    +0.136 C 
BRANCH  22  23
ATOM     23  C   UNL     1       6.176   6.638   4.842  0.00  0.00    -0.028 A 
ATOM     24  C   UNL     1       6.130   7.683   3.931  0.00  0.00    +0.025 A 
ATOM     25  C   UNL     1       5.388   8.809   4.234  0.00  0.00    +0.111 A 
ATOM     26  N   UNL     1       4.729   8.896   5.373  0.00  0.00    -0.263 NA
ATOM     27  C   UNL     1       4.750   7.922   6.262  0.00  0.00    +0.111 A 
ATOM     28  C   UNL     1       5.465   6.764   6.026  0.00  0.00    +0.025 A 
ENDBRANCH  22  23
ENDBRANCH  20  22
ENDBRANCH  16  20
ENDBRANCH   3  15
TORSDOF 5
