REMARK  Name = ZINC23845380
REMARK  7 active torsions:
REMARK  status: ('A' for Active; 'I' for Inactive)
REMARK    1  A    between atoms: C_1  and  C_2
REMARK    2  A    between atoms: C_2  and  C_3
REMARK    3  A    between atoms: C_2  and  C_4
REMARK    4  A    between atoms: C_4  and  C_5
REMARK    5  A    between atoms: N_9  and  C_13
REMARK    6  A    between atoms: C_13  and  N_14
REMARK    7  A    between atoms: C_17  and  C_20
REMARK                            x       y       z     vdW  Elec       q    Type
REMARK                         _______ _______ _______ _____ _____    ______ ____
ROOT
ATOM      1  N   UNL     1      -5.764  -1.222  -3.561  0.00  0.00    +0.391 N 
ATOM      2  C   UNL     1      -6.467  -0.128  -2.878  0.00  0.00    -0.076 C 
ATOM      3  C   UNL     1      -7.101   0.799  -3.917  0.00  0.00    -0.006 C 
ATOM      4  C   UNL     1      -8.081  -0.002  -4.778  0.00  0.00    +0.072 C 
ATOM      5  C   UNL     1      -7.335  -1.163  -5.440  0.00  0.00    -0.006 C 
ATOM      6  C   UNL     1      -6.694  -2.034  -4.357  0.00  0.00    -0.076 C 
ATOM      7  H   UNL     1      -5.035  -0.773  -4.252  0.00  0.00    -0.079 HD
ENDROOT
BRANCH   4   8
ATOM      8  C   UNL     1      -8.666   0.892  -5.842  0.00  0.00    +0.200 A 
ATOM      9  N   UNL     1      -7.976   1.521  -6.745  0.00  0.00    -0.213 NA
ATOM     10  C   UNL     1      -8.829   2.227  -7.536  0.00  0.00    +0.110 A 
ATOM     11  C   UNL     1      -8.655   3.064  -8.639  0.00  0.00    +0.031 A 
ATOM     12  C   UNL     1      -9.750   3.651  -9.231  0.00  0.00    +0.002 A 
ATOM     13  C   UNL     1     -11.025   3.416  -8.737  0.00  0.00    +0.004 A 
ATOM     14  C   UNL     1     -11.213   2.591  -7.648  0.00  0.00    +0.048 A 
ATOM     15  C   UNL     1     -10.120   1.991  -7.040  0.00  0.00    +0.155 A 
ATOM     16  O   UNL     1      -9.974   1.157  -5.987  0.00  0.00    -0.439 OA
ENDBRANCH   4   8
BRANCH   1  17
ATOM     17  C   UNL     1      -5.027  -2.055  -2.601  0.00  0.00    +0.042 C 
BRANCH  17  21
ATOM     18  C   UNL     1      -2.135  -0.131  -1.286  0.00  0.00    +0.161 C 
ATOM     19  C   UNL     1      -3.595  -0.536  -1.250  0.00  0.00    +0.242 C 
ATOM     20  O   UNL     1      -4.442  -0.158  -0.469  0.00  0.00    -0.273 OA
ATOM     21  N   UNL     1      -3.757  -1.406  -2.267  0.00  0.00    -0.241 N 
ATOM     22  C   UNL     1      -2.614  -1.605  -2.933  0.00  0.00    +0.307 C 
ATOM     23  O   UNL     1      -2.509  -2.347  -3.889  0.00  0.00    -0.252 OA
ATOM     24  N   UNL     1      -1.593  -0.891  -2.425  0.00  0.00    -0.288 N 
ATOM     25  H   UNL     1      -0.531  -0.794  -2.695  0.00  0.00    +0.151 HD
BRANCH  18  26
ATOM     26  C   UNL     1      -1.433  -0.534   0.013  0.00  0.00    +0.034 C 
BRANCH  26  28
ATOM     27  C   UNL     1      -0.019   1.526   0.010  0.00  0.00    +0.007 C 
ATOM     28  C   UNL     1       0.002  -0.004   0.002  0.00  0.00    -0.015 C 
ATOM     29  C   UNL     1       0.742  -0.511   1.242  0.00  0.00    +0.007 C 
ENDBRANCH  26  28
ENDBRANCH  18  26
ENDBRANCH  17  21
ENDBRANCH   1  17
TORSDOF 5
