REMARK  Name = ZINC23151967
REMARK  9 active torsions:
REMARK  status: ('A' for Active; 'I' for Inactive)
REMARK    1  A    between atoms: C_1  and  C_2
REMARK    2  A    between atoms: C_7  and  C_9
REMARK    3  A    between atoms: C_7  and  C_10
REMARK    4  A    between atoms: N_13  and  C_17
REMARK    5  A    between atoms: C_17  and  C_18
REMARK    6  A    between atoms: N_20  and  C_21
REMARK    7  A    between atoms: C_26  and  N_27
REMARK    8  A    between atoms: N_27  and  C_28
REMARK    9  A    between atoms: N_27  and  C_29
REMARK                            x       y       z     vdW  Elec       q    Type
REMARK                         _______ _______ _______ _____ _____    ______ ____
ROOT
ATOM      1  C   UNL     1      -0.447   1.546   0.586  0.00  0.00    +0.007 C 
ATOM      2  C   UNL     1      -0.349   0.041   0.327  0.00  0.00    -0.011 C 
ATOM      3  C   UNL     1       0.503  -0.208  -0.920  0.00  0.00    +0.038 C 
ATOM      4  C   UNL     1       0.619  -1.708  -1.168  0.00  0.00    +0.113 C 
ATOM      5  C   UNL     1       1.245  -2.406   0.034  0.00  0.00    +0.041 C 
ATOM      6  C   UNL     1       0.390  -2.150   1.278  0.00  0.00    -0.032 C 
ATOM      7  C   UNL     1       0.300  -0.643   1.532  0.00  0.00    +0.009 C 
ATOM      8  C   UNL     1      -1.014  -2.715   1.057  0.00  0.00    +0.011 C 
ATOM      9  C   UNL     1       1.030  -2.833   2.488  0.00  0.00    +0.011 C 
ATOM     10  C   UNL     1       1.429  -1.976  -2.415  0.00  0.00    +0.247 C 
ATOM     11  O   UNL     1       2.585  -1.675  -2.618  0.00  0.00    -0.273 OA
ATOM     12  N   UNL     1       0.594  -2.623  -3.255  0.00  0.00    -0.215 N 
ATOM     13  C   UNL     1      -0.617  -2.795  -2.710  0.00  0.00    +0.310 C 
ATOM     14  O   UNL     1      -1.539  -3.351  -3.273  0.00  0.00    -0.252 OA
ATOM     15  N   UNL     1      -0.699  -2.283  -1.467  0.00  0.00    -0.285 N 
ATOM     16  H   UNL     1      -1.475  -2.291  -0.885  0.00  0.00    +0.151 HD
ENDROOT
BRANCH  12  17
ATOM     17  C   UNL     1       0.965  -3.079  -4.596  0.00  0.00    +0.214 C 
BRANCH  17  18
ATOM     18  C   UNL     1       1.513  -4.481  -4.516  0.00  0.00    +0.235 C 
ATOM     19  O   UNL     1       1.586  -5.043  -3.443  0.00  0.00    -0.274 OA
ATOM     20  N   UNL     1       1.922  -5.110  -5.635  0.00  0.00    -0.283 N 
ATOM     21  H   UNL     1       1.923  -4.639  -6.483  0.00  0.00    +0.155 HD
BRANCH  20  22
ATOM     22  C   UNL     1       2.347  -6.444  -5.574  0.00  0.00    +0.055 A 
ATOM     23  C   UNL     1       2.899  -6.945  -4.405  0.00  0.00    +0.025 A 
ATOM     24  C   UNL     1       3.318  -8.261  -4.347  0.00  0.00    +0.002 A 
ATOM     25  C   UNL     1       3.188  -9.082  -5.453  0.00  0.00    +0.002 A 
ATOM     26  C   UNL     1       2.639  -8.591  -6.622  0.00  0.00    +0.025 A 
ATOM     27  C   UNL     1       2.211  -7.273  -6.687  0.00  0.00    +0.051 A 
BRANCH  27  28
ATOM     28  N   UNL     1       1.649  -6.776  -7.868  0.00  0.00    -0.335 N 
ATOM     29  C   UNL     1       0.203  -6.864  -8.086  0.00  0.00    +0.129 C 
ATOM     30  C   UNL     1       2.508  -6.166  -8.887  0.00  0.00    +0.129 C 
ENDBRANCH  27  28
ENDBRANCH  20  22
ENDBRANCH  17  18
ENDBRANCH  12  17
TORSDOF 4
