REMARK  Name = ZINC12717516
REMARK  11 active torsions:
REMARK  status: ('A' for Active; 'I' for Inactive)
REMARK    1  A    between atoms: C_1  and  C_2
REMARK    2  A    between atoms: C_7  and  C_14
REMARK    3  A    between atoms: C_14  and  N_62
REMARK    4  A    between atoms: C_15  and  C_16
REMARK    5  A    between atoms: C_15  and  N_62
REMARK    6  A    between atoms: C_25  and  C_26
REMARK    7  A    between atoms: C_25  and  N_62
REMARK    8  A    between atoms: N_30  and  C_31
REMARK    9  A    between atoms: C_31  and  C_32
REMARK   10  A    between atoms: C_31  and  C_33
REMARK   11  A    between atoms: C_31  and  C_34
REMARK                            x       y       z     vdW  Elec       q    Type
REMARK                         _______ _______ _______ _____ _____    ______ ____
ROOT
ATOM      1  N   UNL     1       6.325  -1.747   1.306  0.00  0.00    +0.390 N 
ATOM      2  H   UNL     1       6.077  -2.584   0.765  0.00  0.00    -0.080 HD
ENDROOT
BRANCH   1   3
ATOM      3  C   UNL     1       7.670  -1.933   1.889  0.00  0.00    -0.036 C 
BRANCH   3  10
ATOM      4  C   UNL     1       8.616  -9.613   3.823  0.00  0.00    +0.044 C 
ATOM      5  C   UNL     1       8.528  -8.221   3.251  0.00  0.00    -0.048 A 
ATOM      6  C   UNL     1       8.966  -7.983   1.955  0.00  0.00    +0.004 A 
ATOM      7  C   UNL     1       8.895  -6.729   1.418  0.00  0.00    +0.010 A 
ATOM      8  C   UNL     1       8.377  -5.676   2.179  0.00  0.00    -0.001 A 
ATOM      9  C   UNL     1       8.287  -4.320   1.635  0.00  0.00    +0.017 A 
ATOM     10  C   UNL     1       7.777  -3.339   2.419  0.00  0.00    +0.001 A 
ATOM     11  C   UNL     1       7.350  -3.630   3.733  0.00  0.00    +0.251 A 
ATOM     12  O   UNL     1       6.899  -2.732   4.423  0.00  0.00    -0.268 OA
ATOM     13  N   UNL     1       7.424  -4.873   4.240  0.00  0.00    -0.322 N 
ATOM     14  H   UNL     1       7.118  -5.039   5.146  0.00  0.00    +0.169 HD
ATOM     15  C   UNL     1       7.932  -5.914   3.493  0.00  0.00    +0.049 A 
ATOM     16  C   UNL     1       8.015  -7.199   4.020  0.00  0.00    +0.029 A 
ENDBRANCH   3  10
ENDBRANCH   1   3
BRANCH   1  17
ATOM     17  C   UNL     1       5.329  -1.559   2.382  0.00  0.00    -0.042 C 
BRANCH  17  18
ATOM     18  C   UNL     1       3.949  -1.593   1.778  0.00  0.00    -0.060 A 
ATOM     19  C   UNL     1       3.281  -2.797   1.652  0.00  0.00    +0.005 A 
ATOM     20  C   UNL     1       2.014  -2.834   1.098  0.00  0.00    +0.050 A 
ATOM     21  C   UNL     1       1.411  -1.663   0.668  0.00  0.00    +0.166 A 
ATOM     22  C   UNL     1       2.084  -0.450   0.796  0.00  0.00    +0.166 A 
ATOM     23  C   UNL     1       3.353  -0.421   1.352  0.00  0.00    +0.051 A 
ATOM     24  O   UNL     1       1.288   0.544   0.305  0.00  0.00    -0.453 OA
ATOM     25  C   UNL     1      -0.038  -0.016   0.253  0.00  0.00    +0.466 C 
ATOM     26  O   UNL     1       0.194  -1.428   0.098  0.00  0.00    -0.453 OA
ENDBRANCH  17  18
ENDBRANCH   1  17
BRANCH   1  27
ATOM     27  C   UNL     1       6.322  -0.575   0.405  0.00  0.00    +0.001 C 
BRANCH  27  28
ATOM     28  C   UNL     1       7.269  -0.837  -0.738  0.00  0.00    +0.136 A 
ATOM     29  N   UNL     1       8.562  -0.620  -0.750  0.00  0.00    -0.115 NA
ATOM     30  N   UNL     1       9.014  -0.972  -1.903  0.00  0.00    -0.023 NA
ATOM     31  N   UNL     1       8.043  -1.401  -2.631  0.00  0.00    -0.043 NA
ATOM     32  N   UNL     1       6.950  -1.333  -1.948  0.00  0.00    -0.226 N 
BRANCH  32  33
ATOM     33  C   UNL     1       5.614  -1.723  -2.404  0.00  0.00    +0.059 C 
ATOM     34  C   UNL     1       4.710  -0.489  -2.450  0.00  0.00    +0.036 C 
ATOM     35  C   UNL     1       5.711  -2.336  -3.803  0.00  0.00    +0.036 C 
ATOM     36  C   UNL     1       5.024  -2.752  -1.437  0.00  0.00    +0.036 C 
ENDBRANCH  32  33
ENDBRANCH  27  28
ENDBRANCH   1  27
TORSDOF 7
