REMARK  Name = ZINC41068004
REMARK  3 active torsions:
REMARK  status: ('A' for Active; 'I' for Inactive)
REMARK    1  A    between atoms: C_2  and  N_21
REMARK    2  A    between atoms: C_5  and  S_6
REMARK    3  A    between atoms: S_6  and  N_9
REMARK                            x       y       z     vdW  Elec       q    Type
REMARK                         _______ _______ _______ _____ _____    ______ ____
ROOT
ATOM      1  S   UNL     1      -1.352  -1.131   0.009  0.00  0.00    +0.067 S 
ATOM      2  O   UNL     1      -0.961  -2.373   0.577  0.00  0.00    -0.152 OA
ATOM      3  O   UNL     1      -2.409  -0.347   0.546  0.00  0.00    -0.152 OA
ENDROOT
BRANCH   1   4
ATOM      4  N   UNL     1      -1.744  -1.436  -1.570  0.00  0.00    -0.173 NA
ATOM      5  C   UNL     1      -2.804  -0.671  -2.247  0.00  0.00    +0.110 C 
ATOM      6  C   UNL     1      -3.816  -1.647  -2.854  0.00  0.00    +0.017 C 
ATOM      7  C   UNL     1      -3.088  -2.654  -3.750  0.00  0.00    +0.006 C 
ATOM      8  C   UNL     1      -2.085  -3.441  -2.909  0.00  0.00    +0.008 C 
ATOM      9  C   UNL     1      -1.041  -2.471  -2.335  0.00  0.00    +0.083 C 
ATOM     10  C   UNL     1      -0.079  -3.244  -1.434  0.00  0.00    +0.021 C 
ATOM     11  C   UNL     1       0.639  -4.309  -2.268  0.00  0.00    +0.002 C 
ATOM     12  C   UNL     1      -0.383  -5.267  -2.880  0.00  0.00    +0.000 C 
ATOM     13  C   UNL     1      -1.368  -4.487  -3.761  0.00  0.00    +0.005 C 
ENDBRANCH   1   4
BRANCH   1  18
ATOM     14  C   UNL     1       0.162   1.247  -0.015  0.00  0.00    +0.059 A 
ATOM     15  C   UNL     1       1.412   1.845  -0.017  0.00  0.00    +0.034 A 
ATOM     16  C   UNL     1       2.517   1.054  -0.002  0.00  0.00    +0.069 A 
ATOM     17  S   UNL     1       1.802  -0.582   0.015  0.00  0.00    -0.075 S 
ATOM     18  C   UNL     1       0.081  -0.106   0.002  0.00  0.00    +0.144 A 
BRANCH  15  19
ATOM     19  N   UNL     1       1.535   3.247  -0.034  0.00  0.00    -0.358 N 
ATOM     20  H   UNL     1       0.741   3.804  -0.045  0.00  0.00    +0.142 HD
ATOM     21  H   UNL     1       2.414   3.657  -0.036  0.00  0.00    +0.142 HD
ENDBRANCH  15  19
ENDBRANCH   1  18
TORSDOF 3
