REMARK  Name = ZINC37604950
REMARK  9 active torsions:
REMARK  status: ('A' for Active; 'I' for Inactive)
REMARK    1  A    between atoms: C_1  and  C_2
REMARK    2  A    between atoms: C_10  and  O_21
REMARK    3  A    between atoms: C_13  and  C_15
REMARK    4  A    between atoms: O_21  and  C_22
REMARK    5  A    between atoms: C_22  and  C_23
REMARK    6  A    between atoms: C_25  and  C_28
REMARK    7  A    between atoms: N_30  and  C_31
REMARK    8  A    between atoms: N_30  and  C_32
REMARK    9  A    between atoms: C_32  and  C_33
REMARK                            x       y       z     vdW  Elec       q    Type
REMARK                         _______ _______ _______ _____ _____    ______ ____
ROOT
ATOM      1  C   UNL     1      -0.220   2.723  -0.964  0.00  0.00    +0.109 C 
ATOM      2  C   UNL     1       0.316   1.327  -0.779  0.00  0.00    +0.213 C 
ATOM      3  O   UNL     1       0.625   0.937   0.327  0.00  0.00    -0.276 OA
ATOM      4  N   UNL     1       0.453   0.511  -1.843  0.00  0.00    -0.290 N 
ATOM      5  C   UNL     1       0.222   0.996  -3.215  0.00  0.00    +0.113 C 
ATOM      6  C   UNL     1       1.546   0.910  -3.972  0.00  0.00    +0.054 C 
ATOM      7  C   UNL     1       2.199  -0.431  -3.762  0.00  0.00    -0.040 A 
ATOM      8  C   UNL     1       3.156  -0.833  -4.686  0.00  0.00    +0.007 A 
ATOM      9  C   UNL     1       3.800  -2.043  -4.550  0.00  0.00    +0.046 A 
ATOM     10  C   UNL     1       3.492  -2.871  -3.480  0.00  0.00    +0.121 A 
ATOM     11  C   UNL     1       2.536  -2.473  -2.561  0.00  0.00    +0.051 A 
ATOM     12  C   UNL     1       1.886  -1.256  -2.704  0.00  0.00    -0.016 A 
ATOM     13  C   UNL     1       0.843  -0.894  -1.683  0.00  0.00    +0.137 C 
ENDROOT
BRANCH  13  14
ATOM     14  C   UNL     1       1.402  -1.104  -0.299  0.00  0.00    -0.023 A 
ATOM     15  C   UNL     1       2.498  -0.373   0.121  0.00  0.00    +0.006 A 
ATOM     16  C   UNL     1       3.011  -0.566   1.390  0.00  0.00    +0.000 A 
ATOM     17  C   UNL     1       2.429  -1.489   2.239  0.00  0.00    +0.000 A 
ATOM     18  C   UNL     1       1.332  -2.218   1.818  0.00  0.00    +0.000 A 
ATOM     19  C   UNL     1       0.816  -2.023   0.551  0.00  0.00    +0.006 A 
ENDBRANCH  13  14
BRANCH  10  20
ATOM     20  O   UNL     1       4.125  -4.065  -3.335  0.00  0.00    -0.485 OA
BRANCH  20  21
ATOM     21  C   UNL     1       5.099  -4.407  -4.323  0.00  0.00    +0.291 C 
BRANCH  21  22
ATOM     22  C   UNL     1       5.690  -5.755  -3.999  0.00  0.00    +0.116 A 
ATOM     23  N   UNL     1       5.280  -6.930  -4.393  0.00  0.00    -0.236 NA
ATOM     24  C   UNL     1       5.957  -8.008  -3.986  0.00  0.00    +0.133 A 
ATOM     25  C   UNL     1       7.037  -7.771  -3.179  0.00  0.00    +0.080 A 
ATOM     26  S   UNL     1       7.036  -6.096  -3.055  0.00  0.00    -0.076 S 
BRANCH  24  27
ATOM     27  C   UNL     1       5.563  -9.371  -4.381  0.00  0.00    +0.266 C 
ATOM     28  O   UNL     1       6.268 -10.317  -4.086  0.00  0.00    -0.268 OA
ATOM     29  N   UNL     1       4.421  -9.570  -5.069  0.00  0.00    -0.295 N 
ATOM     30  C   UNL     1       3.607  -8.424  -5.483  0.00  0.00    +0.132 C 
BRANCH  29  31
ATOM     31  C   UNL     1       3.996 -10.931  -5.405  0.00  0.00    +0.142 C 
BRANCH  31  32
ATOM     32  C   UNL     1       3.126 -11.472  -4.299  0.00  0.00    -0.030 A 
ATOM     33  C   UNL     1       3.698 -12.153  -3.241  0.00  0.00    +0.005 A 
ATOM     34  C   UNL     1       2.901 -12.649  -2.227  0.00  0.00    +0.000 A 
ATOM     35  C   UNL     1       1.531 -12.464  -2.270  0.00  0.00    +0.000 A 
ATOM     36  C   UNL     1       0.960 -11.781  -3.328  0.00  0.00    +0.000 A 
ATOM     37  C   UNL     1       1.758 -11.281  -4.340  0.00  0.00    +0.005 A 
ENDBRANCH  31  32
ENDBRANCH  29  31
ENDBRANCH  24  27
ENDBRANCH  21  22
ENDBRANCH  20  21
ENDBRANCH  10  20
TORSDOF 7
