REMARK  Name = ZINC18355298
REMARK  13 active torsions:
REMARK  status: ('A' for Active; 'I' for Inactive)
REMARK    1  A    between atoms: C_1  and  C_2
REMARK    2  A    between atoms: C_2  and  C_3
REMARK    3  A    between atoms: N_11  and  C_15
REMARK    4  A    between atoms: C_15  and  C_16
REMARK    5  A    between atoms: C_16  and  O_18
REMARK    6  A    between atoms: O_18  and  C_19
REMARK    7  A    between atoms: C_19  and  C_21
REMARK    8  A    between atoms: C_19  and  C_22
REMARK    9  A    between atoms: C_22  and  C_24
REMARK   10  A    between atoms: C_25  and  C_34
REMARK   11  A    between atoms: C_26  and  C_31
REMARK   12  A    between atoms: C_27  and  C_30
REMARK   13  A    between atoms: C_31  and  C_33
REMARK                            x       y       z     vdW  Elec       q    Type
REMARK                         _______ _______ _______ _____ _____    ______ ____
ROOT
ATOM      1  C   UNL     1      -4.777  -2.825   5.074  0.00  0.00    +0.326 C 
ATOM      2  O   UNL     1      -5.123  -1.674   5.200  0.00  0.00    -0.249 OA
ENDROOT
BRANCH   1   3
ATOM      3  C   UNL     1      -4.670  -3.434   3.700  0.00  0.00    +0.238 C 
BRANCH   3  12
ATOM      4  C   UNL     1      -3.011   1.031  -0.056  0.00  0.00    -0.011 C 
ATOM      5  C   UNL     1      -3.471   1.220   1.391  0.00  0.00    +0.006 C 
ATOM      6  C   UNL     1      -4.910   0.718   1.536  0.00  0.00    +0.035 C 
ATOM      7  C   UNL     1      -4.979  -0.756   1.152  0.00  0.00    +0.113 C 
ATOM      8  C   UNL     1      -4.498  -0.964  -0.280  0.00  0.00    +0.035 C 
ATOM      9  C   UNL     1      -3.061  -0.455  -0.418  0.00  0.00    +0.006 C 
ATOM     10  C   UNL     1      -4.159  -1.590   2.110  0.00  0.00    +0.247 C 
ATOM     11  O   UNL     1      -2.966  -1.516   2.312  0.00  0.00    -0.273 OA
ATOM     12  N   UNL     1      -5.036  -2.434   2.693  0.00  0.00    -0.213 N 
ATOM     13  C   UNL     1      -6.280  -2.246   2.237  0.00  0.00    +0.310 C 
ATOM     14  O   UNL     1      -7.242  -2.887   2.612  0.00  0.00    -0.252 OA
ATOM     15  N   UNL     1      -6.346  -1.266   1.315  0.00  0.00    -0.285 N 
ATOM     16  H   UNL     1      -7.140  -0.958   0.850  0.00  0.00    +0.151 HD
BRANCH   4  18
ATOM     17  C   UNL     1      -1.548   3.054   0.034  0.00  0.00    +0.004 C 
ATOM     18  C   UNL     1      -1.577   1.544  -0.206  0.00  0.00    -0.000 C 
ENDBRANCH   4  18
ENDBRANCH   3  12
ENDBRANCH   1   3
BRANCH   1  19
ATOM     19  O   UNL     1      -4.489  -3.561   6.159  0.00  0.00    -0.452 OA
BRANCH  19  20
ATOM     20  C   UNL     1      -4.612  -2.919   7.430  0.00  0.00    +0.245 C 
ATOM     21  C   UNL     1      -3.279  -2.268   7.803  0.00  0.00    +0.061 C 
BRANCH  20  22
ATOM     22  C   UNL     1      -4.982  -3.941   8.474  0.00  0.00    +0.219 C 
ATOM     23  O   UNL     1      -4.778  -5.120   8.269  0.00  0.00    -0.287 OA
BRANCH  22  24
ATOM     24  C   UNL     1      -5.568  -3.525   9.694  0.00  0.00    +0.090 A 
ATOM     25  C   UNL     1      -5.947  -4.348  10.731  0.00  0.00    -0.012 A 
ATOM     26  C   UNL     1      -6.481  -3.515  11.741  0.00  0.00    +0.041 A 
ATOM     27  C   UNL     1      -6.404  -2.211  11.276  0.00  0.00    +0.024 A 
ATOM     28  N   UNL     1      -5.852  -2.223  10.055  0.00  0.00    -0.355 N 
ATOM     29  H   UNL     1      -5.682  -1.440   9.508  0.00  0.00    +0.166 HD
ATOM     30  C   UNL     1      -6.860  -0.984  12.022  0.00  0.00    +0.064 C 
ATOM     31  C   UNL     1      -5.818  -5.849  10.779  0.00  0.00    +0.047 C 
BRANCH  26  32
ATOM     32  C   UNL     1      -7.015  -3.949  13.036  0.00  0.00    +0.162 C 
ATOM     33  O   UNL     1      -8.181  -4.270  13.134  0.00  0.00    -0.292 OA
ATOM     34  C   UNL     1      -6.116  -3.995  14.244  0.00  0.00    +0.091 C 
ENDBRANCH  26  32
ENDBRANCH  22  24
ENDBRANCH  20  22
ENDBRANCH  19  20
ENDBRANCH   1  19
TORSDOF 8
