REMARK  Name = ZINC14383023
REMARK  11 active torsions:
REMARK  status: ('A' for Active; 'I' for Inactive)
REMARK    1  A    between atoms: C_1  and  C_2
REMARK    2  A    between atoms: C_2  and  C_3
REMARK    3  A    between atoms: C_2  and  C_4
REMARK    4  A    between atoms: C_4  and  C_5
REMARK    5  A    between atoms: C_5  and  C_6
REMARK    6  A    between atoms: N_8  and  C_9
REMARK    7  A    between atoms: N_8  and  C_16
REMARK    8  A    between atoms: C_9  and  C_10
REMARK    9  A    between atoms: C_17  and  N_32
REMARK   10  A    between atoms: N_18  and  C_25
REMARK   11  A    between atoms: C_25  and  C_26
REMARK                            x       y       z     vdW  Elec       q    Type
REMARK                         _______ _______ _______ _____ _____    ______ ____
ROOT
ATOM      1  C   UNL     1       3.844  -1.919  -2.283  0.00  0.00    +0.140 A 
ATOM      2  C   UNL     1       2.534  -2.292  -2.508  0.00  0.00    +0.128 A 
ATOM      3  N   UNL     1       2.271  -3.336  -3.364  0.00  0.00    -0.276 N 
ATOM      4  C   UNL     1       3.279  -3.992  -3.968  0.00  0.00    +0.331 A 
ATOM      5  O   UNL     1       3.025  -4.915  -4.718  0.00  0.00    -0.246 OA
ATOM      6  N   UNL     1       4.561  -3.646  -3.757  0.00  0.00    -0.273 N 
ATOM      7  H   UNL     1       5.291  -4.150  -4.218  0.00  0.00    +0.173 HD
ATOM      8  C   UNL     1       4.873  -2.628  -2.931  0.00  0.00    +0.277 A 
ATOM      9  O   UNL     1       6.039  -2.322  -2.747  0.00  0.00    -0.266 OA
ENDROOT
BRANCH   1  12
ATOM     10  C   UNL     1       4.698   0.281  -1.903  0.00  0.00    +0.220 C 
ATOM     11  O   UNL     1       4.854   0.413  -3.099  0.00  0.00    -0.275 OA
ATOM     12  N   UNL     1       4.146  -0.849  -1.415  0.00  0.00    -0.260 N 
BRANCH  10  13
ATOM     13  C   UNL     1       5.121   1.380  -0.963  0.00  0.00    +0.096 C 
BRANCH  13  14
ATOM     14  C   UNL     1       5.665   2.561  -1.770  0.00  0.00    +0.012 C 
BRANCH  14  16
ATOM     15  C   UNL     1       6.753   4.804  -1.612  0.00  0.00    +0.007 C 
ATOM     16  C   UNL     1       6.095   3.676  -0.815  0.00  0.00    -0.017 C 
ATOM     17  C   UNL     1       4.868   4.220  -0.080  0.00  0.00    +0.007 C 
ENDBRANCH  14  16
ENDBRANCH  13  14
ENDBRANCH  10  13
BRANCH  12  18
ATOM     18  C   UNL     1       3.860  -0.965   0.018  0.00  0.00    +0.149 C 
BRANCH  18  19
ATOM     19  C   UNL     1       5.001  -1.673   0.702  0.00  0.00    -0.030 A 
ATOM     20  C   UNL     1       6.008  -0.941   1.303  0.00  0.00    +0.005 A 
ATOM     21  C   UNL     1       7.054  -1.590   1.930  0.00  0.00    +0.000 A 
ATOM     22  C   UNL     1       7.095  -2.972   1.956  0.00  0.00    +0.000 A 
ATOM     23  C   UNL     1       6.088  -3.704   1.355  0.00  0.00    +0.000 A 
ATOM     24  C   UNL     1       5.042  -3.055   0.727  0.00  0.00    +0.005 A 
ENDBRANCH  18  19
ENDBRANCH  12  18
ENDBRANCH   1  12
BRANCH   2  25
ATOM     25  N   UNL     1       1.505  -1.625  -1.888  0.00  0.00    -0.343 N 
ATOM     26  H   UNL     1       1.690  -0.837  -1.354  0.00  0.00    +0.144 HD
ATOM     27  H   UNL     1       0.594  -1.943  -1.983  0.00  0.00    +0.144 HD
ENDBRANCH   2  25
BRANCH   3  28
ATOM     28  C   UNL     1       0.885  -3.740  -3.616  0.00  0.00    +0.163 C 
BRANCH  28  29
ATOM     29  C   UNL     1       0.476  -4.783  -2.608  0.00  0.00    -0.028 A 
ATOM     30  C   UNL     1       0.667  -6.124  -2.885  0.00  0.00    +0.005 A 
ATOM     31  C   UNL     1       0.296  -7.081  -1.960  0.00  0.00    +0.000 A 
ATOM     32  C   UNL     1      -0.277  -6.698  -0.761  0.00  0.00    +0.000 A 
ATOM     33  C   UNL     1      -0.473  -5.358  -0.486  0.00  0.00    +0.000 A 
ATOM     34  C   UNL     1      -0.097  -4.400  -1.410  0.00  0.00    +0.005 A 
ENDBRANCH  28  29
ENDBRANCH   3  28
TORSDOF 9
