REMARK  Name = ZINC11000023
REMARK  8 active torsions:
REMARK  status: ('A' for Active; 'I' for Inactive)
REMARK    1  A    between atoms: C_1  and  C_2
REMARK    2  A    between atoms: C_2  and  C_3
REMARK    3  A    between atoms: C_3  and  C_4
REMARK    4  A    between atoms: C_4  and  N_5
REMARK    5  A    between atoms: C_11  and  C_16
REMARK    6  A    between atoms: N_18  and  C_19
REMARK    7  A    between atoms: C_22  and  S_25
REMARK    8  A    between atoms: S_25  and  N_28
REMARK                            x       y       z     vdW  Elec       q    Type
REMARK                         _______ _______ _______ _____ _____    ______ ____
ROOT
ATOM      1  C   UNL     1       2.454   3.931   0.166  0.00  0.00    +0.248 C 
ATOM      2  O   UNL     1       2.465   5.136   0.326  0.00  0.00    -0.270 OA
ATOM      3  N   UNL     1       3.611   3.265  -0.015  0.00  0.00    -0.282 N 
ATOM      4  H   UNL     1       3.611   2.296  -0.066  0.00  0.00    +0.155 HD
ENDROOT
BRANCH   1  11
ATOM      5  N   UNL     1      -3.407   2.481   0.434  0.00  0.00    -0.234 N 
ATOM      6  C   UNL     1      -2.653   1.386   0.228  0.00  0.00    +0.254 C 
ATOM      7  O   UNL     1      -3.068   0.251   0.108  0.00  0.00    -0.270 OA
ATOM      8  C   UNL     1      -1.232   1.798   0.165  0.00  0.00    +0.049 A 
ATOM      9  C   UNL     1      -0.038   1.118  -0.015  0.00  0.00    +0.014 A 
ATOM     10  C   UNL     1       1.159   1.814  -0.016  0.00  0.00    +0.014 A 
ATOM     11  C   UNL     1       1.170   3.196   0.169  0.00  0.00    +0.038 A 
ATOM     12  C   UNL     1      -0.030   3.889   0.357  0.00  0.00    +0.027 A 
ATOM     13  C   UNL     1      -1.228   3.195   0.358  0.00  0.00    +0.050 A 
ATOM     14  C   UNL     1      -2.644   3.585   0.523  0.00  0.00    +0.254 C 
ATOM     15  O   UNL     1      -3.051   4.714   0.707  0.00  0.00    -0.270 OA
BRANCH   5  16
ATOM     16  C   UNL     1      -4.867   2.471   0.548  0.00  0.00    +0.117 C 
BRANCH  16  17
ATOM     17  C   UNL     1      -5.488   2.659  -0.837  0.00  0.00    +0.019 C 
BRANCH  17  19
ATOM     18  C   UNL     1      -7.634   2.837  -2.104  0.00  0.00    +0.004 C 
ATOM     19  C   UNL     1      -7.013   2.650  -0.719  0.00  0.00    -0.002 C 
ENDBRANCH  17  19
ENDBRANCH  16  17
ENDBRANCH   5  16
ENDBRANCH   1  11
BRANCH   3  20
ATOM     20  C   UNL     1       4.814   3.970  -0.128  0.00  0.00    +0.034 A 
ATOM     21  C   UNL     1       4.833   5.220  -0.733  0.00  0.00    +0.025 A 
ATOM     22  C   UNL     1       6.021   5.916  -0.839  0.00  0.00    +0.030 A 
ATOM     23  C   UNL     1       7.193   5.365  -0.353  0.00  0.00    +0.109 A 
ATOM     24  C   UNL     1       7.178   4.118   0.245  0.00  0.00    +0.030 A 
ATOM     25  C   UNL     1       5.992   3.420   0.359  0.00  0.00    +0.025 A 
BRANCH  23  26
ATOM     26  S   UNL     1       8.708   6.253  -0.496  0.00  0.00    +0.073 S 
ATOM     27  O   UNL     1       8.364   7.628  -0.603  0.00  0.00    -0.150 OA
ATOM     28  O   UNL     1       9.565   5.760   0.524  0.00  0.00    -0.150 OA
BRANCH  26  29
ATOM     29  N   UNL     1       9.394   5.823  -1.940  0.00  0.00    -0.205 N 
ATOM     30  C   UNL     1       8.771   6.146  -3.117  0.00  0.00    +0.088 C 
ATOM     31  C   UNL     1       7.234   6.987  -4.592  0.00  0.00    +0.114 C 
ATOM     32  C   UNL     1       8.085   5.998  -5.422  0.00  0.00    +0.028 C 
ATOM     33  C   UNL     1       9.309   5.810  -4.491  0.00  0.00    +0.072 C 
ATOM     34  H   UNL     1      10.236   5.342  -1.953  0.00  0.00    +0.175 HD
ATOM     35  N   UNL     1       7.646   6.787  -3.186  0.00  0.00    -0.375 N 
ATOM     36  H   UNL     1       7.112   7.113  -2.372  0.00  0.00    +0.161 HD
ENDBRANCH  26  29
ENDBRANCH  23  26
ENDBRANCH   3  20
TORSDOF 7
