REMARK  Name = ZINC13498895
REMARK  11 active torsions:
REMARK  status: ('A' for Active; 'I' for Inactive)
REMARK    1  A    between atoms: C_1  and  C_2
REMARK    2  A    between atoms: C_6  and  C_15
REMARK    3  A    between atoms: C_13  and  C_14
REMARK    4  A    between atoms: C_15  and  N_75
REMARK    5  A    between atoms: C_16  and  N_75
REMARK    6  A    between atoms: C_21  and  C_23
REMARK    7  A    between atoms: C_21  and  C_34
REMARK    8  A    between atoms: C_21  and  N_75
REMARK    9  A    between atoms: N_27  and  C_28
REMARK   10  A    between atoms: C_34  and  C_35
REMARK   11  A    between atoms: C_34  and  C_36
REMARK                            x       y       z     vdW  Elec       q    Type
REMARK                         _______ _______ _______ _____ _____    ______ ____
ROOT
ATOM      1  N   UNL     1      -5.425   3.966  -1.104  0.00  0.00    +0.391 N 
ATOM      2  H   UNL     1      -4.699   4.279  -1.759  0.00  0.00    -0.080 HD
ENDROOT
BRANCH   1   3
ATOM      3  C   UNL     1      -5.719   2.541  -1.359  0.00  0.00    -0.067 C 
ATOM      4  C   UNL     1      -6.932   2.068  -0.530  0.00  0.00    -0.015 C 
ATOM      5  C   UNL     1      -6.569   0.618  -0.121  0.00  0.00    -0.002 C 
ATOM      6  C   UNL     1      -5.049   0.711   0.160  0.00  0.00    -0.002 C 
ATOM      7  C   UNL     1      -4.523   1.678  -0.920  0.00  0.00    -0.015 C 
ENDBRANCH   1   3
BRANCH   1   8
ATOM      8  C   UNL     1      -4.931   4.141   0.278  0.00  0.00    -0.036 C 
BRANCH   8  14
ATOM      9  C   UNL     1      -8.298  -0.017   5.474  0.00  0.00    +0.044 C 
ATOM     10  C   UNL     1      -8.231   1.228   4.627  0.00  0.00    -0.047 A 
ATOM     11  C   UNL     1      -7.200   1.392   3.745  0.00  0.00    +0.013 A 
ATOM     12  C   UNL     1      -7.138   2.547   2.960  0.00  0.00    -0.001 A 
ATOM     13  C   UNL     1      -6.048   2.756   2.005  0.00  0.00    +0.017 A 
ATOM     14  C   UNL     1      -6.040   3.895   1.270  0.00  0.00    +0.001 A 
ATOM     15  C   UNL     1      -7.064   4.852   1.430  0.00  0.00    +0.251 A 
ATOM     16  O   UNL     1      -7.038   5.869   0.759  0.00  0.00    -0.268 OA
ATOM     17  N   UNL     1      -8.070   4.670   2.304  0.00  0.00    -0.322 N 
ATOM     18  H   UNL     1      -8.758   5.348   2.389  0.00  0.00    +0.169 HD
ATOM     19  C   UNL     1      -8.139   3.530   3.077  0.00  0.00    +0.049 A 
ATOM     20  C   UNL     1      -9.175   3.344   3.986  0.00  0.00    +0.030 A 
ATOM     21  C   UNL     1      -9.217   2.197   4.750  0.00  0.00    -0.046 A 
ATOM     22  C   UNL     1     -10.345   1.994   5.729  0.00  0.00    +0.044 C 
ENDBRANCH   8  14
ENDBRANCH   1   8
BRANCH   1  23
ATOM     23  C   UNL     1      -6.642   4.779  -1.312  0.00  0.00    +0.006 C 
BRANCH  23  24
ATOM     24  C   UNL     1      -7.459   4.178  -2.427  0.00  0.00    +0.139 A 
ATOM     25  N   UNL     1      -7.005   3.690  -3.555  0.00  0.00    -0.115 NA
ATOM     26  N   UNL     1      -8.011   3.271  -4.241  0.00  0.00    -0.023 NA
ATOM     27  N   UNL     1      -9.097   3.486  -3.583  0.00  0.00    -0.044 NA
ATOM     28  N   UNL     1      -8.798   4.044  -2.459  0.00  0.00    -0.228 N 
BRANCH  28  29
ATOM     29  C   UNL     1      -9.739   4.455  -1.414  0.00  0.00    +0.111 C 
ATOM     30  C   UNL     1     -10.517   3.233  -0.920  0.00  0.00    +0.027 C 
ATOM     31  C   UNL     1     -11.500   3.662   0.171  0.00  0.00    +0.002 C 
ATOM     32  C   UNL     1     -12.477   4.692  -0.399  0.00  0.00    +0.000 C 
ATOM     33  C   UNL     1     -11.700   5.913  -0.893  0.00  0.00    +0.002 C 
ATOM     34  C   UNL     1     -10.717   5.485  -1.984  0.00  0.00    +0.027 C 
ENDBRANCH  28  29
ENDBRANCH  23  24
BRANCH  23  35
ATOM     35  C   UNL     1      -6.221   6.199  -1.696  0.00  0.00    -0.024 C 
ATOM     36  C   UNL     1      -7.438   7.125  -1.636  0.00  0.00    +0.006 C 
ATOM     37  C   UNL     1      -5.153   6.696  -0.721  0.00  0.00    +0.006 C 
ENDBRANCH  23  35
ENDBRANCH   1  23
TORSDOF 7
