REMARK  Name = ZINC39582250
REMARK  11 active torsions:
REMARK  status: ('A' for Active; 'I' for Inactive)
REMARK    1  A    between atoms: C_1  and  C_2
REMARK    2  A    between atoms: C_7  and  C_32
REMARK    3  A    between atoms: C_9  and  N_12
REMARK    4  A    between atoms: C_13  and  C_15
REMARK    5  A    between atoms: C_15  and  N_16
REMARK    6  A    between atoms: N_19  and  C_24
REMARK    7  A    between atoms: C_20  and  C_23
REMARK    8  A    between atoms: C_28  and  O_30
REMARK    9  A    between atoms: O_30  and  C_31
REMARK   10  A    between atoms: C_32  and  O_34
REMARK   11  A    between atoms: O_34  and  C_35
REMARK                            x       y       z     vdW  Elec       q    Type
REMARK                         _______ _______ _______ _____ _____    ______ ____
ROOT
ATOM      1  N   UNL     1       0.263  -2.602   3.746  0.00  0.00    -0.288 N 
ATOM      2  C   UNL     1       0.072  -1.334   4.161  0.00  0.00    +0.200 C 
ATOM      3  O   UNL     1      -0.278  -0.484   3.371  0.00  0.00    -0.278 OA
ATOM      4  H   UNL     1       0.462  -3.299   4.390  0.00  0.00    +0.155 HD
ENDROOT
BRANCH   1  12
ATOM      5  C   UNL     1       0.340  -7.926   2.192  0.00  0.00    +0.044 C 
ATOM      6  C   UNL     1       0.245  -6.548   1.589  0.00  0.00    -0.050 A 
ATOM      7  C   UNL     1       0.138  -6.418   0.201  0.00  0.00    +0.005 A 
ATOM      8  C   UNL     1       0.049  -5.206  -0.399  0.00  0.00    +0.026 A 
ATOM      9  C   UNL     1       0.064  -4.025   0.388  0.00  0.00    +0.045 A 
ATOM     10  N   UNL     1      -0.007  -2.753   0.053  0.00  0.00    -0.367 N 
ATOM     11  C   UNL     1       0.054  -1.934   1.268  0.00  0.00    +0.234 C 
ATOM     12  C   UNL     1       0.175  -2.905   2.420  0.00  0.00    +0.053 C 
ATOM     13  C   UNL     1       0.178  -4.167   1.850  0.00  0.00    +0.018 A 
ATOM     14  C   UNL     1       0.261  -5.466   2.405  0.00  0.00    +0.015 A 
ATOM     15  H   UNL     1      -0.086  -2.413  -0.852  0.00  0.00    +0.161 HD
BRANCH  11  16
ATOM     16  C   UNL     1       1.257  -1.027   1.223  0.00  0.00    +0.335 C 
ATOM     17  O   UNL     1       2.218  -1.331   0.556  0.00  0.00    -0.248 OA
BRANCH  16  18
ATOM     18  O   UNL     1       1.261   0.118   1.923  0.00  0.00    -0.466 OA
ATOM     19  C   UNL     1       2.434   0.929   1.834  0.00  0.00    +0.280 C 
ENDBRANCH  16  18
ENDBRANCH  11  16
ENDBRANCH   1  12
BRANCH   2  20
ATOM     20  C   UNL     1       0.293  -0.974   5.607  0.00  0.00    +0.019 C 
BRANCH  20  21
ATOM     21  N   UNL     1       0.021   0.457   5.803  0.00  0.00    +0.388 N 
ATOM     22  C   UNL     1       0.997   1.247   5.041  0.00  0.00    -0.059 C 
ATOM     23  C   UNL     1       0.645   2.734   5.151  0.00  0.00    +0.087 C 
ATOM     24  N   UNL     1       0.557   3.088   6.576  0.00  0.00    -0.331 N 
ATOM     25  C   UNL     1      -0.274   2.246   7.450  0.00  0.00    +0.054 C 
ATOM     26  C   UNL     1       0.121   0.781   7.231  0.00  0.00    -0.056 C 
ATOM     27  C   UNL     1      -0.040   2.633   8.911  0.00  0.00    +0.026 C 
ATOM     28  H   UNL     1      -0.909   0.669   5.475  0.00  0.00    -0.081 HD
BRANCH  24  29
ATOM     29  C   UNL     1       1.244   4.193   7.085  0.00  0.00    +0.033 A 
ATOM     30  C   UNL     1       2.633   4.208   7.087  0.00  0.00    +0.023 A 
ATOM     31  C   UNL     1       3.312   5.301   7.591  0.00  0.00    +0.005 A 
ATOM     32  C   UNL     1       2.611   6.381   8.093  0.00  0.00    +0.046 A 
ATOM     33  C   UNL     1       1.224   6.372   8.094  0.00  0.00    +0.122 A 
ATOM     34  C   UNL     1       0.539   5.279   7.585  0.00  0.00    +0.068 A 
BRANCH  33  35
ATOM     35  O   UNL     1       0.537   7.435   8.588  0.00  0.00    -0.495 OA
ATOM     36  C   UNL     1       1.307   8.528   9.091  0.00  0.00    +0.277 C 
ENDBRANCH  33  35
ENDBRANCH  24  29
ENDBRANCH  20  21
ENDBRANCH   2  20
TORSDOF 7
