REMARK  Name = ZINC43415422
REMARK  5 active torsions:
REMARK  status: ('A' for Active; 'I' for Inactive)
REMARK    1  A    between atoms: C_5  and  C_6
REMARK    2  A    between atoms: C_6  and  O_7
REMARK    3  A    between atoms: O_7  and  C_8
REMARK    4  A    between atoms: C_9  and  N_17
REMARK    5  A    between atoms: C_11  and  C_15
REMARK                            x       y       z     vdW  Elec       q    Type
REMARK                         _______ _______ _______ _____ _____    ______ ____
ROOT
ATOM      1  C   UNL     1      -2.859  -1.725  -1.504  0.00  0.00    +0.155 A 
ATOM      2  C   UNL     1      -2.823  -3.117  -1.597  0.00  0.00    +0.069 A 
ATOM      3  C   UNL     1      -3.996  -3.829  -1.770  0.00  0.00    +0.045 A 
ATOM      4  C   UNL     1      -5.216  -3.150  -1.851  0.00  0.00    +0.055 A 
ATOM      5  C   UNL     1      -5.244  -1.757  -1.757  0.00  0.00    +0.037 A 
ATOM      6  C   UNL     1      -4.071  -1.053  -1.579  0.00  0.00    +0.058 A 
ATOM      7  I   UNL     1      -4.118   1.036  -1.430  0.00  0.00    -0.040 I 
ENDROOT
BRANCH   2   8
ATOM      8  N   UNL     1      -1.600  -3.792  -1.516  0.00  0.00    -0.355 N 
ATOM      9  H   UNL     1      -0.777  -3.293  -1.396  0.00  0.00    +0.142 HD
ATOM     10  H   UNL     1      -1.575  -4.760  -1.581  0.00  0.00    +0.142 HD
ENDBRANCH   2   8
BRANCH   4  11
ATOM     11  C   UNL     1      -6.433  -3.882  -2.031  0.00  0.00    +0.099 C 
ATOM     12  N   UNL     1      -7.399  -4.463  -2.173  0.00  0.00    -0.191 NA
ENDBRANCH   4  11
BRANCH   1  13
ATOM     13  O   UNL     1      -1.706  -1.026  -1.334  0.00  0.00    -0.484 OA
BRANCH  13  14
ATOM     14  C   UNL     1      -1.286  -0.786   0.011  0.00  0.00    +0.265 C 
BRANCH  14  19
ATOM     15  C   UNL     1      -0.017   1.378   0.010  0.00  0.00    +0.014 A 
ATOM     16  C   UNL     1       1.160   2.051   0.002  0.00  0.00    +0.045 A 
ATOM     17  S   UNL     1       2.348   0.719  -0.017  0.00  0.00    -0.105 S 
ATOM     18  C   UNL     1       1.196  -0.645  -0.013  0.00  0.00    +0.052 A 
ATOM     19  C   UNL     1       0.002  -0.004   0.002  0.00  0.00    -0.003 A 
ENDBRANCH  14  19
ENDBRANCH  13  14
ENDBRANCH   1  13
TORSDOF 5
