REMARK  Name = ZINC09501488
REMARK  8 active torsions:
REMARK  status: ('A' for Active; 'I' for Inactive)
REMARK    1  A    between atoms: C_1  and  C_2
REMARK    2  A    between atoms: C_5  and  N_9
REMARK    3  A    between atoms: C_6  and  C_8
REMARK    4  A    between atoms: C_10  and  C_12
REMARK    5  A    between atoms: C_12  and  C_14
REMARK    6  A    between atoms: C_12  and  N_20
REMARK    7  A    between atoms: N_20  and  S_21
REMARK    8  A    between atoms: S_21  and  C_24
REMARK                            x       y       z     vdW  Elec       q    Type
REMARK                         _______ _______ _______ _____ _____    ______ ____
ROOT
ATOM      1  C   UNL     1       5.285   1.057   1.837  0.00  0.00    +0.192 C 
ENDROOT
BRANCH   1   2
ATOM      2  C   UNL     1       6.778   1.038   1.631  0.00  0.00    -0.020 A 
ATOM      3  C   UNL     1       7.540   2.133   1.993  0.00  0.00    +0.006 A 
ATOM      4  C   UNL     1       8.910   2.114   1.808  0.00  0.00    +0.000 A 
ATOM      5  C   UNL     1       9.517   1.003   1.253  0.00  0.00    +0.000 A 
ATOM      6  C   UNL     1       8.754  -0.090   0.886  0.00  0.00    +0.000 A 
ATOM      7  C   UNL     1       7.385  -0.073   1.075  0.00  0.00    +0.006 A 
ENDBRANCH   1   2
BRANCH   1   9
ATOM      8  N   UNL     1       5.360  -0.432   3.811  0.00  0.00    -0.284 N 
ATOM      9  C   UNL     1       4.973   0.744   3.278  0.00  0.00    +0.240 C 
ATOM     10  O   UNL     1       4.373   1.549   3.957  0.00  0.00    -0.273 OA
ATOM     11  H   UNL     1       5.768  -1.109   3.248  0.00  0.00    +0.155 HD
BRANCH   8  16
ATOM     12  C   UNL     1       4.602  -1.424   9.345  0.00  0.00    +0.044 C 
ATOM     13  C   UNL     1       4.804  -1.160   7.875  0.00  0.00    -0.050 A 
ATOM     14  C   UNL     1       4.810   0.139   7.401  0.00  0.00    +0.005 A 
ATOM     15  C   UNL     1       4.994   0.384   6.055  0.00  0.00    +0.024 A 
ATOM     16  C   UNL     1       5.173  -0.677   5.176  0.00  0.00    +0.036 A 
ATOM     17  C   UNL     1       5.161  -1.980   5.654  0.00  0.00    -0.029 A 
ATOM     18  C   UNL     1       4.981  -2.218   7.003  0.00  0.00    +0.008 A 
ATOM     19  C   UNL     1       5.348  -3.134   4.703  0.00  0.00    +0.045 C 
ENDBRANCH   8  16
ENDBRANCH   1   9
BRANCH   1  20
ATOM     20  N   UNL     1       4.763   2.384   1.502  0.00  0.00    -0.174 NA
ATOM     21  H   UNL     1       4.772   3.091   2.166  0.00  0.00    +0.149 HD
BRANCH  20  22
ATOM     22  S   UNL     1       4.158   2.677  -0.012  0.00  0.00    +0.061 S 
ATOM     23  O   UNL     1       5.115   2.179  -0.936  0.00  0.00    -0.153 OA
ATOM     24  O   UNL     1       3.724   4.030  -0.020  0.00  0.00    -0.153 OA
BRANCH  22  25
ATOM     25  C   UNL     1       2.714   1.684  -0.197  0.00  0.00    +0.133 A 
ATOM     26  C   UNL     1       2.684   0.700  -1.127  0.00  0.00    +0.031 A 
ATOM     27  C   UNL     1       1.559  -0.105  -1.301  0.00  0.00    +0.004 A 
ATOM     28  C   UNL     1       0.445   0.061  -0.548  0.00  0.00    +0.031 A 
ATOM     29  C   UNL     1       0.405   1.073   0.446  0.00  0.00    +0.102 A 
ATOM     30  C   UNL     1       1.583   1.916   0.628  0.00  0.00    +0.126 A 
ATOM     31  N   UNL     1       1.407   2.820   1.590  0.00  0.00    -0.189 NA
ATOM     32  S   UNL     1      -0.041   2.594   2.143  0.00  0.00    +0.117 S 
ATOM     33  N   UNL     1      -0.578   1.400   1.282  0.00  0.00    -0.191 NA
ENDBRANCH  22  25
ENDBRANCH  20  22
ENDBRANCH   1  20
TORSDOF 6
