REMARK  Name = ZINC11855967
REMARK  6 active torsions:
REMARK  status: ('A' for Active; 'I' for Inactive)
REMARK    1  A    between atoms: C_1  and  C_2
REMARK    2  A    between atoms: C_7  and  O_8
REMARK    3  A    between atoms: O_8  and  C_9
REMARK    4  A    between atoms: C_9  and  C_10
REMARK    5  A    between atoms: N_12  and  C_13
REMARK    6  A    between atoms: C_15  and  C_30
REMARK                            x       y       z     vdW  Elec       q    Type
REMARK                         _______ _______ _______ _____ _____    ______ ____
ROOT
ATOM      1  C   UNL     1      -1.195  -0.717   0.010  0.00  0.00    +0.132 A 
ATOM      2  C   UNL     1      -2.443  -0.186   0.030  0.00  0.00    +0.074 A 
ATOM      3  C   UNL     1      -3.367  -1.252   0.029  0.00  0.00    +0.102 A 
ATOM      4  N   UNL     1      -2.690  -2.383   0.016  0.00  0.00    -0.162 NA
ATOM      5  N   UNL     1      -1.323  -2.077   0.004  0.00  0.00    -0.185 N 
ATOM      6  C   UNL     1      -0.287  -2.990  -0.012  0.00  0.00    +0.234 A 
ATOM      7  N   UNL     1      -0.568  -4.321  -0.016  0.00  0.00    -0.291 N 
ATOM      8  H   UNL     1      -1.488  -4.626  -0.012  0.00  0.00    +0.172 HD
ATOM      9  C   UNL     1       0.443  -5.212  -0.027  0.00  0.00    +0.256 A 
ATOM     10  O   UNL     1       0.212  -6.410  -0.033  0.00  0.00    -0.267 OA
ATOM     11  C   UNL     1       1.775  -4.740  -0.031  0.00  0.00    +0.038 A 
ATOM     12  C   UNL     1       1.995  -3.401  -0.035  0.00  0.00    +0.053 A 
ATOM     13  N   UNL     1       0.953  -2.560  -0.028  0.00  0.00    -0.217 NA
ATOM     14  C   UNL     1       3.378  -2.806  -0.061  0.00  0.00    +0.056 C 
ATOM     15  C   UNL     1       4.417  -3.840   0.368  0.00  0.00    +0.006 C 
ATOM     16  C   UNL     1       4.202  -5.113  -0.459  0.00  0.00    +0.005 C 
ATOM     17  C   UNL     1       2.886  -5.754  -0.022  0.00  0.00    +0.042 C 
ENDROOT
BRANCH   3  18
ATOM     18  C   UNL     1      -4.839  -1.124   0.044  0.00  0.00    +0.039 A 
ATOM     19  C   UNL     1      -5.791  -2.108   0.048  0.00  0.00    +0.018 A 
ATOM     20  C   UNL     1      -7.120  -1.744   0.064  0.00  0.00    +0.008 A 
ATOM     21  C   UNL     1      -7.445  -0.426   0.075  0.00  0.00    +0.046 A 
ATOM     22  S   UNL     1      -5.839   0.355   0.071  0.00  0.00    -0.095 S 
ENDBRANCH   3  18
BRANCH   1  25
ATOM     23  C   UNL     1      -0.016   1.344   0.009  0.00  0.00    +0.256 C 
ATOM     24  O   UNL     1      -1.075   1.936   0.018  0.00  0.00    -0.272 OA
ATOM     25  N   UNL     1       0.002  -0.004   0.002  0.00  0.00    -0.267 N 
ATOM     26  H   UNL     1       0.849  -0.478  -0.009  0.00  0.00    +0.156 HD
BRANCH  23  27
ATOM     27  C   UNL     1       1.278   2.115   0.001  0.00  0.00    +0.324 C 
BRANCH  27  28
ATOM     28  O   UNL     1       0.998   3.516   0.011  0.00  0.00    -0.483 OA
BRANCH  28  35
ATOM     29  C   UNL     1       0.466   6.290   0.032  0.00  0.00    +0.047 C 
ATOM     30  C   UNL     1       1.866   5.731   0.015  0.00  0.00    -0.009 A 
ATOM     31  C   UNL     1       2.951   6.585   0.009  0.00  0.00    +0.007 A 
ATOM     32  C   UNL     1       4.236   6.073  -0.006  0.00  0.00    +0.000 A 
ATOM     33  C   UNL     1       4.437   4.705  -0.015  0.00  0.00    +0.004 A 
ATOM     34  C   UNL     1       3.354   3.847  -0.004  0.00  0.00    +0.046 A 
ATOM     35  C   UNL     1       2.065   4.358   0.006  0.00  0.00    +0.124 A 
ENDBRANCH  28  35
ENDBRANCH  27  28
ENDBRANCH  23  27
ENDBRANCH   1  25
TORSDOF 5
