REMARK  Name = ZINC42026062
REMARK  6 active torsions:
REMARK  status: ('A' for Active; 'I' for Inactive)
REMARK    1  A    between atoms: C_1  and  C_2
REMARK    2  A    between atoms: C_5  and  C_7
REMARK    3  A    between atoms: C_9  and  C_24
REMARK    4  A    between atoms: C_10  and  C_12
REMARK    5  A    between atoms: N_14  and  N_15
REMARK    6  A    between atoms: C_16  and  C_18
REMARK                            x       y       z     vdW  Elec       q    Type
REMARK                         _______ _______ _______ _____ _____    ______ ____
ROOT
ATOM      1  C   UNL     1       3.481  -6.928  -0.054  0.00  0.00    +0.269 C 
ATOM      2  O   UNL     1       4.681  -7.131  -0.057  0.00  0.00    -0.268 OA
ATOM      3  N   UNL     1       2.622  -7.967  -0.062  0.00  0.00    -0.230 N 
ATOM      4  H   UNL     1       1.665  -7.806  -0.059  0.00  0.00    +0.173 HD
ENDROOT
BRANCH   1   8
ATOM      5  C   UNL     1       1.659  -3.218  -0.022  0.00  0.00    +0.144 A 
ATOM      6  N   UNL     1       2.992  -3.233  -0.023  0.00  0.00    -0.240 NA
ATOM      7  C   UNL     1       3.661  -4.351  -0.033  0.00  0.00    +0.058 A 
ATOM      8  C   UNL     1       2.969  -5.556  -0.042  0.00  0.00    +0.098 A 
ATOM      9  S   UNL     1       1.281  -4.966  -0.028  0.00  0.00    -0.059 S 
ATOM     10  C   UNL     1       5.168  -4.337  -0.034  0.00  0.00    +0.067 C 
BRANCH   5  15
ATOM     11  C   UNL     1      -0.018   1.503   0.010  0.00  0.00    +0.086 C 
ATOM     12  C   UNL     1       0.002  -0.004   0.002  0.00  0.00    +0.103 A 
ATOM     13  C   UNL     1      -1.084  -0.805   0.003  0.00  0.00    +0.045 A 
ATOM     14  C   UNL     1      -0.619  -2.132  -0.007  0.00  0.00    +0.052 A 
ATOM     15  C   UNL     1       0.744  -2.070  -0.013  0.00  0.00    +0.160 A 
ATOM     16  O   UNL     1       1.103  -0.771  -0.013  0.00  0.00    -0.458 OA
ENDBRANCH   5  15
ENDBRANCH   1   8
BRANCH   3  17
ATOM     17  N   UNL     1       3.111  -9.280  -0.073  0.00  0.00    -0.229 N 
ATOM     18  C   UNL     1       2.252 -10.319  -0.081  0.00  0.00    +0.280 C 
ATOM     19  O   UNL     1       1.054 -10.117  -0.078  0.00  0.00    -0.267 OA
ATOM     20  H   UNL     1       4.067  -9.441  -0.076  0.00  0.00    +0.173 HD
BRANCH  18  21
ATOM     21  C   UNL     1       2.769 -11.707  -0.093  0.00  0.00    +0.145 A 
ATOM     22  C   UNL     1       1.883 -12.784  -0.107  0.00  0.00    +0.143 A 
ATOM     23  N   UNL     1       2.349 -14.019  -0.118  0.00  0.00    -0.259 NA
ATOM     24  C   UNL     1       3.652 -14.236  -0.116  0.00  0.00    +0.130 A 
ATOM     25  C   UNL     1       4.537 -13.167  -0.102  0.00  0.00    +0.131 A 
ATOM     26  N   UNL     1       4.081 -11.931  -0.097  0.00  0.00    -0.247 NA
ENDBRANCH  18  21
ENDBRANCH   3  17
TORSDOF 4
