REMARK  Name = ZINC21776899
REMARK  7 active torsions:
REMARK  status: ('A' for Active; 'I' for Inactive)
REMARK    1  A    between atoms: C_1  and  C_2
REMARK    2  A    between atoms: C_2  and  O_3
REMARK    3  A    between atoms: O_3  and  C_4
REMARK    4  A    between atoms: C_6  and  C_11
REMARK    5  A    between atoms: C_9  and  O_10
REMARK    6  A    between atoms: N_21  and  C_26
REMARK    7  A    between atoms: N_24  and  C_25
REMARK                            x       y       z     vdW  Elec       q    Type
REMARK                         _______ _______ _______ _____ _____    ______ ____
ROOT
ATOM      1  C   UNL     1      -0.670   6.476   0.044  0.00  0.00    +0.066 C 
ATOM      2  C   UNL     1      -0.635   7.352   1.297  0.00  0.00    +0.109 C 
ATOM      3  C   UNL     1       0.437   8.399   1.150  0.00  0.00    +0.219 C 
ATOM      4  O   UNL     1       1.060   8.763   2.125  0.00  0.00    -0.275 OA
ATOM      5  N   UNL     1       0.710   8.934  -0.054  0.00  0.00    -0.271 N 
ATOM      6  C   UNL     1       0.023   8.531  -1.176  0.00  0.00    +0.118 A 
ATOM      7  C   UNL     1      -0.660   7.352  -1.180  0.00  0.00    +0.063 A 
ATOM      8  C   UNL     1      -1.353   6.962  -2.339  0.00  0.00    +0.262 A 
ATOM      9  O   UNL     1      -1.969   5.911  -2.362  0.00  0.00    -0.267 OA
ATOM     10  N   UNL     1      -1.330   7.762  -3.424  0.00  0.00    -0.264 N 
ATOM     11  C   UNL     1      -0.651   8.923  -3.402  0.00  0.00    +0.333 A 
ATOM     12  O   UNL     1      -0.643   9.630  -4.392  0.00  0.00    -0.246 OA
ATOM     13  N   UNL     1       0.020   9.316  -2.304  0.00  0.00    -0.284 N 
ATOM     14  C   UNL     1       0.750  10.586  -2.310  0.00  0.00    +0.155 C 
ATOM     15  C   UNL     1      -2.050   7.363  -4.636  0.00  0.00    +0.157 C 
ATOM     16  H   UNL     1       1.490   9.704  -0.150  0.00  0.00    +0.156 HD
ENDROOT
BRANCH   1  19
ATOM     17  C   UNL     1       1.482   3.371   0.006  0.00  0.00    +0.162 A 
ATOM     18  C   UNL     1       0.373   4.201   0.021  0.00  0.00    +0.053 A 
ATOM     19  C   UNL     1       0.537   5.574   0.027  0.00  0.00    -0.036 A 
ATOM     20  C   UNL     1       1.806   6.121   0.018  0.00  0.00    +0.008 A 
ATOM     21  C   UNL     1       2.917   5.298   0.003  0.00  0.00    +0.049 A 
ATOM     22  C   UNL     1       2.760   3.922   0.003  0.00  0.00    +0.158 A 
BRANCH  22  23
ATOM     23  O   UNL     1       3.851   3.111  -0.007  0.00  0.00    -0.503 OA
ATOM     24  H   UNL     1       4.861   3.548  -0.009  0.00  0.00    +0.292 HD
ENDBRANCH  22  23
BRANCH  17  25
ATOM     25  O   UNL     1       1.322   2.020   0.000  0.00  0.00    -0.489 OA
BRANCH  25  27
ATOM     26  C   UNL     1       0.002  -0.004   0.002  0.00  0.00    +0.048 C 
ATOM     27  C   UNL     1      -0.019   1.526   0.010  0.00  0.00    +0.226 C 
ENDBRANCH  25  27
ENDBRANCH  17  25
ENDBRANCH   1  19
TORSDOF 4
