REMARK  Name = ZINC07782686
REMARK  7 active torsions:
REMARK  status: ('A' for Active; 'I' for Inactive)
REMARK    1  A    between atoms: C_1  and  C_2
REMARK    2  A    between atoms: C_2  and  C_4
REMARK    3  A    between atoms: C_2  and  O_16
REMARK    4  A    between atoms: N_9  and  C_10
REMARK    5  A    between atoms: O_16  and  C_17
REMARK    6  A    between atoms: C_17  and  C_19
REMARK    7  A    between atoms: C_19  and  N_20
REMARK                            x       y       z     vdW  Elec       q    Type
REMARK                         _______ _______ _______ _____ _____    ______ ____
ROOT
ATOM      1  C   UNL     1       4.565   0.725   1.301  0.00  0.00    +0.261 C 
ATOM      2  O   UNL     1       4.300  -0.295   1.901  0.00  0.00    -0.271 OA
ATOM      3  N   UNL     1       3.596   1.392   0.645  0.00  0.00    -0.237 N 
ATOM      4  C   UNL     1       2.331   0.926   0.654  0.00  0.00    +0.306 C 
ATOM      5  O   UNL     1       2.065  -0.097   1.255  0.00  0.00    -0.252 OA
ATOM      6  N   UNL     1       1.362   1.593  -0.002  0.00  0.00    -0.296 N 
ATOM      7  H   UNL     1       3.808   2.208   0.165  0.00  0.00    +0.159 HD
ATOM      8  H   UNL     1       1.574   2.409  -0.482  0.00  0.00    +0.151 HD
ENDROOT
BRANCH   6   9
ATOM      9  C   UNL     1      -0.013   1.086   0.008  0.00  0.00    +0.074 C 
ATOM     10  C   UNL     1      -0.729   1.579   1.267  0.00  0.00    +0.022 C 
ATOM     11  C   UNL     1      -2.164   1.050   1.278  0.00  0.00    +0.002 C 
ATOM     12  C   UNL     1      -2.904   1.556   0.038  0.00  0.00    +0.000 C 
ATOM     13  C   UNL     1      -2.188   1.063  -1.221  0.00  0.00    +0.002 C 
ATOM     14  C   UNL     1      -0.753   1.593  -1.232  0.00  0.00    +0.022 C 
ENDBRANCH   6   9
BRANCH   1  16
ATOM     15  C   UNL     1       6.487   1.313  -0.151  0.00  0.00    +0.062 C 
ATOM     16  C   UNL     1       5.979   1.246   1.291  0.00  0.00    +0.259 C 
BRANCH  16  17
ATOM     17  O   UNL     1       6.829   0.358   2.063  0.00  0.00    -0.451 OA
BRANCH  17  18
ATOM     18  C   UNL     1       7.888   0.908   2.677  0.00  0.00    +0.325 C 
ATOM     19  O   UNL     1       8.098   2.094   2.573  0.00  0.00    -0.249 OA
BRANCH  18  20
ATOM     20  C   UNL     1       8.814   0.048   3.497  0.00  0.00    +0.229 C 
BRANCH  20  21
ATOM     21  N   UNL     1       9.883   0.878   4.059  0.00  0.00    -0.281 N 
ATOM     22  C   UNL     1      11.140   1.080   3.315  0.00  0.00    +0.178 C 
ATOM     23  S   UNL     1      11.869   2.514   4.221  0.00  0.00    -0.132 S 
ATOM     24  C   UNL     1      10.878   2.307   5.764  0.00  0.00    +0.166 C 
ATOM     25  C   UNL     1       9.732   1.454   5.245  0.00  0.00    +0.227 C 
ATOM     26  O   UNL     1       8.716   1.305   5.891  0.00  0.00    -0.275 OA
ENDBRANCH  20  21
ENDBRANCH  18  20
ENDBRANCH  17  18
ENDBRANCH  16  17
ENDBRANCH   1  16
TORSDOF 6
