REMARK  Name = ZINC21695260
REMARK  9 active torsions:
REMARK  status: ('A' for Active; 'I' for Inactive)
REMARK    1  A    between atoms: C_1  and  C_2
REMARK    2  A    between atoms: C_12  and  C_14
REMARK    3  A    between atoms: C_14  and  C_16
REMARK    4  A    between atoms: C_14  and  S_17
REMARK    5  A    between atoms: S_17  and  C_18
REMARK    6  A    between atoms: C_21  and  C_24
REMARK    7  A    between atoms: N_22  and  N_23
REMARK    8  A    between atoms: C_27  and  O_30
REMARK    9  A    between atoms: O_30  and  C_31
REMARK                            x       y       z     vdW  Elec       q    Type
REMARK                         _______ _______ _______ _____ _____    ______ ____
ROOT
ATOM      1  C   UNL     1       1.689   2.156   0.041  0.00  0.00    +0.209 A 
ATOM      2  N   UNL     1       2.659   1.273  -0.048  0.00  0.00    -0.121 NA
ATOM      3  N   UNL     1       3.797   1.869  -0.060  0.00  0.00    -0.127 NA
ATOM      4  C   UNL     1       3.625   3.168   0.021  0.00  0.00    +0.182 A 
ATOM      5  N   UNL     1       2.269   3.392   0.082  0.00  0.00    -0.224 N 
ENDROOT
BRANCH   4   6
ATOM      6  C   UNL     1       4.687   4.195   0.037  0.00  0.00    +0.021 A 
ATOM      7  C   UNL     1       4.391   5.502   0.431  0.00  0.00    +0.015 A 
ATOM      8  C   UNL     1       5.386   6.456   0.449  0.00  0.00    +0.046 A 
ATOM      9  C   UNL     1       6.678   6.122   0.067  0.00  0.00    +0.127 A 
ATOM     10  C   UNL     1       6.976   4.825  -0.330  0.00  0.00    +0.046 A 
ATOM     11  C   UNL     1       5.988   3.864  -0.347  0.00  0.00    +0.015 A 
BRANCH   9  12
ATOM     12  O   UNL     1       7.655   7.067   0.082  0.00  0.00    -0.434 OA
BRANCH  12  13
ATOM     13  C   UNL     1       7.280   8.381   0.501  0.00  0.00    +0.541 C 
ATOM     14  F   UNL     1       6.289   8.878  -0.352  0.00  0.00    -0.166 F 
ATOM     15  F   UNL     1       6.787   8.330   1.809  0.00  0.00    -0.166 F 
ENDBRANCH  12  13
ENDBRANCH   9  12
ENDBRANCH   4   6
BRANCH   5  16
ATOM     16  N   UNL     1       1.635   4.599   0.169  0.00  0.00    -0.295 N 
ATOM     17  H   UNL     1       2.223   5.528   0.194  0.00  0.00    +0.163 HD
ATOM     18  H   UNL     1       0.537   4.641   0.214  0.00  0.00    +0.163 HD
ENDBRANCH   5  16
BRANCH   1  19
ATOM     19  S   UNL     1      -0.038   1.809   0.090  0.00  0.00    -0.072 S 
BRANCH  19  20
ATOM     20  C   UNL     1       0.001   0.003  -0.013  0.00  0.00    +0.137 C 
ATOM     21  C   UNL     1       0.673  -0.566   1.238  0.00  0.00    +0.029 C 
BRANCH  20  32
ATOM     22  C   UNL     1      -3.729  -1.459  -1.886  0.00  0.00    +0.029 C 
ATOM     23  C   UNL     1      -2.959  -2.321  -0.883  0.00  0.00    +0.083 C 
ATOM     24  C   UNL     1      -2.690  -3.713  -1.476  0.00  0.00    +0.059 C 
ATOM     25  C   UNL     1      -1.183  -3.828  -1.508  0.00  0.00    -0.024 A 
ATOM     26  C   UNL     1      -0.361  -4.855  -1.934  0.00  0.00    +0.005 A 
ATOM     27  C   UNL     1       1.012  -4.720  -1.861  0.00  0.00    +0.000 A 
ATOM     28  C   UNL     1       1.564  -3.555  -1.361  0.00  0.00    +0.002 A 
ATOM     29  C   UNL     1       0.748  -2.528  -0.936  0.00  0.00    +0.024 A 
ATOM     30  C   UNL     1      -0.640  -2.657  -1.006  0.00  0.00    +0.040 A 
ATOM     31  N   UNL     1      -1.635  -1.747  -0.632  0.00  0.00    -0.267 N 
ATOM     32  C   UNL     1      -1.407  -0.525  -0.111  0.00  0.00    +0.233 C 
ATOM     33  O   UNL     1      -2.337   0.150   0.279  0.00  0.00    -0.274 OA
ENDBRANCH  20  32
ENDBRANCH  19  20
ENDBRANCH   1  19
TORSDOF 7
