REMARK  Name = ZINC37783068
REMARK  6 active torsions:
REMARK  status: ('A' for Active; 'I' for Inactive)
REMARK    1  A    between atoms: C_1  and  C_2
REMARK    2  A    between atoms: C_5  and  N_10
REMARK    3  A    between atoms: C_6  and  O_8
REMARK    4  A    between atoms: O_8  and  C_9
REMARK    5  A    between atoms: N_10  and  C_11
REMARK    6  A    between atoms: C_19  and  O_21
REMARK                            x       y       z     vdW  Elec       q    Type
REMARK                         _______ _______ _______ _____ _____    ______ ____
ROOT
ATOM      1  N   UNL     1       0.057  -4.173  -0.030  0.00  0.00    -0.331 N 
ATOM      2  H   UNL     1       0.068  -4.665   0.806  0.00  0.00    +0.147 HD
ENDROOT
BRANCH   1   3
ATOM      3  C   UNL     1       0.060  -4.896  -1.305  0.00  0.00    +0.142 C 
ATOM      4  C   UNL     1      -1.384  -5.174  -1.786  0.00  0.00    +0.256 C 
ATOM      5  O   UNL     1      -1.652  -6.481  -1.249  0.00  0.00    -0.489 OA
ATOM      6  C   UNL     1      -0.481  -7.162  -1.119  0.00  0.00    +0.129 A 
ATOM      7  C   UNL     1       0.609  -6.299  -1.131  0.00  0.00    +0.018 A 
ATOM      8  C   UNL     1       1.894  -6.778  -1.001  0.00  0.00    +0.013 A 
ATOM      9  C   UNL     1       2.115  -8.136  -0.862  0.00  0.00    +0.046 A 
ATOM     10  C   UNL     1       1.039  -9.011  -0.855  0.00  0.00    +0.120 A 
ATOM     11  C   UNL     1      -0.255  -8.529  -0.983  0.00  0.00    +0.091 A 
BRANCH  10  12
ATOM     12  O   UNL     1       1.253 -10.347  -0.722  0.00  0.00    -0.507 OA
ATOM     13  H   UNL     1       1.257 -10.655   0.195  0.00  0.00    +0.292 HD
ENDBRANCH  10  12
ENDBRANCH   1   3
BRANCH   1  18
ATOM     14  C   UNL     1      -0.018   1.503   0.010  0.00  0.00    +0.044 C 
ATOM     15  C   UNL     1       0.002  -0.004   0.002  0.00  0.00    -0.047 A 
ATOM     16  C   UNL     1       0.006  -0.687  -1.200  0.00  0.00    +0.005 A 
ATOM     17  C   UNL     1       0.024  -2.069  -1.214  0.00  0.00    +0.027 A 
ATOM     18  C   UNL     1       0.039  -2.774  -0.019  0.00  0.00    +0.070 A 
ATOM     19  C   UNL     1       0.036  -2.085   1.192  0.00  0.00    +0.141 A 
ATOM     20  C   UNL     1       0.023  -0.700   1.197  0.00  0.00    +0.051 A 
BRANCH  19  21
ATOM     21  O   UNL     1       0.050  -2.771   2.366  0.00  0.00    -0.493 OA
ATOM     22  C   UNL     1       0.046  -1.998   3.569  0.00  0.00    +0.277 C 
ENDBRANCH  19  21
ENDBRANCH   1  18
TORSDOF 4
