REMARK  Name = ZINC53240279
REMARK  10 active torsions:
REMARK  status: ('A' for Active; 'I' for Inactive)
REMARK    1  A    between atoms: C_1  and  C_2
REMARK    2  A    between atoms: C_2  and  C_3
REMARK    3  A    between atoms: C_3  and  C_4
REMARK    4  A    between atoms: C_4  and  N_5
REMARK    5  A    between atoms: N_5  and  C_6
REMARK    6  A    between atoms: C_7  and  C_9
REMARK    7  A    between atoms: N_12  and  C_15
REMARK    8  A    between atoms: C_15  and  C_17
REMARK    9  A    between atoms: C_15  and  C_18
REMARK   10  A    between atoms: N_23  and  C_24
REMARK                            x       y       z     vdW  Elec       q    Type
REMARK                         _______ _______ _______ _____ _____    ______ ____
ROOT
ATOM      1  C   UNL     1       2.901  -3.385  -9.380  0.00  0.00    +0.017 C 
ATOM      2  C   UNL     1       3.852  -2.222  -9.671  0.00  0.00    -0.004 C 
ENDROOT
BRANCH   1   3
ATOM      3  C   UNL     1       1.870  -3.477 -10.475  0.00  0.00    +0.207 C 
ATOM      4  O   UNL     1       0.730  -3.120 -10.265  0.00  0.00    -0.277 OA
ATOM      5  N   UNL     1       2.214  -3.955 -11.687  0.00  0.00    -0.242 N 
ATOM      6  C   UNL     1       1.291  -4.037 -12.666  0.00  0.00    +0.306 C 
ATOM      7  O   UNL     1       0.149  -3.679 -12.456  0.00  0.00    -0.252 OA
ATOM      8  N   UNL     1       1.635  -4.516 -13.878  0.00  0.00    -0.296 N 
ATOM      9  H   UNL     1       3.126  -4.241 -11.855  0.00  0.00    +0.159 HD
ATOM     10  H   UNL     1       2.547  -4.801 -14.046  0.00  0.00    +0.151 HD
BRANCH   8  11
ATOM     11  C   UNL     1       0.632  -4.605 -14.942  0.00  0.00    +0.074 C 
ATOM     12  C   UNL     1       0.534  -3.259 -15.664  0.00  0.00    +0.022 C 
ATOM     13  C   UNL     1      -0.514  -3.352 -16.775  0.00  0.00    +0.002 C 
ATOM     14  C   UNL     1      -0.104  -4.437 -17.773  0.00  0.00    +0.000 C 
ATOM     15  C   UNL     1      -0.005  -5.783 -17.051  0.00  0.00    +0.002 C 
ATOM     16  C   UNL     1       1.042  -5.690 -15.940  0.00  0.00    +0.022 C 
ENDBRANCH   8  11
ENDBRANCH   1   3
BRANCH   1  20
ATOM     17  C   UNL     1       1.631  -3.815  -5.336  0.00  0.00    +0.072 C 
ATOM     18  C   UNL     1       2.547  -2.649  -5.718  0.00  0.00    -0.006 C 
ATOM     19  C   UNL     1       3.240  -2.965  -7.045  0.00  0.00    -0.077 C 
ATOM     20  N   UNL     1       2.231  -3.159  -8.093  0.00  0.00    +0.387 N 
ATOM     21  C   UNL     1       1.393  -4.320  -7.769  0.00  0.00    -0.077 C 
ATOM     22  C   UNL     1       0.630  -4.056  -6.469  0.00  0.00    -0.006 C 
ATOM     23  H   UNL     1       1.651  -2.336  -8.158  0.00  0.00    -0.081 HD
BRANCH  17  26
ATOM     24  N   UNL     1       1.532  -3.483  -2.887  0.00  0.00    -0.304 N 
ATOM     25  C   UNL     1       2.972  -3.746  -2.839  0.00  0.00    +0.132 C 
ATOM     26  C   UNL     1       0.886  -3.477  -4.070  0.00  0.00    +0.218 C 
ATOM     27  O   UNL     1      -0.293  -3.200  -4.116  0.00  0.00    -0.275 OA
BRANCH  24  28
ATOM     28  C   UNL     1       0.793  -3.226  -1.648  0.00  0.00    +0.107 C 
BRANCH  28  29
ATOM     29  C   UNL     1       0.798  -1.725  -1.353  0.00  0.00    +0.019 C 
BRANCH  29  31
ATOM     30  C   UNL     1       0.031   0.044   0.236  0.00  0.00    +0.004 C 
ATOM     31  C   UNL     1       0.026  -1.457  -0.059  0.00  0.00    -0.002 C 
ENDBRANCH  29  31
ENDBRANCH  28  29
ENDBRANCH  24  28
ENDBRANCH  17  26
ENDBRANCH   1  20
TORSDOF 7
