REMARK  Name = ZINC44458145
REMARK  3 active torsions:
REMARK  status: ('A' for Active; 'I' for Inactive)
REMARK    1  A    between atoms: C_6  and  N_9
REMARK    2  A    between atoms: C_10  and  C_12
REMARK    3  A    between atoms: N_21  and  C_22
REMARK                            x       y       z     vdW  Elec       q    Type
REMARK                         _______ _______ _______ _____ _____    ______ ____
ROOT
ATOM      1  N   UNL     1       0.270  -2.805   1.304  0.00  0.00    -0.254 N 
ATOM      2  C   UNL     1       0.461  -3.975   1.946  0.00  0.00    +0.224 C 
ATOM      3  O   UNL     1       1.299  -4.058   2.819  0.00  0.00    -0.275 OA
ATOM      4  H   UNL     1      -0.400  -2.738   0.607  0.00  0.00    +0.158 HD
ENDROOT
BRANCH   2   5
ATOM      5  C   UNL     1      -0.368  -5.179   1.581  0.00  0.00    +0.093 C 
ATOM      6  C   UNL     1       0.045  -6.368   2.451  0.00  0.00    +0.016 C 
ATOM      7  C   UNL     1      -0.819  -7.582   2.103  0.00  0.00    +0.020 C 
ATOM      8  C   UNL     1      -0.597  -7.958   0.634  0.00  0.00    +0.109 C 
ATOM      9  N   UNL     1      -0.853  -6.776  -0.200  0.00  0.00    -0.285 N 
ATOM     10  C   UNL     1      -0.142  -5.527   0.106  0.00  0.00    +0.122 C 
ATOM     11  C   UNL     1      -1.724  -6.836  -1.227  0.00  0.00    +0.302 C 
ATOM     12  O   UNL     1      -1.999  -5.829  -1.850  0.00  0.00    -0.253 OA
ATOM     13  N   UNL     1      -2.289  -8.012  -1.563  0.00  0.00    -0.296 N 
ATOM     14  H   UNL     1      -2.126  -8.800  -1.022  0.00  0.00    +0.151 HD
BRANCH  13  15
ATOM     15  C   UNL     1      -3.150  -8.100  -2.745  0.00  0.00    +0.075 C 
ATOM     16  C   UNL     1      -4.453  -8.890  -2.613  0.00  0.00    +0.024 C 
ATOM     17  C   UNL     1      -3.288  -9.466  -3.419  0.00  0.00    +0.024 C 
ENDBRANCH  13  15
ENDBRANCH   2   5
BRANCH   1  23
ATOM     18  C   UNL     1       0.007   1.528  -0.011  0.00  0.00    +0.005 C 
ATOM     19  C   UNL     1       1.441   2.059  -0.023  0.00  0.00    +0.007 C 
ATOM     20  C   UNL     1       2.096   1.814   1.342  0.00  0.00    +0.059 C 
ATOM     21  C   UNL     1       1.896   0.363   1.707  0.00  0.00    +0.089 A 
ATOM     22  C   UNL     1       0.948  -0.471   1.082  0.00  0.00    +0.037 A 
ATOM     23  C   UNL     1       1.034  -1.697   1.641  0.00  0.00    +0.227 A 
ATOM     24  O   UNL     1       1.993  -1.650   2.585  0.00  0.00    -0.339 OA
ATOM     25  N   UNL     1       2.521  -0.334   2.605  0.00  0.00    -0.081 NA
ATOM     26  C   UNL     1       0.023  -0.006  -0.015  0.00  0.00    +0.042 C 
ENDBRANCH   1  23
TORSDOF 3
