REMARK  Name = ZINC16040556
REMARK  8 active torsions:
REMARK  status: ('A' for Active; 'I' for Inactive)
REMARK    1  A    between atoms: C_1  and  C_2
REMARK    2  A    between atoms: C_2  and  C_33
REMARK    3  A    between atoms: C_9  and  C_21
REMARK    4  A    between atoms: C_17  and  C_19
REMARK    5  A    between atoms: C_17  and  C_20
REMARK    6  A    between atoms: N_23  and  C_24
REMARK    7  A    between atoms: C_27  and  O_31
REMARK    8  A    between atoms: O_31  and  C_32
REMARK                            x       y       z     vdW  Elec       q    Type
REMARK                         _______ _______ _______ _____ _____    ______ ____
ROOT
ATOM      1  C   UNL     1       1.592   4.102  -0.343  0.00  0.00    +0.074 C 
ATOM      2  C   UNL     1       1.126   2.884  -1.142  0.00  0.00    +0.166 C 
ATOM      3  O   UNL     1       1.355   1.690  -0.379  0.00  0.00    -0.341 OA
ATOM      4  C   UNL     1       0.058   1.080  -0.149  0.00  0.00    +0.187 C 
ATOM      5  C   UNL     1      -0.766   1.643  -1.322  0.00  0.00    +0.191 C 
ATOM      6  O   UNL     1      -0.285   2.996  -1.416  0.00  0.00    -0.340 OA
ATOM      7  C   UNL     1      -2.253   1.578  -1.046  0.00  0.00    +0.238 C 
ATOM      8  O   UNL     1      -2.557   2.212   0.192  0.00  0.00    -0.333 OA
ATOM      9  C   UNL     1      -1.971   1.577   1.335  0.00  0.00    +0.286 C 
ATOM     10  C   UNL     1      -0.432   1.550   1.202  0.00  0.00    +0.209 C 
ATOM     11  O   UNL     1      -0.080   2.918   1.471  0.00  0.00    -0.338 OA
ATOM     12  C   UNL     1      -0.984   3.311   2.523  0.00  0.00    +0.168 C 
ATOM     13  O   UNL     1      -2.161   2.494   2.445  0.00  0.00    -0.318 OA
ATOM     14  C   UNL     1      -0.291   3.159   3.879  0.00  0.00    +0.074 C 
ATOM     15  C   UNL     1      -1.402   4.769   2.324  0.00  0.00    +0.074 C 
ATOM     16  C   UNL     1       1.898   2.808  -2.461  0.00  0.00    +0.074 C 
ENDROOT
BRANCH   7  17
ATOM     17  C   UNL     1      -2.687   0.136  -0.987  0.00  0.00    +0.249 C 
ATOM     18  O   UNL     1      -3.188  -0.306   0.026  0.00  0.00    -0.273 OA
ATOM     19  N   UNL     1      -2.518  -0.663  -2.059  0.00  0.00    -0.283 N 
ATOM     20  H   UNL     1      -2.050  -0.332  -2.841  0.00  0.00    +0.155 HD
BRANCH  19  21
ATOM     21  C   UNL     1      -3.018  -1.972  -2.043  0.00  0.00    +0.035 A 
ATOM     22  C   UNL     1      -4.188  -2.260  -1.353  0.00  0.00    +0.027 A 
ATOM     23  C   UNL     1      -4.681  -3.550  -1.337  0.00  0.00    +0.049 A 
ATOM     24  C   UNL     1      -4.008  -4.559  -2.010  0.00  0.00    +0.138 A 
ATOM     25  C   UNL     1      -2.838  -4.272  -2.701  0.00  0.00    +0.084 A 
ATOM     26  C   UNL     1      -2.348  -2.980  -2.722  0.00  0.00    +0.047 A 
ATOM     27 CL   UNL     1      -1.996  -5.534  -3.544  0.00  0.00    -0.080 Cl
BRANCH  24  28
ATOM     28  O   UNL     1      -4.493  -5.829  -1.994  0.00  0.00    -0.494 OA
ATOM     29  C   UNL     1      -5.701  -6.052  -1.263  0.00  0.00    +0.277 C 
ENDBRANCH  24  28
ENDBRANCH  19  21
ENDBRANCH   7  17
TORSDOF 3
