REMARK  Name = ZINC54163524
REMARK  7 active torsions:
REMARK  status: ('A' for Active; 'I' for Inactive)
REMARK    1  A    between atoms: C_1  and  C_2
REMARK    2  A    between atoms: C_7  and  C_8
REMARK    3  A    between atoms: N_10  and  N_11
REMARK    4  A    between atoms: C_12  and  C_14
REMARK    5  A    between atoms: C_18  and  O_21
REMARK    6  A    between atoms: C_19  and  O_20
REMARK    7  A    between atoms: O_21  and  C_22
REMARK                            x       y       z     vdW  Elec       q    Type
REMARK                         _______ _______ _______ _____ _____    ______ ____
ROOT
ATOM      1  C   UNL     1       0.032  -0.391   2.496  0.00  0.00    +0.277 C 
ATOM      2  O   UNL     1       0.019   0.795   2.765  0.00  0.00    -0.267 OA
ATOM      3  N   UNL     1       0.055  -1.306   3.486  0.00  0.00    -0.229 N 
ATOM      4  H   UNL     1       0.065  -2.252   3.271  0.00  0.00    +0.173 HD
ENDROOT
BRANCH   1  11
ATOM      5  C   UNL     1      -0.018   1.503   0.010  0.00  0.00    +0.047 C 
ATOM      6  C   UNL     1       0.002  -0.004   0.002  0.00  0.00    -0.010 A 
ATOM      7  C   UNL     1       0.008  -0.834  -1.125  0.00  0.00    +0.042 A 
ATOM      8  C   UNL     1       0.026  -2.155  -0.678  0.00  0.00    +0.027 A 
ATOM      9  N   UNL     1       0.034  -2.137   0.655  0.00  0.00    -0.354 N 
ATOM     10  H   UNL     1       0.048  -2.920   1.227  0.00  0.00    +0.166 HD
ATOM     11  C   UNL     1       0.024  -0.827   1.094  0.00  0.00    +0.107 A 
ATOM     12  C   UNL     1       0.031  -3.337  -1.615  0.00  0.00    +0.054 C 
ATOM     13  C   UNL     1      -0.488  -2.895  -2.987  0.00  0.00    +0.014 C 
ATOM     14  C   UNL     1       0.287  -1.674  -3.491  0.00  0.00    +0.080 C 
ATOM     15  C   UNL     1       0.002  -0.505  -2.559  0.00  0.00    +0.165 C 
ATOM     16  O   UNL     1      -0.215   0.616  -2.969  0.00  0.00    -0.292 OA
ENDBRANCH   1  11
BRANCH   3  17
ATOM     17  N   UNL     1       0.062  -0.891   4.824  0.00  0.00    -0.230 N 
ATOM     18  C   UNL     1       0.085  -1.806   5.813  0.00  0.00    +0.264 C 
ATOM     19  O   UNL     1       0.098  -2.991   5.545  0.00  0.00    -0.269 OA
ATOM     20  H   UNL     1       0.052   0.055   5.038  0.00  0.00    +0.173 HD
BRANCH  18  21
ATOM     21  C   UNL     1       0.093  -1.368   7.222  0.00  0.00    +0.083 A 
ATOM     22  C   UNL     1       0.072  -0.006   7.535  0.00  0.00    +0.017 A 
ATOM     23  C   UNL     1       0.080   0.399   8.852  0.00  0.00    +0.005 A 
ATOM     24  C   UNL     1       0.108  -0.538   9.872  0.00  0.00    +0.049 A 
ATOM     25  C   UNL     1       0.129  -1.891   9.578  0.00  0.00    +0.162 A 
ATOM     26  C   UNL     1       0.116  -2.315   8.253  0.00  0.00    +0.171 A 
BRANCH  26  27
ATOM     27  O   UNL     1       0.131  -3.641   7.961  0.00  0.00    -0.503 OA
ATOM     28  H   UNL     1       1.018  -4.013   7.867  0.00  0.00    +0.292 HD
ENDBRANCH  26  27
BRANCH  25  29
ATOM     29  O   UNL     1       0.157  -2.805  10.585  0.00  0.00    -0.491 OA
ATOM     30  C   UNL     1       0.164  -2.298  11.921  0.00  0.00    +0.277 C 
ENDBRANCH  25  29
ENDBRANCH  18  21
ENDBRANCH   3  17
TORSDOF 5
