REMARK  Name = ZINC06623761
REMARK  12 active torsions:
REMARK  status: ('A' for Active; 'I' for Inactive)
REMARK    1  A    between atoms: CG1_1  and  CB_2
REMARK    2  A    between atoms: CB_2  and  CG2_4
REMARK    3  A    between atoms: CB_2  and  CA_5
REMARK    4  A    between atoms: CA_5  and  C_7
REMARK    5  A    between atoms: CA_5  and  N_9
REMARK    6  A    between atoms: C_7  and  O_8
REMARK    7  A    between atoms: C_10  and  CA_12
REMARK    8  A    between atoms: CA_12  and  CB_14
REMARK    9  A    between atoms: CA_12  and  N_18
REMARK   10  A    between atoms: CB_14  and  CG1_16
REMARK   11  A    between atoms: CB_14  and  CG2_17
REMARK   12  A    between atoms: C_19  and  C_21
REMARK                            x       y       z     vdW  Elec       q    Type
REMARK                         _______ _______ _______ _____ _____    ______ ____
ROOT
ATOM      1  N   VAL A   1      -3.284  -1.830   1.118  0.00  0.00    -0.302 N 
ATOM      2  C   UNK A   0      -2.452  -0.908   0.593  0.00  0.00    +0.235 C 
ATOM      3  O   UNK A   0      -2.695   0.273   0.724  0.00  0.00    -0.274 OA
ATOM      4  H   VAL A   1      -3.089  -2.775   1.013  0.00  0.00    +0.150 HD
ENDROOT
BRANCH   2   5
ATOM      5  C   UNK A   0      -1.219  -1.345  -0.155  0.00  0.00    +0.173 C 
ATOM      6  C   UNK A   0      -0.313  -2.186   0.787  0.00  0.00    +0.103 C 
ATOM      7  S   UNK A   0       1.359  -1.780   0.120  0.00  0.00    -0.131 S 
ATOM      8  C   UNK A   0       0.836  -0.584  -1.175  0.00  0.00    +0.166 C 
ATOM      9  N   UNK A   0      -0.485  -0.160  -0.623  0.00  0.00    -0.269 N 
ATOM     10  C   UNK A   0      -0.531   1.180  -0.725  0.00  0.00    +0.249 C 
ATOM     11  O   UNK A   0      -1.546   1.849  -0.700  0.00  0.00    -0.270 OA
ATOM     12  C   UNK A   0       0.836   1.716  -0.877  0.00  0.00    +0.043 A 
ATOM     13  C   UNK A   0       1.698   0.645  -1.136  0.00  0.00    -0.005 A 
ATOM     14  C   UNK A   0       3.046   0.866  -1.298  0.00  0.00    +0.007 A 
ATOM     15  C   UNK A   0       3.552   2.153  -1.219  0.00  0.00    +0.000 A 
ATOM     16  C   UNK A   0       2.706   3.220  -0.978  0.00  0.00    +0.001 A 
ATOM     17  C   UNK A   0       1.353   3.010  -0.806  0.00  0.00    +0.013 A 
ENDBRANCH   2   5
BRANCH   1  18
ATOM     18  CA  VAL A   1      -4.482  -1.405   1.846  0.00  0.00    +0.161 C 
BRANCH  18  20
ATOM     19  N   VAL A   1      -5.589  -2.166   3.923  0.00  0.00    -0.308 N 
ATOM     20  C   VAL A   1      -4.889  -2.484   2.816  0.00  0.00    +0.234 C 
ATOM     21  O   VAL A   1      -4.586  -3.639   2.601  0.00  0.00    -0.274 OA
ATOM     22  H   VAL A   1      -5.895  -1.255   4.058  0.00  0.00    +0.149 HD
BRANCH  19  23
ATOM     23  CA  VAL A   1      -5.889  -3.195   4.921  0.00  0.00    +0.101 C 
BRANCH  23  25
ATOM     24  CG1 VAL A   1      -5.069  -4.317   6.997  0.00  0.00    +0.009 C 
ATOM     25  CB  VAL A   1      -4.709  -3.330   5.885  0.00  0.00    +0.005 C 
ATOM     26  CG2 VAL A   1      -3.485  -3.843   5.124  0.00  0.00    +0.009 C 
ENDBRANCH  23  25
BRANCH  23  27
ATOM     27  C   VAL A   1      -7.143  -2.798   5.703  0.00  0.00    +0.178 C 
BRANCH  27  28
ATOM     28  O   VAL A   1      -6.880  -1.610   6.452  0.00  0.00    -0.393 OA
ATOM     29  H   VAL A   1      -7.633  -1.299   6.973  0.00  0.00    +0.209 HD
ENDBRANCH  27  28
ENDBRANCH  23  27
ENDBRANCH  19  23
ENDBRANCH  18  20
BRANCH  18  30
ATOM     30  CB  VAL A   1      -5.620  -1.156   0.854  0.00  0.00    +0.012 C 
ATOM     31  CG1 VAL A   1      -6.836  -0.604   1.600  0.00  0.00    +0.009 C 
ATOM     32  CG2 VAL A   1      -5.166  -0.143  -0.200  0.00  0.00    +0.009 C 
ENDBRANCH  18  30
ENDBRANCH   1  18
TORSDOF 8
