REMARK  Name = ZINC22320882
REMARK  10 active torsions:
REMARK  status: ('A' for Active; 'I' for Inactive)
REMARK    1  A    between atoms: C_1  and  C_2
REMARK    2  A    between atoms: C_2  and  O_3
REMARK    3  A    between atoms: O_3  and  C_4
REMARK    4  A    between atoms: C_4  and  C_6
REMARK    5  A    between atoms: C_7  and  C_31
REMARK    6  A    between atoms: C_8  and  C_27
REMARK    7  A    between atoms: C_10  and  N_11
REMARK    8  A    between atoms: C_12  and  C_14
REMARK    9  A    between atoms: C_14  and  N_15
REMARK   10  A    between atoms: N_29  and  C_30
REMARK                            x       y       z     vdW  Elec       q    Type
REMARK                         _______ _______ _______ _____ _____    ______ ____
ROOT
ATOM      1  N   UNL     1      -1.222  -2.356   2.494  0.00  0.00    -0.278 N 
ATOM      2  C   UNL     1      -1.240  -3.222   3.527  0.00  0.00    +0.238 C 
ATOM      3  O   UNL     1      -1.289  -4.415   3.317  0.00  0.00    -0.273 OA
ATOM      4  H   UNL     1      -1.177  -1.274   2.684  0.00  0.00    +0.155 HD
ENDROOT
BRANCH   1   9
ATOM      5  C   UNL     1      -1.248  -2.099   0.003  0.00  0.00    +0.091 A 
ATOM      6  C   UNL     1      -1.287  -2.809  -1.188  0.00  0.00    -0.015 A 
ATOM      7  C   UNL     1      -1.339  -4.174  -1.112  0.00  0.00    +0.079 A 
ATOM      8  S   UNL     1      -1.333  -4.470   0.646  0.00  0.00    -0.068 S 
ATOM      9  C   UNL     1      -1.258  -2.828   1.196  0.00  0.00    +0.087 A 
ATOM     10  C   UNL     1      -1.274  -2.102  -2.519  0.00  0.00    +0.046 C 
BRANCH   7  11
ATOM     11  C   UNL     1      -1.387  -5.149  -2.204  0.00  0.00    +0.251 C 
ATOM     12  O   UNL     1      -1.383  -4.769  -3.360  0.00  0.00    -0.270 OA
ATOM     13  N   UNL     1      -1.435  -6.468  -1.927  0.00  0.00    -0.314 N 
ATOM     14  C   UNL     1      -1.482  -7.443  -3.019  0.00  0.00    +0.128 C 
ATOM     15  H   UNL     1      -1.438  -6.811  -0.882  0.00  0.00    +0.149 HD
ENDBRANCH   7  11
BRANCH   5  16
ATOM     16  C   UNL     1      -1.191  -0.632   0.010  0.00  0.00    +0.342 C 
ATOM     17  O   UNL     1      -2.220   0.016   0.023  0.00  0.00    -0.245 OA
BRANCH  16  18
ATOM     18  O   UNL     1       0.002  -0.004   0.002  0.00  0.00    -0.461 OA
BRANCH  18  20
ATOM     19  C   UNL     1       1.418   1.977  -0.001  0.00  0.00    +0.048 C 
ATOM     20  C   UNL     1      -0.018   1.448   0.010  0.00  0.00    +0.229 C 
ENDBRANCH  18  20
ENDBRANCH  16  18
ENDBRANCH   5  16
ENDBRANCH   1   9
BRANCH   2  21
ATOM     21  C   UNL     1      -1.200  -2.707   4.942  0.00  0.00    +0.222 C 
BRANCH  21  22
ATOM     22  N   UNL     1      -1.230  -3.837   5.874  0.00  0.00    -0.290 N 
ATOM     23  C   UNL     1      -2.422  -4.308   6.324  0.00  0.00    +0.203 A 
ATOM     24  N   UNL     1      -2.532  -5.307   7.144  0.00  0.00    -0.237 NA
ATOM     25  C   UNL     1      -1.441  -5.955   7.627  0.00  0.00    +0.078 A 
ATOM     26  C   UNL     1      -1.559  -7.026   8.515  0.00  0.00    +0.030 A 
ATOM     27  C   UNL     1      -0.425  -7.654   8.980  0.00  0.00    +0.022 A 
ATOM     28  C   UNL     1       0.837  -7.234   8.577  0.00  0.00    +0.042 A 
ATOM     29  C   UNL     1       0.978  -6.179   7.701  0.00  0.00    +0.035 A 
ATOM     30  C   UNL     1      -0.157  -5.531   7.219  0.00  0.00    +0.066 A 
ATOM     31  C   UNL     1      -0.069  -4.399   6.284  0.00  0.00    +0.262 A 
ATOM     32  O   UNL     1       1.007  -3.985   5.893  0.00  0.00    -0.267 OA
ATOM     33 CL   UNL     1       2.247  -8.046   9.181  0.00  0.00    -0.084 Cl
ENDBRANCH  21  22
ENDBRANCH   2  21
TORSDOF 7
