REMARK  Name = ZINC48890915
REMARK  5 active torsions:
REMARK  status: ('A' for Active; 'I' for Inactive)
REMARK    1  A    between atoms: C_1  and  N_2
REMARK    2  A    between atoms: N_2  and  C_3
REMARK    3  A    between atoms: C_3  and  C_4
REMARK    4  A    between atoms: N_13  and  C_14
REMARK    5  A    between atoms: C_18  and  N_20
REMARK                            x       y       z     vdW  Elec       q    Type
REMARK                         _______ _______ _______ _____ _____    ______ ____
ROOT
ATOM      1  C   UNL     1       0.008   1.433   0.027  0.00  0.00    +0.134 C 
ATOM      2  N   UNL     1      -0.161  -0.022  -0.002  0.00  0.00    -0.284 N 
ATOM      3  C   UNL     1      -0.169  -0.676  -1.181  0.00  0.00    +0.306 C 
ATOM      4  O   UNL     1      -0.310  -1.883  -1.205  0.00  0.00    -0.252 OA
ATOM      5  N   UNL     1      -0.020   0.009  -2.332  0.00  0.00    -0.269 N 
ATOM      6  H   UNL     1       0.015   0.978  -2.319  0.00  0.00    +0.156 HD
ENDROOT
BRANCH   5   7
ATOM      7  C   UNL     1       0.083  -0.679  -3.547  0.00  0.00    +0.037 A 
ATOM      8  C   UNL     1      -0.432  -0.119  -4.709  0.00  0.00    +0.023 A 
ATOM      9  C   UNL     1      -0.330  -0.797  -5.909  0.00  0.00    +0.004 A 
ATOM     10  C   UNL     1       0.284  -2.034  -5.956  0.00  0.00    +0.023 A 
ATOM     11  C   UNL     1       0.801  -2.600  -4.797  0.00  0.00    +0.026 A 
ATOM     12  C   UNL     1       0.705  -1.918  -3.592  0.00  0.00    +0.046 A 
BRANCH  11  13
ATOM     13  N   UNL     1       1.420  -3.851  -4.846  0.00  0.00    -0.358 N 
ATOM     14  H   UNL     1       1.490  -4.325  -5.690  0.00  0.00    +0.142 HD
ATOM     15  H   UNL     1       1.781  -4.245  -4.037  0.00  0.00    +0.142 HD
ENDBRANCH  11  13
ENDBRANCH   5   7
BRANCH   2  16
ATOM     16  C   UNL     1      -0.323  -0.766   1.249  0.00  0.00    +0.144 C 
BRANCH  16  17
ATOM     17  C   UNL     1      -1.787  -0.855   1.595  0.00  0.00    -0.030 A 
ATOM     18  C   UNL     1      -2.375   0.129   2.368  0.00  0.00    +0.006 A 
ATOM     19  C   UNL     1      -3.718   0.048   2.685  0.00  0.00    +0.015 A 
ATOM     20  C   UNL     1      -4.473  -1.018   2.230  0.00  0.00    +0.018 A 
ATOM     21  C   UNL     1      -3.884  -2.003   1.457  0.00  0.00    +0.015 A 
ATOM     22  C   UNL     1      -2.542  -1.918   1.136  0.00  0.00    +0.006 A 
ATOM     23 BR   UNL     1      -6.310  -1.130   2.664  0.00  0.00    -0.050 Br
ENDBRANCH  16  17
ENDBRANCH   2  16
TORSDOF 4
