REMARK  Name = ZINC13366391
REMARK  8 active torsions:
REMARK  status: ('A' for Active; 'I' for Inactive)
REMARK    1  A    between atoms: C_3  and  S_21
REMARK    2  A    between atoms: C_6  and  C_7
REMARK    3  A    between atoms: C_7  and  C_9
REMARK    4  A    between atoms: C_10  and  C_11
REMARK    5  A    between atoms: S_21  and  N_24
REMARK    6  A    between atoms: N_24  and  C_25
REMARK    7  A    between atoms: C_25  and  C_26
REMARK    8  A    between atoms: C_26  and  C_27
REMARK                            x       y       z     vdW  Elec       q    Type
REMARK                         _______ _______ _______ _____ _____    ______ ____
ROOT
ATOM      1  C   UNL     1      -5.927   3.223   0.068  0.00  0.00    +0.013 A 
ATOM      2  C   UNL     1      -7.232   2.777   0.083  0.00  0.00    +0.029 A 
ATOM      3  C   UNL     1      -8.277   3.685   0.097  0.00  0.00    +0.105 A 
ATOM      4  C   UNL     1      -8.020   5.045   0.102  0.00  0.00    +0.029 A 
ATOM      5  C   UNL     1      -6.719   5.504   0.093  0.00  0.00    +0.013 A 
ATOM      6  C   UNL     1      -5.661   4.594   0.078  0.00  0.00    +0.022 A 
ENDROOT
BRANCH   3   7
ATOM      7  S   UNL     1      -9.941   3.107   0.110  0.00  0.00    +0.058 S 
ATOM      8  O   UNL     1      -9.911   1.794   0.653  0.00  0.00    -0.153 OA
ATOM      9  O   UNL     1     -10.728   4.147   0.674  0.00  0.00    -0.153 OA
BRANCH   7  10
ATOM     10  N   UNL     1     -10.419   2.955  -1.469  0.00  0.00    -0.189 NA
ATOM     11  H   UNL     1     -11.128   3.518  -1.817  0.00  0.00    +0.148 HD
BRANCH  10  12
ATOM     12  C   UNL     1      -9.770   1.971  -2.339  0.00  0.00    +0.117 C 
BRANCH  12  13
ATOM     13  C   UNL     1     -10.617   1.765  -3.596  0.00  0.00    +0.142 C 
BRANCH  13  14
ATOM     14  C   UNL     1      -9.950   0.752  -4.491  0.00  0.00    +0.357 C 
ATOM     15  O   UNL     1      -8.905   0.247  -4.157  0.00  0.00    -0.246 OA
ATOM     16  O   UNL     1     -10.518   0.412  -5.659  0.00  0.00    -0.246 OA
ENDBRANCH  13  14
ENDBRANCH  12  13
ENDBRANCH  10  12
ENDBRANCH   7  10
ENDBRANCH   3   7
BRANCH   6  17
ATOM     17  C   UNL     1      -4.263   5.079   0.068  0.00  0.00    +0.186 C 
ATOM     18  O   UNL     1      -4.034   6.275   0.071  0.00  0.00    -0.287 OA
BRANCH  17  19
ATOM     19  C   UNL     1      -3.192   4.152   0.053  0.00  0.00    +0.052 C 
ATOM     20  C   UNL     1      -1.913   4.596   0.043  0.00  0.00    +0.013 C 
BRANCH  20  21
ATOM     21  C   UNL     1      -0.803   3.636   0.028  0.00  0.00    -0.007 A 
ATOM     22  C   UNL     1      -1.064   2.260   0.019  0.00  0.00    +0.058 A 
ATOM     23  C   UNL     1      -0.016   1.361   0.009  0.00  0.00    +0.167 A 
ATOM     24  C   UNL     1       1.302   1.824  -0.001  0.00  0.00    +0.167 A 
ATOM     25  C   UNL     1       1.561   3.188   0.004  0.00  0.00    +0.065 A 
ATOM     26  C   UNL     1       0.521   4.093   0.018  0.00  0.00    +0.029 A 
ATOM     27 BR   UNL     1       0.882   5.949   0.023  0.00  0.00    -0.050 Br
ATOM     28  O   UNL     1       2.139   0.748  -0.015  0.00  0.00    -0.453 OA
ATOM     29  C   UNL     1       1.336  -0.372   0.400  0.00  0.00    +0.466 C 
ATOM     30  O   UNL     1       0.002  -0.004   0.002  0.00  0.00    -0.453 OA
ENDBRANCH  20  21
ENDBRANCH  17  19
ENDBRANCH   6  17
TORSDOF 8
