REMARK  Name = ZINC16808538
REMARK  7 active torsions:
REMARK  status: ('A' for Active; 'I' for Inactive)
REMARK    1  A    between atoms: C_1  and  C_2
REMARK    2  A    between atoms: C_2  and  O_3
REMARK    3  A    between atoms: O_3  and  C_4
REMARK    4  A    between atoms: C_7  and  C_10
REMARK    5  A    between atoms: C_10  and  C_11
REMARK    6  A    between atoms: C_12  and  C_29
REMARK    7  A    between atoms: C_26  and  C_28
REMARK                            x       y       z     vdW  Elec       q    Type
REMARK                         _______ _______ _______ _____ _____    ______ ____
ROOT
ATOM      1  C   UNL     1       0.040  -6.753  -2.692  0.00  0.00    +0.042 A 
ATOM      2  C   UNL     1       0.176  -6.748  -4.049  0.00  0.00    +0.050 A 
ATOM      3  N   UNL     1      -0.876  -6.999  -4.827  0.00  0.00    -0.221 NA
ATOM      4  C   UNL     1      -2.062  -7.256  -4.314  0.00  0.00    +0.202 A 
ATOM      5  N   UNL     1      -2.258  -7.274  -2.969  0.00  0.00    -0.295 N 
ATOM      6  H   UNL     1      -3.138  -7.464  -2.608  0.00  0.00    +0.172 HD
ATOM      7  C   UNL     1      -1.223  -7.031  -2.137  0.00  0.00    +0.256 A 
ATOM      8  O   UNL     1      -1.380  -7.048  -0.927  0.00  0.00    -0.267 OA
ATOM      9  N   UNL     1      -3.120  -7.509  -5.154  0.00  0.00    -0.255 N 
ATOM     10  C   UNL     1      -2.935  -7.494  -6.516  0.00  0.00    +0.202 A 
ATOM     11  N   UNL     1      -3.991  -7.740  -7.337  0.00  0.00    -0.295 N 
ATOM     12  H   UNL     1      -4.866  -7.926  -6.961  0.00  0.00    +0.172 HD
ATOM     13  C   UNL     1      -3.818  -7.727  -8.675  0.00  0.00    +0.253 A 
ATOM     14  O   UNL     1      -4.754  -7.946  -9.426  0.00  0.00    -0.268 OA
ATOM     15  C   UNL     1      -2.536  -7.454  -9.188  0.00  0.00    +0.093 A 
ATOM     16  C   UNL     1      -1.515  -7.214  -8.316  0.00  0.00    +0.047 A 
ATOM     17  N   UNL     1      -1.739  -7.234  -7.004  0.00  0.00    -0.221 NA
ATOM     18  C   UNL     1      -0.133  -6.920  -8.839  0.00  0.00    +0.066 C 
ATOM     19  C   UNL     1       1.518  -6.459  -4.670  0.00  0.00    +0.066 C 
ATOM     20  H   UNL     1      -3.997  -7.699  -4.786  0.00  0.00    +0.158 HD
ENDROOT
BRANCH   1  21
ATOM     21  C   UNL     1       1.223  -6.470  -1.802  0.00  0.00    +0.077 C 
BRANCH  21  25
ATOM     22  C   UNL     1       3.045 -10.157  -0.642  0.00  0.00    +0.121 A 
ATOM     23  C   UNL     1       3.518  -9.467  -1.748  0.00  0.00    +0.046 A 
ATOM     24  C   UNL     1       2.927  -8.275  -2.122  0.00  0.00    +0.007 A 
ATOM     25  C   UNL     1       1.865  -7.771  -1.393  0.00  0.00    -0.043 A 
ATOM     26  C   UNL     1       1.393  -8.457  -0.290  0.00  0.00    +0.007 A 
ATOM     27  C   UNL     1       1.976  -9.652   0.084  0.00  0.00    +0.046 A 
BRANCH  22  28
ATOM     28  O   UNL     1       3.625 -11.330  -0.273  0.00  0.00    -0.492 OA
BRANCH  28  30
ATOM     29  C   UNL     1       5.238 -13.114  -0.502  0.00  0.00    +0.048 C 
ATOM     30  C   UNL     1       4.721 -11.790  -1.067  0.00  0.00    +0.225 C 
ENDBRANCH  28  30
ENDBRANCH  22  28
ENDBRANCH  21  25
ENDBRANCH   1  21
TORSDOF 4
