REMARK  Name = ZINC66190986
REMARK  8 active torsions:
REMARK  status: ('A' for Active; 'I' for Inactive)
REMARK    1  A    between atoms: C_1  and  C_2
REMARK    2  A    between atoms: C_2  and  C_3
REMARK    3  A    between atoms: C_2  and  N_4
REMARK    4  A    between atoms: C_7  and  C_10
REMARK    5  A    between atoms: C_10  and  N_11
REMARK    6  A    between atoms: N_14  and  C_15
REMARK    7  A    between atoms: N_14  and  C_16
REMARK    8  A    between atoms: N_19  and  C_22
REMARK                            x       y       z     vdW  Elec       q    Type
REMARK                         _______ _______ _______ _____ _____    ______ ____
ROOT
ATOM      1  N   UNL     1      -4.678  -2.218  -2.971  0.00  0.00    -0.299 N 
ATOM      2  C   UNL     1      -5.094  -2.596  -4.196  0.00  0.00    +0.302 C 
ATOM      3  O   UNL     1      -4.527  -2.179  -5.187  0.00  0.00    -0.253 OA
ATOM      4  N   UNL     1      -6.140  -3.438  -4.321  0.00  0.00    -0.286 N 
ATOM      5  C   UNL     1      -6.823  -3.940  -3.127  0.00  0.00    +0.134 C 
ATOM      6  H   UNL     1      -5.130  -2.551  -2.180  0.00  0.00    +0.150 HD
ENDROOT
BRANCH   4   7
ATOM      7  C   UNL     1      -6.593  -3.849  -5.652  0.00  0.00    +0.074 C 
ATOM      8  C   UNL     1      -8.053  -3.429  -5.849  0.00  0.00    +0.004 C 
ATOM      9  C   UNL     1      -8.543  -3.931  -7.209  0.00  0.00    -0.077 C 
ATOM     10  N   UNL     1      -8.443  -5.395  -7.259  0.00  0.00    +0.382 N 
ATOM     11  C   UNL     1      -7.037  -5.802  -7.143  0.00  0.00    -0.077 C 
ATOM     12  C   UNL     1      -6.488  -5.372  -5.781  0.00  0.00    +0.004 C 
ATOM     13  H   UNL     1      -8.971  -5.794  -6.498  0.00  0.00    -0.081 HD
BRANCH  10  14
ATOM     14  C   UNL     1      -8.987  -5.878  -8.535  0.00  0.00    -0.064 C 
ATOM     15  C   UNL     1      -8.894  -7.406  -8.586  0.00  0.00    +0.013 C 
ATOM     16  C   UNL     1      -9.534  -7.905  -9.884  0.00  0.00    +0.158 C 
ATOM     17  O   UNL     1     -10.890  -7.459  -9.947  0.00  0.00    -0.380 OA
ATOM     18  C   UNL     1     -11.037  -6.037  -9.950  0.00  0.00    +0.158 C 
ATOM     19  C   UNL     1     -10.457  -5.463  -8.655  0.00  0.00    +0.013 C 
ENDBRANCH  10  14
ENDBRANCH   4   7
BRANCH   1  20
ATOM     20  C   UNL     1      -3.541  -1.304  -2.834  0.00  0.00    +0.107 C 
BRANCH  20  24
ATOM     21  N   UNL     1      -1.376  -0.512   0.012  0.00  0.00    +0.381 N 
ATOM     22  C   UNL     1      -1.385  -1.992  -0.122  0.00  0.00    -0.078 C 
ATOM     23  C   UNL     1      -2.796  -2.326  -0.653  0.00  0.00    -0.015 C 
ATOM     24  C   UNL     1      -3.276  -1.037  -1.351  0.00  0.00    -0.012 C 
ATOM     25  C   UNL     1      -2.116  -0.033  -1.183  0.00  0.00    -0.074 C 
ATOM     26  H   UNL     1      -1.850  -0.230   0.857  0.00  0.00    -0.081 HD
BRANCH  21  28
ATOM     27  C   UNL     1      -0.019   1.526   0.010  0.00  0.00    -0.014 C 
ATOM     28  C   UNL     1       0.002  -0.004   0.002  0.00  0.00    -0.075 C 
ATOM     29  C   UNL     1       0.742  -0.511   1.242  0.00  0.00    -0.014 C 
ENDBRANCH  21  28
ENDBRANCH  20  24
ENDBRANCH   1  20
TORSDOF 5
