REMARK  Name = ZINC48920563
REMARK  4 active torsions:
REMARK  status: ('A' for Active; 'I' for Inactive)
REMARK    1  A    between atoms: C_1  and  N_2
REMARK    2  A    between atoms: C_4  and  C_7
REMARK    3  A    between atoms: C_7  and  N_8
REMARK    4  A    between atoms: N_11  and  C_12
REMARK                            x       y       z     vdW  Elec       q    Type
REMARK                         _______ _______ _______ _____ _____    ______ ____
ROOT
ATOM      1  N   UNL     1       1.424  -3.671  -1.860  0.00  0.00    -0.295 N 
ATOM      2  C   UNL     1       1.681  -4.745  -2.634  0.00  0.00    +0.304 C 
ATOM      3  O   UNL     1       0.763  -5.402  -3.086  0.00  0.00    -0.252 OA
ATOM      4  N   UNL     1       2.955  -5.090  -2.906  0.00  0.00    -0.269 N 
ATOM      5  H   UNL     1       2.156  -3.147  -1.499  0.00  0.00    +0.151 HD
ATOM      6  H   UNL     1       3.685  -4.529  -2.601  0.00  0.00    +0.156 HD
ENDROOT
BRANCH   4   7
ATOM      7  C   UNL     1       3.224  -6.259  -3.627  0.00  0.00    +0.038 A 
ATOM      8  C   UNL     1       4.348  -7.017  -3.328  0.00  0.00    +0.043 A 
ATOM      9  C   UNL     1       4.611  -8.171  -4.043  0.00  0.00    +0.044 A 
ATOM     10  C   UNL     1       3.756  -8.570  -5.055  0.00  0.00    +0.040 A 
ATOM     11  C   UNL     1       2.636  -7.816  -5.355  0.00  0.00    +0.044 A 
ATOM     12  C   UNL     1       2.365  -6.664  -4.640  0.00  0.00    +0.043 A 
ATOM     13 CL   UNL     1       1.567  -8.319  -6.627  0.00  0.00    -0.083 Cl
ATOM     14 CL   UNL     1       6.017  -9.120  -3.670  0.00  0.00    -0.083 Cl
ENDBRANCH   4   7
BRANCH   1  15
ATOM     15  C   UNL     1       0.039  -3.296  -1.564  0.00  0.00    +0.144 C 
BRANCH  15  19
ATOM     16  C   UNL     1      -0.023   1.473  -0.024  0.00  0.00    +0.172 C 
ATOM     17  N   UNL     1      -0.000   0.009  -0.022  0.00  0.00    -0.274 N 
ATOM     18  C   UNL     1       0.004  -0.786  -1.113  0.00  0.00    +0.113 A 
ATOM     19  C   UNL     1       0.027  -2.071  -0.687  0.00  0.00    +0.007 A 
ATOM     20  C   UNL     1       0.038  -2.060   0.712  0.00  0.00    +0.139 A 
ATOM     21  N   UNL     1       0.028  -0.814   1.111  0.00  0.00    -0.180 NA
ENDBRANCH  15  19
ENDBRANCH   1  15
TORSDOF 3
