REMARK  Name = ZINC28160319
REMARK  8 active torsions:
REMARK  status: ('A' for Active; 'I' for Inactive)
REMARK    1  A    between atoms: C_1  and  C_2
REMARK    2  A    between atoms: C_5  and  C_8
REMARK    3  A    between atoms: C_11  and  C_30
REMARK    4  A    between atoms: C_18  and  C_21
REMARK    5  A    between atoms: C_21  and  C_22
REMARK    6  A    between atoms: N_24  and  C_25
REMARK    7  A    between atoms: C_25  and  C_26
REMARK    8  A    between atoms: C_26  and  C_27
REMARK                            x       y       z     vdW  Elec       q    Type
REMARK                         _______ _______ _______ _____ _____    ______ ____
ROOT
ATOM      1  C   UNL     1      -1.332   2.114   0.020  0.00  0.00    +0.136 C 
ATOM      2  C   UNL     1      -1.651   2.635   1.435  0.00  0.00    +0.087 C 
ATOM      3  C   UNL     1      -1.709   4.140   1.261  0.00  0.00    +0.075 C 
ATOM      4  N   UNL     1      -1.481   4.440   0.026  0.00  0.00    -0.181 NA
ATOM      5  N   UNL     1      -1.247   3.337  -0.793  0.00  0.00    -0.195 N 
ATOM      6  C   UNL     1      -0.982   3.385  -2.130  0.00  0.00    +0.170 C 
ATOM      7  N   UNL     1      -0.746   2.372  -2.955  0.00  0.00    -0.157 NA
ATOM      8  C   UNL     1      -0.504   2.504  -4.231  0.00  0.00    +0.252 C 
ATOM      9  O   UNL     1      -0.298   1.549  -4.955  0.00  0.00    -0.272 OA
ATOM     10  C   UNL     1      -0.492   3.937  -4.748  0.00  0.00    +0.150 C 
ATOM     11  S   UNL     1      -0.863   4.825  -3.182  0.00  0.00    -0.078 S 
ENDROOT
BRANCH   1  16
ATOM     12  C   UNL     1       3.711  -0.707  -0.039  0.00  0.00    +0.044 C 
ATOM     13  C   UNL     1       2.396   0.029  -0.022  0.00  0.00    -0.050 A 
ATOM     14  C   UNL     1       1.208  -0.679  -0.014  0.00  0.00    +0.004 A 
ATOM     15  C   UNL     1       0.002  -0.004   0.002  0.00  0.00    +0.006 A 
ATOM     16  C   UNL     1      -0.017   1.378   0.010  0.00  0.00    -0.025 A 
ATOM     17  C   UNL     1       1.171   2.086   0.002  0.00  0.00    +0.006 A 
ATOM     18  C   UNL     1       2.377   1.411  -0.014  0.00  0.00    +0.004 A 
ENDBRANCH   1  16
BRANCH   3  19
ATOM     19  C   UNL     1      -1.985   5.105   2.330  0.00  0.00    +0.035 A 
ATOM     20  C   UNL     1      -2.053   6.486   2.263  0.00  0.00    +0.017 A 
ATOM     21  C   UNL     1      -2.334   7.183   3.416  0.00  0.00    +0.008 A 
ATOM     22  C   UNL     1      -2.523   6.501   4.576  0.00  0.00    +0.046 A 
ATOM     23  S   UNL     1      -2.312   4.806   4.060  0.00  0.00    -0.095 S 
ENDBRANCH   3  19
BRANCH  10  24
ATOM     24  C   UNL     1      -1.587   4.163  -5.792  0.00  0.00    +0.119 C 
BRANCH  24  25
ATOM     25  C   UNL     1      -1.592   5.611  -6.209  0.00  0.00    +0.215 C 
ATOM     26  O   UNL     1      -0.797   6.386  -5.720  0.00  0.00    -0.276 OA
ATOM     27  N   UNL     1      -2.479   6.046  -7.126  0.00  0.00    -0.315 N 
ATOM     28  H   UNL     1      -3.200   5.343  -7.569  0.00  0.00    +0.149 HD
BRANCH  27  29
ATOM     29  C   UNL     1      -2.483   7.453  -7.532  0.00  0.00    +0.115 C 
BRANCH  29  30
ATOM     30  C   UNL     1      -3.579   7.680  -8.575  0.00  0.00    +0.144 C 
BRANCH  30  31
ATOM     31  C   UNL     1      -3.583   9.128  -8.993  0.00  0.00    +0.357 C 
ATOM     32  O   UNL     1      -2.792   9.899  -8.505  0.00  0.00    -0.246 OA
ATOM     33  O   UNL     1      -4.467   9.560  -9.906  0.00  0.00    -0.246 OA
ENDBRANCH  30  31
ENDBRANCH  29  30
ENDBRANCH  27  29
ENDBRANCH  24  25
ENDBRANCH  10  24
TORSDOF 7
