REMARK  Name = ZINC60201127
REMARK  11 active torsions:
REMARK  status: ('A' for Active; 'I' for Inactive)
REMARK    1  A    between atoms: C_1  and  C_2
REMARK    2  A    between atoms: C_2  and  C_3
REMARK    3  A    between atoms: C_2  and  C_4
REMARK    4  A    between atoms: C_2  and  O_5
REMARK    5  A    between atoms: O_5  and  C_6
REMARK    6  A    between atoms: N_8  and  C_9
REMARK    7  A    between atoms: C_9  and  C_10
REMARK    8  A    between atoms: C_9  and  C_11
REMARK    9  A    between atoms: C_9  and  C_12
REMARK   10  A    between atoms: N_17  and  C_20
REMARK   11  A    between atoms: C_20  and  C_21
REMARK                            x       y       z     vdW  Elec       q    Type
REMARK                         _______ _______ _______ _____ _____    ______ ____
ROOT
ATOM      1  C   UNL     1       4.105  -0.500  -3.892  0.00  0.00    +0.239 C 
ATOM      2  O   UNL     1       5.044   0.011  -4.464  0.00  0.00    -0.273 OA
ATOM      3  N   UNL     1       3.690  -1.733  -4.247  0.00  0.00    -0.297 N 
ATOM      4  C   UNL     1       2.630  -2.419  -3.491  0.00  0.00    +0.123 C 
ATOM      5  C   UNL     1       1.564  -2.903  -4.479  0.00  0.00    +0.104 C 
ATOM      6  N   UNL     1       2.203  -3.711  -5.527  0.00  0.00    -0.294 NA
ATOM      7  C   UNL     1       3.152  -2.911  -6.312  0.00  0.00    +0.104 C 
ATOM      8  C   UNL     1       4.279  -2.424  -5.403  0.00  0.00    +0.123 C 
ENDROOT
BRANCH   1   9
ATOM      9  C   UNL     1       3.402   0.241  -2.784  0.00  0.00    +0.108 C 
ATOM     10  C   UNL     1       3.815   1.714  -2.815  0.00  0.00    +0.041 C 
ATOM     11  C   UNL     1       3.791  -0.369  -1.436  0.00  0.00    +0.041 C 
BRANCH   9  14
ATOM     12  C   UNL     1       1.117   0.704  -2.076  0.00  0.00    +0.402 C 
ATOM     13  O   UNL     1       1.566   1.303  -1.119  0.00  0.00    -0.226 OA
ATOM     14  N   UNL     1       1.953   0.137  -2.969  0.00  0.00    -0.268 N 
ATOM     15  H   UNL     1       1.595  -0.341  -3.733  0.00  0.00    +0.153 HD
BRANCH  12  16
ATOM     16  O   UNL     1      -0.215   0.608  -2.246  0.00  0.00    -0.445 OA
BRANCH  16  18
ATOM     17  C   UNL     1      -0.739   2.732  -1.220  0.00  0.00    +0.055 C 
ATOM     18  C   UNL     1      -1.041   1.233  -1.262  0.00  0.00    +0.107 C 
ATOM     19  C   UNL     1      -0.755   0.617   0.110  0.00  0.00    +0.055 C 
ATOM     20  C   UNL     1      -2.513   1.018  -1.620  0.00  0.00    +0.055 C 
ENDBRANCH  16  18
ENDBRANCH  12  16
ENDBRANCH   9  14
ENDBRANCH   1   9
BRANCH   6  21
ATOM     21  C   UNL     1       1.197  -4.336  -6.396  0.00  0.00    +0.138 C 
BRANCH  21  22
ATOM     22  C   UNL     1       0.426  -5.366  -5.612  0.00  0.00    +0.037 A 
ATOM     23  C   UNL     1      -0.914  -5.184  -5.342  0.00  0.00    +0.093 A 
ATOM     24  C   UNL     1      -1.611  -6.149  -4.615  0.00  0.00    +0.259 A 
ATOM     25  O   UNL     1      -2.798  -5.994  -4.373  0.00  0.00    -0.267 OA
ATOM     26  N   UNL     1      -0.965  -7.270  -4.173  0.00  0.00    -0.264 N 
ATOM     27  C   UNL     1      -1.511  -8.303  -3.451  0.00  0.00    +0.104 A 
ATOM     28  C   UNL     1      -0.771  -9.347  -3.077  0.00  0.00    +0.067 A 
ATOM     29  S   UNL     1       0.827  -8.925  -3.753  0.00  0.00    -0.059 S 
ATOM     30  C   UNL     1       0.365  -7.370  -4.486  0.00  0.00    +0.158 A 
ATOM     31  N   UNL     1       1.024  -6.470  -5.173  0.00  0.00    -0.338 N 
ATOM     32  H   UNL     1       1.966  -6.609  -5.361  0.00  0.00    +0.168 HD
ENDBRANCH  21  22
ENDBRANCH   6  21
TORSDOF 6
