REMARK  Name = ZINC53110025
REMARK  6 active torsions:
REMARK  status: ('A' for Active; 'I' for Inactive)
REMARK    1  A    between atoms: C_1  and  C_2
REMARK    2  A    between atoms: C_7  and  C_9
REMARK    3  A    between atoms: C_7  and  N_11
REMARK    4  A    between atoms: C_9  and  O_10
REMARK    5  A    between atoms: N_15  and  C_21
REMARK    6  A    between atoms: N_18  and  C_20
REMARK                            x       y       z     vdW  Elec       q    Type
REMARK                         _______ _______ _______ _____ _____    ______ ____
ROOT
ATOM      1  N   UNL     1       2.030   1.461   1.174  0.00  0.00    -0.316 N 
ATOM      2  C   UNL     1       1.449   1.962   2.339  0.00  0.00    +0.205 A 
ATOM      3  C   UNL     1       1.292   3.413   2.532  0.00  0.00    +0.297 A 
ATOM      4  O   UNL     1       1.668   4.193   1.677  0.00  0.00    -0.264 OA
ATOM      5  N   UNL     1       0.726   3.866   3.670  0.00  0.00    -0.260 N 
ATOM      6  C   UNL     1       0.313   2.996   4.610  0.00  0.00    +0.348 A 
ATOM      7  O   UNL     1      -0.196   3.417   5.632  0.00  0.00    -0.245 OA
ATOM      8  N   UNL     1       0.453   1.670   4.440  0.00  0.00    -0.216 N 
ATOM      9  N   UNL     1       1.030   1.150   3.275  0.00  0.00    -0.147 NA
ATOM     10  C   UNL     1      -0.009   0.755   5.487  0.00  0.00    +0.178 C 
ATOM     11  C   UNL     1       0.560   5.306   3.882  0.00  0.00    +0.157 C 
ATOM     12  H   UNL     1       2.268   2.064   0.453  0.00  0.00    +0.148 HD
ENDROOT
BRANCH   1  18
ATOM     13  C   UNL     1      -0.183   1.246   0.033  0.00  0.00    +0.007 C 
ATOM     14  C   UNL     1       0.080  -0.255  -0.106  0.00  0.00    -0.012 C 
ATOM     15  C   UNL     1       0.802  -0.526  -1.427  0.00  0.00    +0.003 C 
ATOM     16  C   UNL     1       2.133   0.229  -1.445  0.00  0.00    +0.002 C 
ATOM     17  C   UNL     1       3.004  -0.247  -0.280  0.00  0.00    +0.028 C 
ATOM     18  C   UNL     1       2.282   0.024   1.041  0.00  0.00    +0.057 C 
ATOM     19  C   UNL     1       0.951  -0.731   1.058  0.00  0.00    +0.031 C 
BRANCH  18  20
ATOM     20  C   UNL     1       3.153  -0.452   2.205  0.00  0.00    +0.181 C 
BRANCH  20  21
ATOM     21  O   UNL     1       4.404   0.238   2.177  0.00  0.00    -0.393 OA
ATOM     22  H   UNL     1       5.008  -0.014   2.889  0.00  0.00    +0.209 HD
ENDBRANCH  20  21
ENDBRANCH  18  20
ENDBRANCH   1  18
TORSDOF 3
