REMARK  Name = ZINC06178008
REMARK  13 active torsions:
REMARK  status: ('A' for Active; 'I' for Inactive)
REMARK    1  A    between atoms: C_1  and  C_2
REMARK    2  A    between atoms: C_4  and  C_38
REMARK    3  A    between atoms: C_9  and  C_14
REMARK    4  A    between atoms: C_14  and  C_16
REMARK    5  A    between atoms: C_14  and  N_68
REMARK    6  A    between atoms: N_20  and  C_21
REMARK    7  A    between atoms: C_21  and  C_22
REMARK    8  A    between atoms: C_21  and  C_23
REMARK    9  A    between atoms: C_21  and  C_24
REMARK   10  A    between atoms: C_25  and  C_26
REMARK   11  A    between atoms: C_25  and  N_68
REMARK   12  A    between atoms: C_32  and  C_33
REMARK   13  A    between atoms: C_32  and  N_68
REMARK                            x       y       z     vdW  Elec       q    Type
REMARK                         _______ _______ _______ _____ _____    ______ ____
ROOT
ATOM      1  C   UNL     1       1.763   3.096   0.223  0.00  0.00    +0.040 C 
ENDROOT
BRANCH   1  10
ATOM      2  C   UNL     1      -3.116   7.890  -2.750  0.00  0.00    +0.044 C 
ATOM      3  C   UNL     1      -2.118   6.770  -2.896  0.00  0.00    -0.050 A 
ATOM      4  C   UNL     1      -1.852   6.245  -4.154  0.00  0.00    +0.008 A 
ATOM      5  C   UNL     1      -0.944   5.221  -4.311  0.00  0.00    -0.026 A 
ATOM      6  C   UNL     1      -0.286   4.705  -3.199  0.00  0.00    +0.052 A 
ATOM      7  C   UNL     1      -0.558   5.240  -1.925  0.00  0.00    -0.001 A 
ATOM      8  C   UNL     1      -1.484   6.280  -1.790  0.00  0.00    +0.013 A 
ATOM      9  C   UNL     1       0.140   4.691  -0.761  0.00  0.00    +0.017 A 
ATOM     10  C   UNL     1       1.027   3.684  -0.954  0.00  0.00    +0.011 A 
ATOM     11  C   UNL     1       1.268   3.187  -2.253  0.00  0.00    +0.251 A 
ATOM     12  O   UNL     1       2.074   2.285  -2.404  0.00  0.00    -0.268 OA
ATOM     13  N   UNL     1       0.628   3.681  -3.327  0.00  0.00    -0.322 N 
ATOM     14  H   UNL     1       0.815   3.314  -4.205  0.00  0.00    +0.169 HD
ATOM     15  C   UNL     1      -0.665   4.661  -5.682  0.00  0.00    +0.046 C 
ENDBRANCH   1  10
BRANCH   1  16
ATOM     16  C   UNL     1       3.236   3.382   0.088  0.00  0.00    +0.143 A 
ATOM     17  N   UNL     1       4.055   2.869  -0.798  0.00  0.00    -0.115 NA
ATOM     18  N   UNL     1       5.227   3.362  -0.589  0.00  0.00    -0.023 NA
ATOM     19  N   UNL     1       5.179   4.170   0.412  0.00  0.00    -0.043 NA
ATOM     20  N   UNL     1       3.969   4.209   0.857  0.00  0.00    -0.225 N 
BRANCH  20  21
ATOM     21  C   UNL     1       3.482   5.005   1.986  0.00  0.00    +0.059 C 
ATOM     22  C   UNL     1       2.949   4.073   3.076  0.00  0.00    +0.036 C 
ATOM     23  C   UNL     1       4.630   5.845   2.551  0.00  0.00    +0.036 C 
ATOM     24  C   UNL     1       2.359   5.930   1.512  0.00  0.00    +0.036 C 
ENDBRANCH  20  21
ENDBRANCH   1  16
BRANCH   1  25
ATOM     25  N   UNL     1       1.558   1.633   0.236  0.00  0.00    +0.397 N 
ATOM     26  H   UNL     1       1.948   1.234  -0.627  0.00  0.00    -0.079 HD
BRANCH  25  27
ATOM     27  C   UNL     1       2.251   1.036   1.397  0.00  0.00    -0.039 C 
BRANCH  27  28
ATOM     28  C   UNL     1       2.423  -0.441   1.150  0.00  0.00    -0.046 A 
ATOM     29  C   UNL     1       1.437  -1.337   1.535  0.00  0.00    +0.005 A 
ATOM     30  C   UNL     1       1.635  -2.685   1.283  0.00  0.00    +0.020 A 
ATOM     31  C   UNL     1       2.806  -3.091   0.670  0.00  0.00    +0.111 A 
ATOM     32  N   UNL     1       3.725  -2.211   0.322  0.00  0.00    -0.263 NA
ATOM     33  C   UNL     1       3.567  -0.920   0.542  0.00  0.00    +0.112 A 
ENDBRANCH  27  28
ENDBRANCH  25  27
BRANCH  25  34
ATOM     34  C   UNL     1       0.114   1.325   0.297  0.00  0.00    -0.001 C 
BRANCH  34  35
ATOM     35  C   UNL     1      -0.484   1.848   1.578  0.00  0.00    +0.089 A 
ATOM     36  C   UNL     1      -1.103   3.032   1.731  0.00  0.00    +0.042 A 
ATOM     37  C   UNL     1      -1.504   3.112   3.084  0.00  0.00    +0.041 A 
ATOM     38  C   UNL     1      -1.106   1.972   3.677  0.00  0.00    +0.195 A 
ATOM     39  O   UNL     1      -0.494   1.208   2.758  0.00  0.00    -0.470 OA
ENDBRANCH  34  35
ENDBRANCH  25  34
ENDBRANCH   1  25
TORSDOF 8
