REMARK  Name = ZINC05546343
REMARK  5 active torsions:
REMARK  status: ('A' for Active; 'I' for Inactive)
REMARK    1  A    between atoms: C_1  and  C_2
REMARK    2  A    between atoms: C_5  and  C_8
REMARK    3  A    between atoms: C_16  and  C_17
REMARK    4  A    between atoms: C_22  and  N_26
REMARK    5  A    between atoms: C_23  and  C_24
REMARK                            x       y       z     vdW  Elec       q    Type
REMARK                         _______ _______ _______ _____ _____    ______ ____
ROOT
ATOM      1  C   UNL     1      -2.172   2.742  -0.202  0.00  0.00    +0.079 C 
ATOM      2  C   UNL     1      -1.428   3.869   0.417  0.00  0.00    +0.117 C 
ATOM      3  C   UNL     1      -0.102   4.236  -0.267  0.00  0.00    +0.287 C 
ATOM      4  N   UNL     1       0.624   4.846   0.889  0.00  0.00    -0.230 N 
ATOM      5  N   UNL     1       0.142   4.199   2.037  0.00  0.00    -0.184 NA
ATOM      6  C   UNL     1      -1.004   3.651   1.867  0.00  0.00    +0.148 C 
ATOM      7  O   UNL     1       0.648   3.063  -0.589  0.00  0.00    -0.455 OA
ATOM      8  C   UNL     1       0.054   1.923  -0.942  0.00  0.00    +0.194 C 
ATOM      9  C   UNL     1      -1.262   1.684  -0.753  0.00  0.00    +0.094 C 
ATOM     10  H   UNL     1       1.294   5.547   0.853  0.00  0.00    +0.172 HD
ENDROOT
BRANCH   1  15
ATOM     11  C   UNL     1      -5.646   0.346   3.747  0.00  0.00    +0.044 C 
ATOM     12  C   UNL     1      -4.740   0.971   2.718  0.00  0.00    -0.050 A 
ATOM     13  C   UNL     1      -3.630   0.283   2.265  0.00  0.00    +0.003 A 
ATOM     14  C   UNL     1      -2.799   0.856   1.320  0.00  0.00    +0.004 A 
ATOM     15  C   UNL     1      -3.078   2.117   0.828  0.00  0.00    -0.038 A 
ATOM     16  C   UNL     1      -4.185   2.808   1.285  0.00  0.00    +0.004 A 
ATOM     17  C   UNL     1      -5.019   2.232   2.226  0.00  0.00    +0.003 A 
ENDBRANCH   1  15
BRANCH   6  18
ATOM     18  C   UNL     1      -1.798   2.916   2.916  0.00  0.00    +0.432 C 
ATOM     19  F   UNL     1      -1.302   3.233   4.185  0.00  0.00    -0.165 F 
ATOM     20  F   UNL     1      -3.142   3.294   2.833  0.00  0.00    -0.165 F 
ATOM     21  F   UNL     1      -1.688   1.538   2.703  0.00  0.00    -0.165 F 
ENDBRANCH   6  18
BRANCH   8  22
ATOM     22  N   UNL     1       0.817   0.944  -1.526  0.00  0.00    -0.329 N 
ATOM     23  H   UNL     1       0.409   0.105  -1.792  0.00  0.00    +0.145 HD
ATOM     24  H   UNL     1       1.764   1.090  -1.673  0.00  0.00    +0.145 HD
ENDBRANCH   8  22
BRANCH   9  25
ATOM     25  C   UNL     1      -1.799   0.400  -1.091  0.00  0.00    +0.100 C 
ATOM     26  N   UNL     1      -2.225  -0.619  -1.359  0.00  0.00    -0.191 NA
ENDBRANCH   9  25
TORSDOF 4
