REMARK  Name = ZINC38610700
REMARK  11 active torsions:
REMARK  status: ('A' for Active; 'I' for Inactive)
REMARK    1  A    between atoms: C_1  and  C_2
REMARK    2  A    between atoms: C_2  and  O_3
REMARK    3  A    between atoms: O_3  and  C_4
REMARK    4  A    between atoms: C_4  and  C_6
REMARK    5  A    between atoms: C_8  and  N_18
REMARK    6  A    between atoms: C_11  and  O_16
REMARK    7  A    between atoms: O_16  and  C_17
REMARK    8  A    between atoms: C_19  and  C_21
REMARK    9  A    between atoms: C_21  and  C_22
REMARK   10  A    between atoms: C_22  and  N_23
REMARK   11  A    between atoms: C_27  and  C_30
REMARK                            x       y       z     vdW  Elec       q    Type
REMARK                         _______ _______ _______ _____ _____    ______ ____
ROOT
ATOM      1  C   UNL     1      -3.789  -3.883   1.716  0.00  0.00    +0.234 C 
ATOM      2  C   UNL     1      -3.469  -2.465   1.300  0.00  0.00    +0.053 C 
ATOM      3  C   UNL     1      -2.886  -2.562   0.049  0.00  0.00    +0.021 A 
ATOM      4  C   UNL     1      -2.379  -1.589  -0.846  0.00  0.00    +0.057 A 
ATOM      5  C   UNL     1      -1.851  -1.980  -2.036  0.00  0.00    +0.121 A 
ATOM      6  C   UNL     1      -1.795  -3.332  -2.405  0.00  0.00    +0.047 A 
ATOM      7  C   UNL     1      -2.263  -4.313  -1.596  0.00  0.00    +0.029 A 
ATOM      8  C   UNL     1      -2.828  -3.983  -0.337  0.00  0.00    +0.045 A 
ATOM      9  N   UNL     1      -3.342  -4.740   0.614  0.00  0.00    -0.367 N 
ATOM     10  H   UNL     1      -3.413  -5.707   0.588  0.00  0.00    +0.161 HD
ENDROOT
BRANCH   2  11
ATOM     11  N   UNL     1      -3.706  -1.325   2.011  0.00  0.00    -0.286 N 
ATOM     12  C   UNL     1      -4.125  -1.403   3.289  0.00  0.00    +0.215 C 
ATOM     13  O   UNL     1      -4.190  -2.480   3.841  0.00  0.00    -0.276 OA
ATOM     14  H   UNL     1      -3.573  -0.458   1.596  0.00  0.00    +0.155 HD
BRANCH  12  15
ATOM     15  C   UNL     1      -4.513  -0.151   4.033  0.00  0.00    +0.077 C 
BRANCH  15  16
ATOM     16  C   UNL     1      -4.947  -0.515   5.454  0.00  0.00    -0.070 C 
BRANCH  16  17
ATOM     17  N   UNL     1      -5.325   0.705   6.179  0.00  0.00    +0.380 N 
ATOM     18  C   UNL     1      -4.146   1.565   6.333  0.00  0.00    -0.079 C 
ATOM     19  C   UNL     1      -4.550   2.874   7.016  0.00  0.00    -0.018 C 
ATOM     20  C   UNL     1      -5.141   2.563   8.394  0.00  0.00    -0.001 C 
ATOM     21  C   UNL     1      -6.325   1.606   8.227  0.00  0.00    -0.031 C 
ATOM     22  C   UNL     1      -5.854   0.344   7.499  0.00  0.00    -0.076 C 
ATOM     23  C   UNL     1      -6.874   1.228   9.604  0.00  0.00    +0.005 C 
ATOM     24  H   UNL     1      -6.033   1.199   5.657  0.00  0.00    -0.082 HD
ENDBRANCH  16  17
ENDBRANCH  15  16
ENDBRANCH  12  15
ENDBRANCH   2  11
BRANCH   1  25
ATOM     25  C   UNL     1      -5.273  -4.040   1.926  0.00  0.00    +0.336 C 
ATOM     26  O   UNL     1      -5.975  -4.420   1.019  0.00  0.00    -0.248 OA
BRANCH  25  27
ATOM     27  O   UNL     1      -5.816  -3.757   3.121  0.00  0.00    -0.463 OA
BRANCH  27  29
ATOM     28  C   UNL     1      -7.660  -3.559   4.670  0.00  0.00    +0.048 C 
ATOM     29  C   UNL     1      -7.229  -3.928   3.249  0.00  0.00    +0.229 C 
ENDBRANCH  27  29
ENDBRANCH  25  27
ENDBRANCH   1  25
BRANCH   5  30
ATOM     30  O   UNL     1      -1.366  -1.039  -2.890  0.00  0.00    -0.495 OA
ATOM     31  C   UNL     1      -0.823  -1.503  -4.127  0.00  0.00    +0.277 C 
ENDBRANCH   5  30
TORSDOF 8
