REMARK  Name = ZINC10751792
REMARK  8 active torsions:
REMARK  status: ('A' for Active; 'I' for Inactive)
REMARK    1  A    between atoms: C_1  and  C_2
REMARK    2  A    between atoms: C_7  and  N_8
REMARK    3  A    between atoms: C_9  and  C_11
REMARK    4  A    between atoms: C_11  and  O_12
REMARK    5  A    between atoms: O_12  and  C_13
REMARK    6  A    between atoms: C_13  and  C_15
REMARK    7  A    between atoms: C_15  and  N_16
REMARK    8  A    between atoms: C_24  and  C_26
REMARK                            x       y       z     vdW  Elec       q    Type
REMARK                         _______ _______ _______ _____ _____    ______ ____
ROOT
ATOM      1  C   UNL     1       2.916   1.291  -1.442  0.00  0.00    +0.326 C 
ATOM      2  O   UNL     1       2.178   1.587  -2.351  0.00  0.00    -0.249 OA
ENDROOT
BRANCH   1   3
ATOM      3  O   UNL     1       4.140   0.805  -1.702  0.00  0.00    -0.454 OA
BRANCH   3   4
ATOM      4  C   UNL     1       4.510   0.662  -3.098  0.00  0.00    +0.328 C 
BRANCH   4   6
ATOM      5  N   UNL     1       6.465  -0.112  -4.402  0.00  0.00    -0.282 N 
ATOM      6  C   UNL     1       5.907   0.106  -3.194  0.00  0.00    +0.255 C 
ATOM      7  O   UNL     1       6.530  -0.145  -2.184  0.00  0.00    -0.272 OA
ATOM      8  H   UNL     1       5.939   0.012  -5.208  0.00  0.00    +0.155 HD
BRANCH   5  15
ATOM      9  C   UNL     1       7.274  -1.564  -6.711  0.00  0.00    +0.046 C 
ATOM     10  C   UNL     1       8.238  -1.229  -5.602  0.00  0.00    -0.028 A 
ATOM     11  C   UNL     1       9.559  -1.623  -5.692  0.00  0.00    +0.020 A 
ATOM     12  C   UNL     1      10.443  -1.321  -4.672  0.00  0.00    +0.018 A 
ATOM     13  C   UNL     1      10.009  -0.617  -3.563  0.00  0.00    +0.017 A 
ATOM     14  C   UNL     1       8.691  -0.215  -3.470  0.00  0.00    +0.024 A 
ATOM     15  C   UNL     1       7.801  -0.518  -4.493  0.00  0.00    +0.036 A 
ATOM     16 BR   UNL     1      12.248  -1.870  -4.795  0.00  0.00    -0.050 Br
ENDBRANCH   5  15
ENDBRANCH   4   6
ENDBRANCH   3   4
ENDBRANCH   1   3
BRANCH   1  17
ATOM     17  C   UNL     1       2.463   1.467  -0.015  0.00  0.00    +0.238 C 
BRANCH  17  18
ATOM     18  N   UNL     1       1.102   2.009   0.001  0.00  0.00    -0.213 N 
ATOM     19  C   UNL     1       0.810   3.326   0.012  0.00  0.00    +0.247 C 
ATOM     20  O   UNL     1       1.593   4.251   0.011  0.00  0.00    -0.273 OA
ATOM     21  C   UNL     1      -0.700   3.404   0.026  0.00  0.00    +0.115 C 
ATOM     22  C   UNL     1      -1.206   4.124  -1.220  0.00  0.00    +0.035 C 
ATOM     23  C   UNL     1      -2.736   4.169  -1.201  0.00  0.00    +0.003 C 
ATOM     24  C   UNL     1      -3.208   4.900   0.058  0.00  0.00    +0.000 C 
ATOM     25  C   UNL     1      -2.713   4.153   1.298  0.00  0.00    +0.006 C 
ATOM     26  C   UNL     1      -1.183   4.107   1.290  0.00  0.00    +0.018 C 
ATOM     27  C   UNL     1      -0.689   3.342   2.519  0.00  0.00    +0.010 C 
ATOM     28  N   UNL     1      -1.130   2.001   0.015  0.00  0.00    -0.285 N 
ATOM     29  C   UNL     1      -0.007   1.258   0.006  0.00  0.00    +0.310 C 
ATOM     30  O   UNL     1       0.000   0.043  -0.002  0.00  0.00    -0.252 OA
ATOM     31  H   UNL     1      -2.043   1.673   0.016  0.00  0.00    +0.151 HD
ENDBRANCH  17  18
ENDBRANCH   1  17
TORSDOF 6
