REMARK  Name = ZINC63558006
REMARK  7 active torsions:
REMARK  status: ('A' for Active; 'I' for Inactive)
REMARK    1  A    between atoms: C_1  and  O_2
REMARK    2  A    between atoms: O_2  and  C_3
REMARK    3  A    between atoms: C_9  and  C_12
REMARK    4  A    between atoms: C_12  and  C_13
REMARK    5  A    between atoms: C_13  and  N_14
REMARK    6  A    between atoms: C_16  and  C_21
REMARK    7  A    between atoms: N_23  and  C_24
REMARK                            x       y       z     vdW  Elec       q    Type
REMARK                         _______ _______ _______ _____ _____    ______ ____
ROOT
ATOM      1  N   UNL     1      -0.760  -6.798   1.422  0.00  0.00    -0.300 N 
ATOM      2  C   UNL     1      -1.184  -8.199   1.321  0.00  0.00    +0.121 C 
ATOM      3  C   UNL     1       0.083  -8.985   0.916  0.00  0.00    +0.101 C 
ATOM      4  C   UNL     1       1.207  -8.072   1.459  0.00  0.00    +0.110 C 
ATOM      5  C   UNL     1       0.578  -6.697   1.501  0.00  0.00    +0.216 C 
ATOM      6  O   UNL     1       1.191  -5.655   1.595  0.00  0.00    -0.276 OA
ENDROOT
BRANCH   3   7
ATOM      7  C   UNL     1       0.115 -10.336   1.582  0.00  0.00    +0.222 C 
ATOM      8  O   UNL     1      -0.785 -10.669   2.323  0.00  0.00    -0.275 OA
ATOM      9  N   UNL     1       1.145 -11.175   1.355  0.00  0.00    -0.285 N 
ATOM     10  H   UNL     1       1.831 -10.938   0.711  0.00  0.00    +0.155 HD
BRANCH   9  11
ATOM     11  C   UNL     1       1.225 -12.389   2.047  0.00  0.00    +0.033 A 
ATOM     12  C   UNL     1       2.463 -12.894   2.424  0.00  0.00    +0.024 A 
ATOM     13  C   UNL     1       2.539 -14.092   3.107  0.00  0.00    +0.017 A 
ATOM     14  C   UNL     1       1.383 -14.788   3.416  0.00  0.00    +0.018 A 
ATOM     15  C   UNL     1       0.149 -14.287   3.042  0.00  0.00    +0.017 A 
ATOM     16  C   UNL     1       0.067 -13.087   2.363  0.00  0.00    +0.024 A 
ATOM     17 BR   UNL     1       1.492 -16.428   4.351  0.00  0.00    -0.050 Br
ENDBRANCH   9  11
ENDBRANCH   3   7
BRANCH   1  18
ATOM     18  C   UNL     1      -1.677  -5.655   1.430  0.00  0.00    +0.112 C 
BRANCH  18  19
ATOM     19  C   UNL     1      -1.917  -5.184  -0.005  0.00  0.00    +0.052 C 
BRANCH  19  26
ATOM     20  C   UNL     1      -1.212  -0.645  -0.031  0.00  0.00    +0.121 A 
ATOM     21  C   UNL     1      -2.386   0.127  -0.019  0.00  0.00    +0.047 A 
ATOM     22  C   UNL     1      -3.619  -0.424  -0.001  0.00  0.00    +0.029 A 
ATOM     23  C   UNL     1      -3.763  -1.883   0.006  0.00  0.00    +0.043 A 
ATOM     24  N   UNL     1      -4.819  -2.658   0.023  0.00  0.00    -0.380 N 
ATOM     25  C   UNL     1      -4.372  -4.056   0.023  0.00  0.00    +0.144 C 
ATOM     26  C   UNL     1      -2.860  -4.008   0.003  0.00  0.00    -0.040 C 
ATOM     27  C   UNL     1      -2.527  -2.698  -0.007  0.00  0.00    +0.002 A 
ATOM     28  C   UNL     1      -1.237  -2.000  -0.031  0.00  0.00    +0.055 A 
ATOM     29  H   UNL     1      -5.741  -2.359   0.034  0.00  0.00    +0.160 HD
BRANCH  20  31
ATOM     30  C   UNL     1      -0.029   1.417  -0.048  0.00  0.00    +0.277 C 
ATOM     31  O   UNL     1      -0.009  -0.011  -0.048  0.00  0.00    -0.495 OA
ENDBRANCH  20  31
ENDBRANCH  19  26
ENDBRANCH  18  19
ENDBRANCH   1  18
TORSDOF 6
