REMARK  Name = ZINC20569080
REMARK  12 active torsions:
REMARK  status: ('A' for Active; 'I' for Inactive)
REMARK    1  A    between atoms: C_1  and  C_2
REMARK    2  A    between atoms: C_3  and  C_23
REMARK    3  A    between atoms: N_11  and  C_19
REMARK    4  A    between atoms: C_12  and  N_18
REMARK    5  A    between atoms: C_13  and  C_14
REMARK    6  A    between atoms: C_14  and  O_16
REMARK    7  A    between atoms: O_16  and  C_17
REMARK    8  A    between atoms: C_23  and  O_25
REMARK    9  A    between atoms: O_25  and  C_26
REMARK   10  A    between atoms: C_26  and  C_27
REMARK   11  A    between atoms: C_26  and  C_28
REMARK   12  A    between atoms: C_26  and  C_29
REMARK                            x       y       z     vdW  Elec       q    Type
REMARK                         _______ _______ _______ _____ _____    ______ ____
ROOT
ATOM      1  C   UNL     1      -2.952   3.376  -1.202  0.00  0.00    +0.087 C 
ATOM      2  C   UNL     1      -2.747   2.147  -0.354  0.00  0.00    +0.117 C 
ATOM      3  C   UNL     1      -2.712   0.898  -0.847  0.00  0.00    +0.100 C 
ATOM      4  C   UNL     1      -2.488  -0.007   0.345  0.00  0.00    +0.164 C 
ATOM      5  C   UNL     1      -3.654  -0.934   0.510  0.00  0.00    +0.000 A 
ATOM      6  C   UNL     1      -4.858  -0.443   0.984  0.00  0.00    +0.007 A 
ATOM      7  C   UNL     1      -5.941  -1.287   1.138  0.00  0.00    +0.000 A 
ATOM      8  C   UNL     1      -5.829  -2.628   0.819  0.00  0.00    +0.002 A 
ATOM      9  C   UNL     1      -4.631  -3.126   0.347  0.00  0.00    +0.024 A 
ATOM     10  C   UNL     1      -3.539  -2.281   0.193  0.00  0.00    +0.039 A 
ATOM     11  N   UNL     1      -2.328  -2.791  -0.281  0.00  0.00    -0.291 N 
ATOM     12  C   UNL     1      -1.166  -2.088  -0.102  0.00  0.00    +0.100 C 
ATOM     13  C   UNL     1      -1.196  -0.750   0.201  0.00  0.00    +0.098 C 
ATOM     14  C   UNL     1      -2.301  -4.082  -0.973  0.00  0.00    +0.137 C 
ATOM     15  C   UNL     1      -2.415   0.960   1.508  0.00  0.00    +0.332 C 
ATOM     16  O   UNL     1      -2.245   0.688   2.673  0.00  0.00    -0.249 OA
ATOM     17  O   UNL     1      -2.579   2.182   0.974  0.00  0.00    -0.429 OA
ENDROOT
BRANCH  12  18
ATOM     18  N   UNL     1       0.040  -2.728  -0.228  0.00  0.00    -0.346 N 
ATOM     19  H   UNL     1       0.977  -2.169  -0.086  0.00  0.00    +0.143 HD
ATOM     20  H   UNL     1       0.071  -3.800  -0.471  0.00  0.00    +0.143 HD
ENDBRANCH  12  18
BRANCH  13  21
ATOM     21  C   UNL     1       0.010  -0.064   0.385  0.00  0.00    +0.340 C 
ATOM     22  O   UNL     1       1.064  -0.676   0.391  0.00  0.00    -0.245 OA
BRANCH  21  23
ATOM     23  O   UNL     1       0.006   1.276   0.556  0.00  0.00    -0.465 OA
ATOM     24  C   UNL     1       1.274   1.911   0.739  0.00  0.00    +0.280 C 
ENDBRANCH  21  23
ENDBRANCH  13  21
BRANCH   3  25
ATOM     25  C   UNL     1      -2.854   0.508  -2.203  0.00  0.00    +0.341 C 
ATOM     26  O   UNL     1      -3.031   1.351  -3.062  0.00  0.00    -0.245 OA
BRANCH  25  27
ATOM     27  O   UNL     1      -2.795  -0.797  -2.539  0.00  0.00    -0.456 OA
BRANCH  27  28
ATOM     28  C   UNL     1      -2.946  -1.117  -3.924  0.00  0.00    +0.106 C 
ATOM     29  C   UNL     1      -1.840  -0.433  -4.730  0.00  0.00    +0.055 C 
ATOM     30  C   UNL     1      -2.851  -2.633  -4.110  0.00  0.00    +0.055 C 
ATOM     31  C   UNL     1      -4.311  -0.628  -4.414  0.00  0.00    +0.055 C 
ENDBRANCH  27  28
ENDBRANCH  25  27
ENDBRANCH   3  25
TORSDOF 6
