REMARK  Name = ZINC19324756
REMARK  6 active torsions:
REMARK  status: ('A' for Active; 'I' for Inactive)
REMARK    1  A    between atoms: C_1  and  C_2
REMARK    2  A    between atoms: C_5  and  C_8
REMARK    3  A    between atoms: N_9  and  N_10
REMARK    4  A    between atoms: C_11  and  C_12
REMARK    5  A    between atoms: C_11  and  C_21
REMARK    6  A    between atoms: C_16  and  N_18
REMARK                            x       y       z     vdW  Elec       q    Type
REMARK                         _______ _______ _______ _____ _____    ______ ____
ROOT
ATOM      1  N   UNL     1      -1.230   5.916  -0.036  0.00  0.00    -0.153 NA
ATOM      2  C   UNL     1      -0.070   5.316   0.032  0.00  0.00    +0.077 C 
ENDROOT
BRANCH   2   3
ATOM      3  C   UNL     1       1.194   6.130   0.138  0.00  0.00    +0.026 C 
ATOM      4  C   UNL     1       2.066   5.924  -1.108  0.00  0.00    -0.059 C 
ATOM      5  N   UNL     1       3.301   6.745  -0.930  0.00  0.00    +0.397 N 
ATOM      6  C   UNL     1       2.949   8.171  -0.832  0.00  0.00    +0.011 C 
ATOM      7  N   UNL     1       2.118   8.378   0.366  0.00  0.00    -0.305 NA
ATOM      8  C   UNL     1       0.858   7.623   0.252  0.00  0.00    +0.096 C 
ATOM      9  C   UNL     1       2.853   7.966   1.573  0.00  0.00    +0.167 C 
ATOM     10  N   UNL     1       3.207   6.542   1.456  0.00  0.00    -0.305 NA
ATOM     11  C   UNL     1       1.990   5.717   1.385  0.00  0.00    +0.096 C 
ATOM     12  C   UNL     1       4.046   6.322   0.267  0.00  0.00    +0.011 C 
ATOM     13  H   UNL     1       3.958   6.604  -1.800  0.00  0.00    -0.078 HD
ENDBRANCH   2   3
BRANCH   2  14
ATOM     14  C   UNL     1       0.001   3.848   0.005  0.00  0.00    +0.001 A 
ATOM     15  C   UNL     1       1.242   3.204  -0.040  0.00  0.00    +0.010 A 
ATOM     16  C   UNL     1       1.300   1.827  -0.065  0.00  0.00    +0.003 A 
ATOM     17  C   UNL     1       0.134   1.081  -0.045  0.00  0.00    +0.033 A 
ATOM     18  C   UNL     1      -1.098   1.710  -0.007  0.00  0.00    +0.127 A 
ATOM     19  C   UNL     1      -1.173   3.087   0.024  0.00  0.00    +0.042 A 
BRANCH  18  20
ATOM     20  N   UNL     1      -2.339   0.903   0.008  0.00  0.00    +0.056 N 
ATOM     21  O   UNL     1      -2.275  -0.313  -0.015  0.00  0.00    -0.126 OA
ATOM     22  O   UNL     1      -3.424   1.455   0.042  0.00  0.00    -0.126 OA
ENDBRANCH  18  20
ENDBRANCH   2  14
BRANCH   1  24
ATOM     23  C   UNL     1      -2.446   7.803  -0.182  0.00  0.00    +0.142 C 
ATOM     24  N   UNL     1      -1.286   7.203  -0.114  0.00  0.00    -0.157 NA
BRANCH  23  29
ATOM     25  C   UNL     1      -2.700  13.535  -0.524  0.00  0.00    +0.044 C 
ATOM     26  C   UNL     1      -2.633  12.032  -0.435  0.00  0.00    -0.050 A 
ATOM     27  C   UNL     1      -3.802  11.290  -0.425  0.00  0.00    +0.004 A 
ATOM     28  C   UNL     1      -3.750   9.915  -0.343  0.00  0.00    +0.010 A 
ATOM     29  C   UNL     1      -2.511   9.269  -0.270  0.00  0.00    -0.005 A 
ATOM     30  C   UNL     1      -1.334  10.026  -0.275  0.00  0.00    +0.010 A 
ATOM     31  C   UNL     1      -1.404  11.400  -0.362  0.00  0.00    +0.004 A 
ENDBRANCH  23  29
ENDBRANCH   1  24
TORSDOF 5
