REMARK  Name = ZINC65237626
REMARK  5 active torsions:
REMARK  status: ('A' for Active; 'I' for Inactive)
REMARK    1  A    between atoms: C_1  and  C_2
REMARK    2  A    between atoms: C_2  and  C_3
REMARK    3  A    between atoms: C_2  and  C_4
REMARK    4  A    between atoms: C_7  and  N_10
REMARK    5  A    between atoms: C_11  and  C_13
REMARK                            x       y       z     vdW  Elec       q    Type
REMARK                         _______ _______ _______ _____ _____    ______ ____
ROOT
ATOM      1  C   UNL     1       2.763  -2.982   6.770  0.00  0.00    +0.153 C 
ATOM      2  N   UNL     1       3.995  -2.707   7.090  0.00  0.00    -0.166 NA
ATOM      3  N   UNL     1       4.343  -3.247   8.335  0.00  0.00    -0.184 N 
ATOM      4  N   UNL     1       3.335  -4.107   8.747  0.00  0.00    -0.218 N 
ATOM      5  C   UNL     1       2.160  -3.772   7.905  0.00  0.00    +0.236 C 
ATOM      6  C   UNL     1       1.583  -5.078   7.424  0.00  0.00    +0.246 C 
ATOM      7  O   UNL     1       0.964  -5.118   6.381  0.00  0.00    -0.273 OA
ATOM      8  N   UNL     1       1.751  -6.205   8.147  0.00  0.00    -0.282 N 
ATOM      9  C   UNL     1       2.459  -6.222   9.354  0.00  0.00    +0.056 A 
ATOM     10  C   UNL     1       3.304  -5.148   9.668  0.00  0.00    +0.071 A 
ATOM     11  C   UNL     1       4.030  -5.150  10.839  0.00  0.00    +0.026 A 
ATOM     12  C   UNL     1       3.924  -6.222  11.710  0.00  0.00    +0.002 A 
ATOM     13  C   UNL     1       3.093  -7.284  11.404  0.00  0.00    +0.002 A 
ATOM     14  C   UNL     1       2.352  -7.281  10.237  0.00  0.00    +0.025 A 
ATOM     15  H   UNL     1       5.156  -3.051   8.827  0.00  0.00    +0.193 HD
ATOM     16  H   UNL     1       1.368  -7.033   7.818  0.00  0.00    +0.155 HD
ENDROOT
BRANCH   1  18
ATOM     17  N   UNL     1       2.745  -1.883   4.597  0.00  0.00    -0.280 N 
ATOM     18  C   UNL     1       2.084  -2.591   5.534  0.00  0.00    +0.266 C 
ATOM     19  O   UNL     1       0.923  -2.906   5.352  0.00  0.00    -0.268 OA
ATOM     20  H   UNL     1       3.691  -1.698   4.707  0.00  0.00    +0.155 HD
BRANCH  17  24
ATOM     21  C   UNL     1       0.726  -0.489   1.232  0.00  0.00    -0.045 A 
ATOM     22  C   UNL     1       2.054  -0.863   1.134  0.00  0.00    +0.006 A 
ATOM     23  C   UNL     1       2.726  -1.325   2.248  0.00  0.00    +0.023 A 
ATOM     24  C   UNL     1       2.068  -1.415   3.468  0.00  0.00    +0.034 A 
ATOM     25  C   UNL     1       0.734  -1.038   3.562  0.00  0.00    +0.023 A 
ATOM     26  C   UNL     1       0.069  -0.571   2.446  0.00  0.00    +0.006 A 
BRANCH  21  28
ATOM     27  C   UNL     1       0.699   1.264  -0.522  0.00  0.00    +0.012 C 
ATOM     28  C   UNL     1      -0.004   0.016   0.014  0.00  0.00    +0.013 C 
ATOM     29  C   UNL     1      -0.009  -1.070  -1.064  0.00  0.00    +0.012 C 
ENDBRANCH  21  28
ENDBRANCH  17  24
ENDBRANCH   1  18
TORSDOF 3
