REMARK  Name = ZINC00861250
REMARK  6 active torsions:
REMARK  status: ('A' for Active; 'I' for Inactive)
REMARK    1  A    between atoms: C_1  and  C_2
REMARK    2  A    between atoms: C_3  and  C_20
REMARK    3  A    between atoms: C_4  and  C_10
REMARK    4  A    between atoms: C_12  and  N_17
REMARK    5  A    between atoms: C_20  and  O_22
REMARK    6  A    between atoms: O_22  and  C_23
REMARK                            x       y       z     vdW  Elec       q    Type
REMARK                         _______ _______ _______ _____ _____    ______ ____
ROOT
ATOM      1  C   UNL     1       3.870  -3.009  -2.662  0.00  0.00    +0.061 C 
ATOM      2  C   UNL     1       3.233  -2.696  -1.332  0.00  0.00    +0.018 C 
ATOM      3  C   UNL     1       1.911  -2.464  -1.272  0.00  0.00    +0.061 C 
ATOM      4  C   UNL     1       1.255  -2.108   0.036  0.00  0.00    +0.068 C 
ATOM      5  C   UNL     1       1.972  -2.829   1.180  0.00  0.00    +0.109 C 
ATOM      6  C   UNL     1       3.462  -2.661   1.019  0.00  0.00    +0.218 C 
ATOM      7  O   UNL     1       4.165  -2.532   1.998  0.00  0.00    -0.275 OA
ATOM      8  N   UNL     1       4.013  -2.654  -0.208  0.00  0.00    -0.289 N 
ATOM      9  H   UNL     1       4.979  -2.618  -0.297  0.00  0.00    +0.155 HD
ENDROOT
BRANCH   4  10
ATOM     10  C   UNL     1       1.338  -0.619   0.251  0.00  0.00    -0.019 A 
ATOM     11  C   UNL     1       2.571   0.003   0.317  0.00  0.00    +0.038 A 
ATOM     12  C   UNL     1       2.647   1.369   0.514  0.00  0.00    +0.127 A 
ATOM     13  C   UNL     1       1.490   2.114   0.646  0.00  0.00    +0.034 A 
ATOM     14  C   UNL     1       0.257   1.494   0.581  0.00  0.00    +0.022 A 
ATOM     15  C   UNL     1       0.180   0.127   0.383  0.00  0.00    +0.045 A 
ATOM     16 CL   UNL     1      -1.369  -0.653   0.302  0.00  0.00    -0.083 Cl
BRANCH  12  17
ATOM     17  N   UNL     1       3.968   2.034   0.583  0.00  0.00    +0.056 N 
ATOM     18  O   UNL     1       4.987   1.377   0.467  0.00  0.00    -0.126 OA
ATOM     19  O   UNL     1       4.035   3.237   0.757  0.00  0.00    -0.126 OA
ENDBRANCH  12  17
ENDBRANCH   4  10
BRANCH   3  20
ATOM     20  C   UNL     1       1.129  -2.554  -2.448  0.00  0.00    +0.337 C 
ATOM     21  O   UNL     1       0.392  -3.508  -2.617  0.00  0.00    -0.245 OA
BRANCH  20  22
ATOM     22  O   UNL     1       1.200  -1.583  -3.382  0.00  0.00    -0.458 OA
BRANCH  22  23
ATOM     23  C   UNL     1       0.383  -1.739  -4.544  0.00  0.00    +0.177 C 
ATOM     24  C   UNL     1       1.161  -2.505  -5.616  0.00  0.00    +0.044 C 
ATOM     25  C   UNL     1       0.285  -2.672  -6.859  0.00  0.00    +0.004 C 
ATOM     26  C   UNL     1      -0.103  -1.294  -7.398  0.00  0.00    +0.000 C 
ATOM     27  C   UNL     1      -0.881  -0.528  -6.327  0.00  0.00    +0.004 C 
ATOM     28  C   UNL     1      -0.006  -0.361  -5.083  0.00  0.00    +0.044 C 
ENDBRANCH  22  23
ENDBRANCH  20  22
ENDBRANCH   3  20
TORSDOF 5
