REMARK  Name = ZINC04188364
REMARK  8 active torsions:
REMARK  status: ('A' for Active; 'I' for Inactive)
REMARK    1  A    between atoms: C_1  and  C_2
REMARK    2  A    between atoms: C_2  and  O_3
REMARK    3  A    between atoms: O_3  and  C_4
REMARK    4  A    between atoms: C_9  and  O_10
REMARK    5  A    between atoms: O_10  and  C_11
REMARK    6  A    between atoms: C_11  and  C_12
REMARK    7  A    between atoms: C_18  and  C_22
REMARK    8  A    between atoms: C_26  and  N_28
REMARK                            x       y       z     vdW  Elec       q    Type
REMARK                         _______ _______ _______ _____ _____    ______ ____
ROOT
ATOM      1  C   UNL     1       0.777  -1.811  -1.336  0.00  0.00    +0.162 A 
ATOM      2  C   UNL     1       0.241  -2.665  -0.384  0.00  0.00    +0.053 A 
ATOM      3  C   UNL     1       0.334  -4.032  -0.555  0.00  0.00    -0.037 A 
ATOM      4  C   UNL     1       0.938  -4.540  -1.703  0.00  0.00    +0.051 A 
ATOM      5  C   UNL     1       1.504  -3.699  -2.638  0.00  0.00    +0.075 A 
ATOM      6  C   UNL     1       1.417  -2.325  -2.460  0.00  0.00    +0.164 A 
ATOM      7  N   UNL     1       0.859  -5.932  -1.893  0.00  0.00    -0.321 N 
ATOM      8  C   UNL     1       1.800  -6.819  -2.288  0.00  0.00    +0.091 A 
ATOM      9  C   UNL     1       1.229  -8.046  -2.309  0.00  0.00    +0.020 A 
ATOM     10  C   UNL     1      -0.117  -7.894  -1.911  0.00  0.00    +0.022 A 
ATOM     11  C   UNL     1      -0.320  -6.589  -1.664  0.00  0.00    +0.014 A 
ATOM     12  C   UNL     1      -1.581  -5.907  -1.220  0.00  0.00    +0.008 C 
ATOM     13  N   UNL     1      -1.501  -5.532   0.202  0.00  0.00    +0.390 N 
ATOM     14  C   UNL     1      -0.162  -4.987   0.485  0.00  0.00    -0.043 C 
ATOM     15  H   UNL     1      -2.199  -4.834   0.407  0.00  0.00    -0.084 HD
ATOM     16  H   UNL     1      -1.660  -6.348   0.775  0.00  0.00    -0.084 HD
ENDROOT
BRANCH  12  17
ATOM     17  C   UNL     1      -2.747  -6.840  -1.421  0.00  0.00    -0.054 A 
ATOM     18  C   UNL     1      -3.003  -7.835  -0.496  0.00  0.00    +0.002 A 
ATOM     19  C   UNL     1      -4.072  -8.692  -0.680  0.00  0.00    +0.002 A 
ATOM     20  C   UNL     1      -4.886  -8.553  -1.789  0.00  0.00    +0.033 A 
ATOM     21  C   UNL     1      -4.630  -7.558  -2.714  0.00  0.00    +0.126 A 
ATOM     22  C   UNL     1      -3.564  -6.699  -2.527  0.00  0.00    +0.035 A 
BRANCH  21  23
ATOM     23  N   UNL     1      -5.501  -7.410  -3.901  0.00  0.00    +0.056 N 
ATOM     24  O   UNL     1      -6.436  -8.160  -4.063  0.00  0.00    -0.126 OA
ATOM     25  O   UNL     1      -5.278  -6.540  -4.710  0.00  0.00    -0.126 OA
ENDBRANCH  21  23
ENDBRANCH  12  17
BRANCH   1  26
ATOM     26  O   UNL     1       0.671  -0.465  -1.174  0.00  0.00    -0.489 OA
BRANCH  26  28
ATOM     27  C   UNL     1      -0.019   1.526   0.010  0.00  0.00    +0.048 C 
ATOM     28  C   UNL     1       0.002  -0.004   0.002  0.00  0.00    +0.226 C 
ENDBRANCH  26  28
ENDBRANCH   1  26
BRANCH   6  29
ATOM     29  O   UNL     1       1.960  -1.483  -3.380  0.00  0.00    -0.489 OA
BRANCH  29  30
ATOM     30  C   UNL     1       2.602  -2.081  -4.508  0.00  0.00    +0.226 C 
ATOM     31  C   UNL     1       3.147  -0.984  -5.425  0.00  0.00    +0.048 C 
ENDBRANCH  29  30
ENDBRANCH   6  29
TORSDOF 6
