REMARK  Name = ZINC11879853
REMARK  13 active torsions:
REMARK  status: ('A' for Active; 'I' for Inactive)
REMARK    1  A    between atoms: C_1  and  N_63
REMARK    2  A    between atoms: C_2  and  C_3
REMARK    3  A    between atoms: C_2  and  N_63
REMARK    4  A    between atoms: C_9  and  C_10
REMARK    5  A    between atoms: C_9  and  N_63
REMARK    6  A    between atoms: C_10  and  C_12
REMARK    7  A    between atoms: C_10  and  O_32
REMARK    8  A    between atoms: C_12  and  O_13
REMARK    9  A    between atoms: O_13  and  C_14
REMARK   10  A    between atoms: C_17  and  C_20
REMARK   11  A    between atoms: C_20  and  N_65
REMARK   12  A    between atoms: C_21  and  C_22
REMARK   13  A    between atoms: C_21  and  N_65
REMARK                            x       y       z     vdW  Elec       q    Type
REMARK                         _______ _______ _______ _____ _____    ______ ____
ROOT
ATOM      1  C   UNL     1      -4.188   6.755   5.853  0.00  0.00    +0.121 A 
ATOM      2  C   UNL     1      -3.369   7.809   5.474  0.00  0.00    +0.046 A 
ATOM      3  C   UNL     1      -2.770   7.804   4.229  0.00  0.00    +0.005 A 
ATOM      4  C   UNL     1      -2.986   6.749   3.361  0.00  0.00    -0.064 A 
ATOM      5  C   UNL     1      -3.806   5.700   3.734  0.00  0.00    +0.005 A 
ATOM      6  C   UNL     1      -4.403   5.698   4.980  0.00  0.00    +0.046 A 
ENDROOT
BRANCH   1   7
ATOM      7  O   UNL     1      -4.779   6.758   7.077  0.00  0.00    -0.489 OA
BRANCH   7   8
ATOM      8  C   UNL     1      -5.609   5.640   7.399  0.00  0.00    +0.258 C 
BRANCH   8   9
ATOM      9  C   UNL     1      -6.181   5.819   8.806  0.00  0.00    +0.135 C 
BRANCH   9  10
ATOM     10  O   UNL     1      -5.118   5.788   9.761  0.00  0.00    -0.390 OA
ATOM     11  H   UNL     1      -4.614   4.963   9.761  0.00  0.00    +0.210 HD
ENDBRANCH   9  10
BRANCH   9  12
ATOM     12  C   UNL     1      -7.167   4.687   9.104  0.00  0.00    -0.044 C 
BRANCH  12  14
ATOM     13  C   UNL     1      -8.387   3.686  10.940  0.00  0.00    -0.096 C 
ATOM     14  N   UNL     1      -7.787   4.934  10.423  0.00  0.00    +0.382 N 
ATOM     15  H   UNL     1      -7.063   5.252  11.078  0.00  0.00    -0.082 HD
BRANCH  14  16
ATOM     16  C   UNL     1      -8.823   5.982  10.306  0.00  0.00    -0.043 C 
BRANCH  16  17
ATOM     17  C   UNL     1      -9.281   6.369  11.688  0.00  0.00    -0.064 A 
ATOM     18  C   UNL     1     -10.355   5.719  12.267  0.00  0.00    +0.002 A 
ATOM     19  C   UNL     1     -10.772   6.070  13.537  0.00  0.00    +0.000 A 
ATOM     20  C   UNL     1     -10.123   7.079  14.224  0.00  0.00    +0.000 A 
ATOM     21  C   UNL     1      -9.052   7.732  13.643  0.00  0.00    +0.000 A 
ATOM     22  C   UNL     1      -8.632   7.377  12.375  0.00  0.00    +0.002 A 
ENDBRANCH  16  17
ENDBRANCH  14  16
ENDBRANCH  12  14
ENDBRANCH   9  12
ENDBRANCH   8   9
ENDBRANCH   7   8
ENDBRANCH   1   7
BRANCH   4  23
ATOM     23  C   UNL     1      -2.331   6.746   2.004  0.00  0.00    -0.046 C 
BRANCH  23  24
ATOM     24  N   UNL     1      -1.018   6.080   2.102  0.00  0.00    +0.384 N 
ATOM     25  H   UNL     1      -1.151   5.115   2.428  0.00  0.00    -0.085 HD
ATOM     26  H   UNL     1      -0.430   6.589   2.772  0.00  0.00    -0.085 HD
BRANCH  24  27
ATOM     27  C   UNL     1      -0.353   6.063   0.786  0.00  0.00    -0.046 C 
BRANCH  27  28
ATOM     28  C   UNL     1       0.983   5.378   0.917  0.00  0.00    -0.057 A 
ATOM     29  C   UNL     1       2.123   6.115   1.016  0.00  0.00    +0.002 A 
ATOM     30  C   UNL     1       3.367   5.500   1.137  0.00  0.00    +0.001 A 
ATOM     31  C   UNL     1       3.479   4.143   1.161  0.00  0.00    +0.008 A 
ATOM     32  C   UNL     1       2.324   3.349   1.061  0.00  0.00    -0.018 A 
ATOM     33  C   UNL     1       1.059   3.975   0.937  0.00  0.00    -0.017 A 
ATOM     34  C   UNL     1      -0.096   3.180   0.836  0.00  0.00    +0.009 A 
ATOM     35  C   UNL     1       0.016   1.824   0.854  0.00  0.00    +0.001 A 
ATOM     36  C   UNL     1       1.260   1.209   0.981  0.00  0.00    +0.001 A 
ATOM     37  C   UNL     1       2.400   1.946   1.081  0.00  0.00    +0.008 A 
ENDBRANCH  27  28
ENDBRANCH  24  27
ENDBRANCH  23  24
ENDBRANCH   4  23
TORSDOF 12
