REMARK  Name = ZINC16694647
REMARK  8 active torsions:
REMARK  status: ('A' for Active; 'I' for Inactive)
REMARK    1  A    between atoms: C_1  and  C_2
REMARK    2  A    between atoms: C_2  and  C_28
REMARK    3  A    between atoms: N_5  and  C_9
REMARK    4  A    between atoms: C_9  and  C_10
REMARK    5  A    between atoms: C_16  and  S_18
REMARK    6  A    between atoms: S_18  and  C_19
REMARK    7  A    between atoms: C_19  and  C_20
REMARK    8  A    between atoms: C_23  and  C_26
REMARK                            x       y       z     vdW  Elec       q    Type
REMARK                         _______ _______ _______ _____ _____    ______ ____
ROOT
ATOM      1  C   UNL     1      -2.325  -0.470   0.022  0.00  0.00    +0.237 C 
ATOM      2  O   UNL     1      -2.552   0.722   0.031  0.00  0.00    -0.274 OA
ATOM      3  N   UNL     1      -1.053  -0.914   0.007  0.00  0.00    -0.262 N 
ATOM      4  C   UNL     1       0.002  -0.004   0.002  0.00  0.00    +0.189 A 
ATOM      5  N   UNL     1      -0.016   1.319   0.009  0.00  0.00    -0.125 NA
ATOM      6  N   UNL     1       1.044   2.002   0.003  0.00  0.00    -0.133 NA
ATOM      7  C   UNL     1       2.242   1.436  -0.012  0.00  0.00    +0.160 A 
ATOM      8  S   UNL     1       1.769  -0.291  -0.016  0.00  0.00    -0.024 S 
ATOM      9  H   UNL     1      -0.871  -1.867   0.000  0.00  0.00    +0.157 HD
ENDROOT
BRANCH   1  10
ATOM     10  C   UNL     1      -3.466  -1.454   0.028  0.00  0.00    +0.214 C 
BRANCH  10  15
ATOM     11  C   UNL     1      -6.664   1.820  -1.037  0.00  0.00    +0.042 C 
ATOM     12  C   UNL     1      -6.650   0.365  -0.565  0.00  0.00    +0.113 C 
ATOM     13  C   UNL     1      -5.406  -0.345  -1.062  0.00  0.00    +0.247 C 
ATOM     14  O   UNL     1      -5.080  -0.530  -2.215  0.00  0.00    -0.273 OA
ATOM     15  N   UNL     1      -4.738  -0.727   0.044  0.00  0.00    -0.215 N 
ATOM     16  C   UNL     1      -5.383  -0.365   1.160  0.00  0.00    +0.310 C 
ATOM     17  O   UNL     1      -4.978  -0.603   2.281  0.00  0.00    -0.252 OA
ATOM     18  N   UNL     1      -6.527   0.294   0.901  0.00  0.00    -0.285 N 
ATOM     19  H   UNL     1      -7.151   0.649   1.554  0.00  0.00    +0.151 HD
BRANCH  12  20
ATOM     20  C   UNL     1      -7.910  -0.364  -1.035  0.00  0.00    +0.021 C 
ATOM     21  C   UNL     1      -8.726   0.285  -2.154  0.00  0.00    +0.006 C 
ATOM     22  C   UNL     1      -9.260   0.284  -0.720  0.00  0.00    +0.006 C 
ENDBRANCH  12  20
ENDBRANCH  10  15
ENDBRANCH   1  10
BRANCH   7  23
ATOM     23  S   UNL     1       3.843   2.172  -0.022  0.00  0.00    -0.092 S 
BRANCH  23  24
ATOM     24  C   UNL     1       3.507   3.954  -0.010  0.00  0.00    +0.111 C 
BRANCH  24  25
ATOM     25  C   UNL     1       4.809   4.712  -0.018  0.00  0.00    -0.037 A 
ATOM     26  C   UNL     1       5.413   5.056   1.178  0.00  0.00    +0.006 A 
ATOM     27  C   UNL     1       6.608   5.745   1.178  0.00  0.00    +0.019 A 
ATOM     28  C   UNL     1       7.203   6.104  -0.033  0.00  0.00    +0.052 A 
ATOM     29  C   UNL     1       6.586   5.758  -1.236  0.00  0.00    +0.019 A 
ATOM     30  C   UNL     1       5.394   5.064  -1.222  0.00  0.00    +0.006 A 
BRANCH  28  31
ATOM     31  C   UNL     1       8.441   6.824  -0.040  0.00  0.00    +0.099 C 
ATOM     32  N   UNL     1       9.423   7.394  -0.046  0.00  0.00    -0.191 NA
ENDBRANCH  28  31
ENDBRANCH  24  25
ENDBRANCH  23  24
ENDBRANCH   7  23
TORSDOF 7
