REMARK  Name = ZINC52095069
REMARK  2 active torsions:
REMARK  status: ('A' for Active; 'I' for Inactive)
REMARK    1  A    between atoms: C_3  and  C_6
REMARK    2  A    between atoms: C_6  and  C_8
REMARK                            x       y       z     vdW  Elec       q    Type
REMARK                         _______ _______ _______ _____ _____    ______ ____
ROOT
ATOM      1  C   UNL     1       4.100   0.006   1.250  0.00  0.00    -0.006 A 
ATOM      2  C   UNL     1       4.402  -1.341   1.291  0.00  0.00    +0.034 A 
ATOM      3  C   UNL     1       4.863  -1.910   2.468  0.00  0.00    +0.067 A 
ATOM      4  C   UNL     1       5.020  -1.119   3.608  0.00  0.00    +0.068 A 
ATOM      5  C   UNL     1       4.714   0.232   3.559  0.00  0.00    +0.043 A 
ATOM      6  C   UNL     1       4.261   0.792   2.379  0.00  0.00    +0.025 A 
ATOM      7 BR   UNL     1       3.851   2.637   2.309  0.00  0.00    -0.050 Br
ATOM      8  N   UNL     1       5.490  -1.956   4.617  0.00  0.00    -0.306 N 
ATOM      9  H   UNL     1       5.694  -1.690   5.527  0.00  0.00    +0.170 HD
ATOM     10  C   UNL     1       5.614  -3.199   4.114  0.00  0.00    +0.325 A 
ATOM     11  O   UNL     1       6.001  -4.171   4.735  0.00  0.00    -0.247 OA
ATOM     12  N   UNL     1       5.243  -3.203   2.820  0.00  0.00    -0.306 N 
ATOM     13  H   UNL     1       5.241  -3.975   2.232  0.00  0.00    +0.170 HD
ENDROOT
BRANCH   1  14
ATOM     14  C   UNL     1       3.599   0.625  -0.029  0.00  0.00    +0.177 C 
ATOM     15 CL   UNL     1       4.163  -0.356  -1.433  0.00  0.00    -0.108 Cl
BRANCH  14  18
ATOM     16  C   UNL     1      -0.016   1.341   0.009  0.00  0.00    +0.041 A 
ATOM     17  C   UNL     1       1.331   1.769  -0.001  0.00  0.00    +0.046 A 
ATOM     18  C   UNL     1       2.092   0.660  -0.014  0.00  0.00    +0.127 A 
ATOM     19  O   UNL     1       1.282  -0.411  -0.012  0.00  0.00    -0.466 OA
ATOM     20  C   UNL     1       0.002  -0.004   0.002  0.00  0.00    +0.195 A 
ENDBRANCH  14  18
ENDBRANCH   1  14
TORSDOF 2
