REMARK  Name = ZINC50839027
REMARK  7 active torsions:
REMARK  status: ('A' for Active; 'I' for Inactive)
REMARK    1  A    between atoms: C_1  and  C_2
REMARK    2  A    between atoms: C_3  and  C_10
REMARK    3  A    between atoms: C_4  and  N_8
REMARK    4  A    between atoms: N_5  and  C_7
REMARK    5  A    between atoms: N_8  and  C_9
REMARK    6  A    between atoms: C_10  and  S_11
REMARK    7  A    between atoms: S_11  and  C_12
REMARK                            x       y       z     vdW  Elec       q    Type
REMARK                         _______ _______ _______ _____ _____    ______ ____
ROOT
ATOM      1  C   UNL     1      -0.018  -0.156  -2.363  0.00  0.00    +0.116 C 
ENDROOT
BRANCH   1   4
ATOM      2  C   UNL     1      -0.497   1.576   0.245  0.00  0.00    +0.065 C 
ATOM      3  C   UNL     1      -0.201   0.099   0.207  0.00  0.00    +0.037 A 
ATOM      4  C   UNL     1       0.010  -0.664  -0.945  0.00  0.00    +0.022 A 
ATOM      5  C   UNL     1       0.245  -1.948  -0.557  0.00  0.00    +0.119 A 
ATOM      6  N   UNL     1       0.182  -1.984   0.794  0.00  0.00    -0.276 N 
ATOM      7  N   UNL     1      -0.093  -0.687   1.247  0.00  0.00    -0.300 N 
ATOM      8  C   UNL     1       0.374  -3.168   1.634  0.00  0.00    +0.172 C 
ATOM      9  H   UNL     1      -0.189  -0.419   2.175  0.00  0.00    +0.187 HD
BRANCH   5  10
ATOM     10  N   UNL     1       0.502  -3.027  -1.397  0.00  0.00    -0.332 N 
ATOM     11  C   UNL     1       0.674  -4.369  -0.835  0.00  0.00    +0.127 C 
ATOM     12  H   UNL     1       0.567  -2.891  -2.355  0.00  0.00    +0.147 HD
ENDBRANCH   5  10
ENDBRANCH   1   4
BRANCH   1  13
ATOM     13  S   UNL     1       1.646   0.380  -2.846  0.00  0.00    -0.100 S 
BRANCH  13  14
ATOM     14  C   UNL     1       1.449   0.939  -4.506  0.00  0.00    +0.108 A 
ATOM     15  C   UNL     1       2.552   1.438  -5.242  0.00  0.00    +0.032 A 
ATOM     16  C   UNL     1       3.838   1.512  -4.696  0.00  0.00    +0.012 A 
ATOM     17  C   UNL     1       4.862   2.001  -5.454  0.00  0.00    +0.001 A 
ATOM     18  C   UNL     1       4.644   2.428  -6.760  0.00  0.00    +0.002 A 
ATOM     19  C   UNL     1       3.402   2.369  -7.321  0.00  0.00    +0.028 A 
ATOM     20  C   UNL     1       2.328   1.871  -6.571  0.00  0.00    +0.075 A 
ATOM     21  N   UNL     1       1.087   1.791  -7.075  0.00  0.00    -0.235 NA
ATOM     22  C   UNL     1       0.103   1.319  -6.347  0.00  0.00    +0.223 A 
ATOM     23  N   UNL     1       0.264   0.898  -5.103  0.00  0.00    -0.229 NA
ENDBRANCH  13  14
ENDBRANCH   1  13
TORSDOF 4
