REMARK  Name = ZINC03656153
REMARK  7 active torsions:
REMARK  status: ('A' for Active; 'I' for Inactive)
REMARK    1  A    between atoms: C_1  and  C_2
REMARK    2  A    between atoms: C_2  and  C_3
REMARK    3  A    between atoms: C_3  and  O_4
REMARK    4  A    between atoms: O_4  and  C_5
REMARK    5  A    between atoms: C_8  and  C_11
REMARK    6  A    between atoms: N_26  and  C_27
REMARK    7  A    between atoms: C_27  and  C_28
REMARK                            x       y       z     vdW  Elec       q    Type
REMARK                         _______ _______ _______ _____ _____    ______ ____
ROOT
ATOM      1  C   UNL     1       1.374   1.811  -0.001  0.00  0.00    +0.145 C 
ATOM      2  C   UNL     1       2.232   0.573  -0.016  0.00  0.00    +0.072 A 
ATOM      3  C   UNL     1       3.683   0.371  -0.031  0.00  0.00    +0.199 A 
ATOM      4  O   UNL     1       4.460   1.310  -0.033  0.00  0.00    -0.287 OA
ATOM      5  C   UNL     1       4.158  -1.027  -0.043  0.00  0.00    +0.067 A 
ATOM      6  C   UNL     1       5.518  -1.332  -0.058  0.00  0.00    +0.053 A 
ATOM      7  C   UNL     1       5.917  -2.652  -0.070  0.00  0.00    +0.124 A 
ATOM      8  C   UNL     1       4.969  -3.669  -0.066  0.00  0.00    +0.042 A 
ATOM      9  C   UNL     1       3.623  -3.377  -0.051  0.00  0.00    +0.050 A 
ATOM     10  C   UNL     1       3.197  -2.052  -0.040  0.00  0.00    +0.140 A 
ATOM     11  O   UNL     1       1.884  -1.756  -0.025  0.00  0.00    -0.450 OA
ATOM     12  C   UNL     1       1.402  -0.498  -0.014  0.00  0.00    +0.199 A 
ATOM     13  C   UNL     1       0.002  -0.004   0.002  0.00  0.00    +0.283 C 
ATOM     14  O   UNL     1      -0.985  -0.712   0.007  0.00  0.00    -0.267 OA
ATOM     15  N   UNL     1      -0.016   1.340   0.009  0.00  0.00    -0.279 N 
ATOM     16  F   UNL     1       7.233  -2.958  -0.085  0.00  0.00    -0.205 F 
ENDROOT
BRANCH   1  20
ATOM     17  C   UNL     1       2.174   4.115   3.508  0.00  0.00    +0.121 A 
ATOM     18  C   UNL     1       2.689   4.513   2.283  0.00  0.00    +0.046 A 
ATOM     19  C   UNL     1       2.429   3.767   1.150  0.00  0.00    +0.009 A 
ATOM     20  C   UNL     1       1.656   2.624   1.236  0.00  0.00    -0.022 A 
ATOM     21  C   UNL     1       1.138   2.227   2.455  0.00  0.00    +0.009 A 
ATOM     22  C   UNL     1       1.400   2.967   3.592  0.00  0.00    +0.046 A 
BRANCH  17  23
ATOM     23  O   UNL     1       2.429   4.847   4.624  0.00  0.00    -0.492 OA
BRANCH  23  24
ATOM     24  C   UNL     1       1.867   4.377   5.851  0.00  0.00    +0.229 C 
BRANCH  24  26
ATOM     25  C   UNL     1       1.658   4.820   8.301  0.00  0.00    +0.007 C 
ATOM     26  C   UNL     1       2.259   5.323   6.987  0.00  0.00    +0.038 C 
ENDBRANCH  24  26
ENDBRANCH  23  24
ENDBRANCH  17  23
ENDBRANCH   1  20
BRANCH  15  27
ATOM     27  C   UNL     1      -1.213   2.185   0.020  0.00  0.00    +0.144 C 
BRANCH  27  28
ATOM     28  C   UNL     1      -1.615   2.468   1.444  0.00  0.00    -0.026 A 
ATOM     29  C   UNL     1      -2.496   1.622   2.093  0.00  0.00    +0.009 A 
ATOM     30  C   UNL     1      -2.863   1.874   3.402  0.00  0.00    +0.050 A 
ATOM     31  C   UNL     1      -2.360   2.983   4.062  0.00  0.00    +0.166 A 
ATOM     32  C   UNL     1      -1.478   3.838   3.407  0.00  0.00    +0.167 A 
ATOM     33  C   UNL     1      -1.108   3.576   2.098  0.00  0.00    +0.054 A 
ATOM     34  O   UNL     1      -1.129   4.844   4.261  0.00  0.00    -0.453 OA
ATOM     35  C   UNL     1      -2.121   4.822   5.305  0.00  0.00    +0.466 C 
ATOM     36  O   UNL     1      -2.564   3.453   5.327  0.00  0.00    -0.453 OA
ENDBRANCH  27  28
ENDBRANCH  15  27
TORSDOF 6
