REMARK  Name = ZINC25524746
REMARK  6 active torsions:
REMARK  status: ('A' for Active; 'I' for Inactive)
REMARK    1  A    between atoms: C_5  and  C_7
REMARK    2  A    between atoms: N_9  and  N_10
REMARK    3  A    between atoms: C_11  and  C_13
REMARK    4  A    between atoms: C_13  and  S_14
REMARK    5  A    between atoms: S_14  and  C_15
REMARK    6  A    between atoms: N_19  and  C_20
REMARK                            x       y       z     vdW  Elec       q    Type
REMARK                         _______ _______ _______ _____ _____    ______ ____
ROOT
ATOM      1  N   UNL     1       5.000  -4.848  -4.602  0.00  0.00    -0.233 N 
ATOM      2  C   UNL     1       4.473  -3.782  -3.970  0.00  0.00    +0.239 C 
ATOM      3  O   UNL     1       4.756  -2.660  -4.332  0.00  0.00    -0.273 OA
ATOM      4  H   UNL     1       4.743  -5.866  -4.273  0.00  0.00    +0.173 HD
ENDROOT
BRANCH   1   7
ATOM      5  C   UNL     1       6.404  -5.728  -6.313  0.00  0.00    +0.262 C 
ATOM      6  O   UNL     1       6.120  -6.852  -5.949  0.00  0.00    -0.269 OA
ATOM      7  N   UNL     1       5.876  -4.661  -5.680  0.00  0.00    -0.230 N 
ATOM      8  H   UNL     1       6.133  -3.644  -6.009  0.00  0.00    +0.173 HD
BRANCH   5  13
ATOM      9  C   UNL     1       8.519  -4.062  -8.930  0.00  0.00    +0.001 A 
ATOM     10  C   UNL     1       9.060  -5.159  -9.579  0.00  0.00    +0.001 A 
ATOM     11  C   UNL     1       8.739  -6.440  -9.169  0.00  0.00    +0.021 A 
ATOM     12  C   UNL     1       7.877  -6.633  -8.107  0.00  0.00    +0.053 A 
ATOM     13  C   UNL     1       7.328  -5.530  -7.449  0.00  0.00    +0.056 A 
ATOM     14  C   UNL     1       7.652  -4.240  -7.873  0.00  0.00    +0.014 A 
ATOM     15 CL   UNL     1       7.474  -8.242  -7.593  0.00  0.00    -0.083 Cl
ENDBRANCH   5  13
ENDBRANCH   1   7
BRANCH   2  16
ATOM     16  C   UNL     1       3.531  -3.983  -2.811  0.00  0.00    +0.174 C 
BRANCH  16  17
ATOM     17  S   UNL     1       2.998  -2.373  -2.179  0.00  0.00    -0.076 S 
BRANCH  17  18
ATOM     18  C   UNL     1       1.938  -2.893  -0.871  0.00  0.00    +0.196 A 
ATOM     19  N   UNL     1       1.673  -4.131  -0.526  0.00  0.00    -0.122 NA
ATOM     20  N   UNL     1       0.856  -4.144   0.466  0.00  0.00    -0.137 NA
ATOM     21  C   UNL     1       0.556  -2.926   0.816  0.00  0.00    +0.230 A 
ATOM     22  N   UNL     1       1.236  -2.082  -0.021  0.00  0.00    -0.277 N 
BRANCH  22  23
ATOM     23  C   UNL     1       1.214  -0.680  -0.013  0.00  0.00    +0.051 A 
ATOM     24  C   UNL     1       2.405   0.035  -0.021  0.00  0.00    +0.026 A 
ATOM     25  C   UNL     1       2.380   1.415  -0.013  0.00  0.00    +0.003 A 
ATOM     26  C   UNL     1       1.172   2.087   0.002  0.00  0.00    +0.020 A 
ATOM     27  C   UNL     1      -0.017   1.378   0.010  0.00  0.00    +0.043 A 
ATOM     28  C   UNL     1       0.002  -0.004   0.002  0.00  0.00    +0.046 A 
ATOM     29 CL   UNL     1      -1.532   2.225   0.021  0.00  0.00    -0.083 Cl
ENDBRANCH  22  23
ENDBRANCH  17  18
ENDBRANCH  16  17
ENDBRANCH   2  16
TORSDOF 6
