REMARK  Name = ZINC13618852
REMARK  8 active torsions:
REMARK  status: ('A' for Active; 'I' for Inactive)
REMARK    1  A    between atoms: C_1  and  C_2
REMARK    2  A    between atoms: C_2  and  N_3
REMARK    3  A    between atoms: N_3  and  C_4
REMARK    4  A    between atoms: C_10  and  C_12
REMARK    5  A    between atoms: C_16  and  N_18
REMARK    6  A    between atoms: N_18  and  C_19
REMARK    7  A    between atoms: C_24  and  C_28
REMARK    8  A    between atoms: C_24  and  C_29
REMARK                            x       y       z     vdW  Elec       q    Type
REMARK                         _______ _______ _______ _____ _____    ______ ____
ROOT
ATOM      1  C   UNL     1       0.300  -1.272   0.477  0.00  0.00    +0.039 A 
ATOM      2  C   UNL     1       1.652  -1.152   0.147  0.00  0.00    +0.013 A 
ATOM      3  C   UNL     1       2.488  -2.244   0.255  0.00  0.00    +0.003 A 
ATOM      4  C   UNL     1       1.993  -3.460   0.688  0.00  0.00    +0.023 A 
ATOM      5  C   UNL     1       0.650  -3.590   1.019  0.00  0.00    +0.032 A 
ATOM      6  C   UNL     1      -0.198  -2.497   0.919  0.00  0.00    +0.036 A 
ENDROOT
BRANCH   1   8
ATOM      7  N   UNL     1      -0.085   1.143   0.361  0.00  0.00    -0.268 N 
ATOM      8  C   UNL     1      -0.598  -0.103   0.363  0.00  0.00    +0.251 C 
ATOM      9  O   UNL     1      -1.799  -0.267   0.271  0.00  0.00    -0.270 OA
BRANCH   7  10
ATOM     10  C   UNL     1      -0.915   2.240   0.110  0.00  0.00    +0.037 A 
ATOM     11  C   UNL     1      -0.424   3.531   0.253  0.00  0.00    +0.023 A 
ATOM     12  C   UNL     1      -1.245   4.613  -0.000  0.00  0.00    +0.002 A 
ATOM     13  C   UNL     1      -2.558   4.411  -0.384  0.00  0.00    +0.000 A 
ATOM     14  C   UNL     1      -3.052   3.127  -0.522  0.00  0.00    +0.002 A 
ATOM     15  C   UNL     1      -2.234   2.041  -0.276  0.00  0.00    +0.023 A 
ENDBRANCH   7  10
BRANCH   7  17
ATOM     16  C   UNL     1       2.043   1.734  -0.690  0.00  0.00    +0.025 C 
ATOM     17  C   UNL     1       1.343   1.348   0.615  0.00  0.00    +0.110 C 
ENDBRANCH   7  17
ENDBRANCH   1   8
BRANCH   5  18
ATOM     18  N   UNL     1       0.154  -4.822   1.457  0.00  0.00    -0.320 N 
ATOM     19  H   UNL     1      -0.784  -4.913   1.688  0.00  0.00    +0.152 HD
BRANCH  18  20
ATOM     20  C   UNL     1       0.980  -5.884   1.558  0.00  0.00    +0.094 C 
ATOM     21  C   UNL     1       0.490  -7.101   1.991  0.00  0.00    +0.157 C 
ATOM     22  C   UNL     1      -0.932  -7.308   2.366  0.00  0.00    +0.350 C 
ATOM     23  O   UNL     1      -1.594  -6.445   2.910  0.00  0.00    -0.245 OA
ATOM     24  O   UNL     1      -1.439  -8.536   2.052  0.00  0.00    -0.419 OA
ATOM     25  C   UNL     1      -0.594  -9.667   2.406  0.00  0.00    +0.255 C 
ATOM     26  O   UNL     1       0.730  -9.489   1.828  0.00  0.00    -0.419 OA
ATOM     27  C   UNL     1       1.343  -8.309   2.125  0.00  0.00    +0.350 C 
ATOM     28  O   UNL     1       2.506  -8.250   2.475  0.00  0.00    -0.245 OA
ATOM     29  C   UNL     1      -1.216 -10.956   1.866  0.00  0.00    +0.104 C 
ATOM     30  C   UNL     1      -0.476  -9.758   3.929  0.00  0.00    +0.104 C 
ENDBRANCH  18  20
ENDBRANCH   5  18
TORSDOF 5
