REMARK  Name = ZINC19221109
REMARK  7 active torsions:
REMARK  status: ('A' for Active; 'I' for Inactive)
REMARK    1  A    between atoms: C_1  and  C_2
REMARK    2  A    between atoms: C_9  and  C_14
REMARK    3  A    between atoms: C_14  and  N_15
REMARK    4  A    between atoms: N_15  and  C_16
REMARK    5  A    between atoms: N_15  and  C_27
REMARK    6  A    between atoms: C_16  and  C_17
REMARK    7  A    between atoms: N_21  and  C_22
REMARK                            x       y       z     vdW  Elec       q    Type
REMARK                         _______ _______ _______ _____ _____    ______ ____
ROOT
ATOM      1  N   UNL     1      -1.285  -5.309   4.037  0.00  0.00    +0.389 N 
ATOM      2  H   UNL     1      -1.534  -5.723   3.151  0.00  0.00    -0.080 HD
ENDROOT
BRANCH   1   3
ATOM      3  C   UNL     1      -2.075  -4.088   4.247  0.00  0.00    -0.068 C 
ATOM      4  C   UNL     1      -2.087  -3.261   2.960  0.00  0.00    -0.015 C 
ATOM      5  C   UNL     1      -2.910  -1.990   3.178  0.00  0.00    -0.002 C 
ATOM      6  C   UNL     1      -2.286  -1.167   4.307  0.00  0.00    -0.000 C 
ATOM      7  C   UNL     1      -2.274  -1.994   5.595  0.00  0.00    -0.002 C 
ATOM      8  C   UNL     1      -1.451  -3.265   5.376  0.00  0.00    -0.015 C 
ENDBRANCH   1   3
BRANCH   1   9
ATOM      9  C   UNL     1       0.145  -4.973   4.035  0.00  0.00    -0.037 C 
BRANCH   9  18
ATOM     10  C   UNL     1       2.203   1.347   0.651  0.00  0.00    +0.044 C 
ATOM     11  C   UNL     1       1.798  -0.104   0.592  0.00  0.00    -0.050 A 
ATOM     12  C   UNL     1       1.717  -0.747  -0.636  0.00  0.00    +0.005 A 
ATOM     13  C   UNL     1       1.349  -2.072  -0.713  0.00  0.00    +0.026 A 
ATOM     14  C   UNL     1       1.056  -2.776   0.451  0.00  0.00    +0.049 A 
ATOM     15  C   UNL     1       1.140  -2.121   1.694  0.00  0.00    -0.001 A 
ATOM     16  C   UNL     1       1.520  -0.776   1.748  0.00  0.00    +0.013 A 
ATOM     17  C   UNL     1       0.830  -2.870   2.913  0.00  0.00    +0.017 A 
ATOM     18  C   UNL     1       0.471  -4.173   2.800  0.00  0.00    +0.001 A 
ATOM     19  C   UNL     1       0.402  -4.783   1.529  0.00  0.00    +0.251 A 
ATOM     20  O   UNL     1       0.078  -5.955   1.449  0.00  0.00    -0.268 OA
ATOM     21  N   UNL     1       0.685  -4.103   0.404  0.00  0.00    -0.322 N 
ATOM     22  H   UNL     1       0.628  -4.553  -0.454  0.00  0.00    +0.169 HD
ENDBRANCH   9  18
ENDBRANCH   1   9
BRANCH   1  23
ATOM     23  C   UNL     1      -1.562  -6.263   5.119  0.00  0.00    +0.001 C 
BRANCH  23  24
ATOM     24  C   UNL     1      -2.995  -6.718   5.033  0.00  0.00    +0.135 A 
ATOM     25  N   UNL     1      -4.041  -6.111   5.539  0.00  0.00    -0.115 NA
ATOM     26  N   UNL     1      -5.085  -6.810   5.252  0.00  0.00    -0.023 NA
ATOM     27  N   UNL     1      -4.732  -7.848   4.577  0.00  0.00    -0.044 NA
ATOM     28  N   UNL     1      -3.452  -7.824   4.416  0.00  0.00    -0.228 N 
BRANCH  28  29
ATOM     29  C   UNL     1      -2.646  -8.817   3.700  0.00  0.00    +0.111 C 
ATOM     30  C   UNL     1      -3.144  -8.952   2.247  0.00  0.00    +0.027 C 
ATOM     31  C   UNL     1      -2.999 -10.462   1.935  0.00  0.00    +0.002 C 
ATOM     32  C   UNL     1      -3.406 -11.129   3.272  0.00  0.00    +0.002 C 
ATOM     33  C   UNL     1      -2.813 -10.200   4.353  0.00  0.00    +0.027 C 
ENDBRANCH  28  29
ENDBRANCH  23  24
ENDBRANCH   1  23
TORSDOF 6
