REMARK  Name = ZINC09508962
REMARK  7 active torsions:
REMARK  status: ('A' for Active; 'I' for Inactive)
REMARK    1  A    between atoms: C_1  and  C_2
REMARK    2  A    between atoms: C_3  and  N_15
REMARK    3  A    between atoms: N_6  and  C_9
REMARK    4  A    between atoms: N_7  and  C_8
REMARK    5  A    between atoms: C_16  and  C_18
REMARK    6  A    between atoms: C_18  and  S_19
REMARK    7  A    between atoms: S_19  and  C_20
REMARK                            x       y       z     vdW  Elec       q    Type
REMARK                         _______ _______ _______ _____ _____    ______ ____
ROOT
ATOM      1  N   UNL     1       0.122  -0.219  -2.458  0.00  0.00    -0.279 N 
ATOM      2  C   UNL     1       0.643  -0.894  -3.501  0.00  0.00    +0.228 C 
ATOM      3  O   UNL     1       1.158  -1.978  -3.326  0.00  0.00    -0.275 OA
ATOM      4  H   UNL     1      -0.225   0.678  -2.585  0.00  0.00    +0.155 HD
ENDROOT
BRANCH   1   7
ATOM      5  C   UNL     1      -2.433  -0.669  -0.820  0.00  0.00    +0.067 C 
ATOM      6  C   UNL     1      -1.022  -1.031  -0.432  0.00  0.00    +0.059 A 
ATOM      7  C   UNL     1       0.082  -0.816  -1.182  0.00  0.00    +0.121 A 
ATOM      8  C   UNL     1       1.227  -1.319  -0.422  0.00  0.00    +0.293 A 
ATOM      9  O   UNL     1       2.393  -1.300  -0.771  0.00  0.00    -0.264 OA
ATOM     10  N   UNL     1       0.744  -1.806   0.740  0.00  0.00    -0.216 N 
ATOM     11  N   UNL     1      -0.644  -1.627   0.742  0.00  0.00    -0.282 N 
ATOM     12  C   UNL     1      -1.549  -2.016   1.826  0.00  0.00    +0.171 C 
BRANCH  10  13
ATOM     13  C   UNL     1       1.499  -2.385   1.764  0.00  0.00    +0.067 A 
ATOM     14  C   UNL     1       1.100  -3.592   2.325  0.00  0.00    +0.028 A 
ATOM     15  C   UNL     1       1.848  -4.161   3.337  0.00  0.00    +0.002 A 
ATOM     16  C   UNL     1       2.992  -3.531   3.792  0.00  0.00    +0.000 A 
ATOM     17  C   UNL     1       3.391  -2.330   3.235  0.00  0.00    +0.002 A 
ATOM     18  C   UNL     1       2.651  -1.758   2.219  0.00  0.00    +0.028 A 
ENDBRANCH  10  13
ENDBRANCH   1   7
BRANCH   2  19
ATOM     19  C   UNL     1       0.587  -0.301  -4.886  0.00  0.00    +0.173 C 
BRANCH  19  20
ATOM     20  S   UNL     1       1.365  -1.441  -6.064  0.00  0.00    -0.076 S 
BRANCH  20  21
ATOM     21  C   UNL     1       1.220  -0.616  -7.614  0.00  0.00    +0.198 A 
ATOM     22  N   UNL     1       0.672   0.558  -7.814  0.00  0.00    -0.120 NA
ATOM     23  N   UNL     1       0.760   0.850  -9.181  0.00  0.00    -0.110 NA
ATOM     24  C   UNL     1       1.361  -0.156  -9.774  0.00  0.00    +0.235 A 
ATOM     25  N   UNL     1       1.666  -1.086  -8.820  0.00  0.00    -0.255 N 
ATOM     26  C   UNL     1       2.313  -2.156  -9.442  0.00  0.00    +0.075 A 
ATOM     27  C   UNL     1       2.829  -3.350  -8.961  0.00  0.00    +0.028 A 
ATOM     28  C   UNL     1       3.428  -4.242  -9.829  0.00  0.00    +0.002 A 
ATOM     29  C   UNL     1       3.516  -3.949 -11.179  0.00  0.00    +0.002 A 
ATOM     30  C   UNL     1       3.006  -2.763 -11.668  0.00  0.00    +0.028 A 
ATOM     31  C   UNL     1       2.401  -1.861 -10.803  0.00  0.00    +0.066 A 
ATOM     32  N   UNL     1       1.802  -0.621 -11.001  0.00  0.00    -0.322 N 
ATOM     33  H   UNL     1       1.717  -0.158 -11.849  0.00  0.00    +0.169 HD
ENDBRANCH  20  21
ENDBRANCH  19  20
ENDBRANCH   2  19
TORSDOF 5
