REMARK  Name = ZINC65409510
REMARK  6 active torsions:
REMARK  status: ('A' for Active; 'I' for Inactive)
REMARK    1  A    between atoms: C_1  and  C_2
REMARK    2  A    between atoms: C_2  and  N_3
REMARK    3  A    between atoms: C_4  and  C_20
REMARK    4  A    between atoms: N_6  and  C_9
REMARK    5  A    between atoms: C_9  and  C_10
REMARK    6  A    between atoms: C_20  and  C_21
REMARK                            x       y       z     vdW  Elec       q    Type
REMARK                         _______ _______ _______ _____ _____    ______ ____
ROOT
ATOM      1  N   UNL     1       0.147  -0.426   1.304  0.00  0.00    -0.280 N 
ATOM      2  C   UNL     1       1.495  -0.655   1.166  0.00  0.00    +0.134 A 
ATOM      3  N   UNL     1       1.962  -1.092   2.290  0.00  0.00    -0.153 NA
ATOM      4  N   UNL     1       0.903  -1.158   3.207  0.00  0.00    -0.208 N 
ATOM      5  C   UNL     1      -0.207  -0.734   2.568  0.00  0.00    +0.347 A 
ATOM      6  O   UNL     1      -1.325  -0.647   3.045  0.00  0.00    -0.245 OA
ENDROOT
BRANCH   1   8
ATOM      7  C   UNL     1      -0.784   1.603   0.304  0.00  0.00    +0.027 C 
ATOM      8  C   UNL     1      -0.750   0.073   0.260  0.00  0.00    +0.125 C 
ENDBRANCH   1   8
BRANCH   4   9
ATOM      9  C   UNL     1       0.988  -1.600   4.601  0.00  0.00    +0.185 C 
BRANCH   9  10
ATOM     10  C   UNL     1       1.153  -0.402   5.499  0.00  0.00    -0.004 A 
ATOM     11  C   UNL     1       0.063   0.104   6.183  0.00  0.00    +0.056 A 
ATOM     12  C   UNL     1       0.213   1.205   7.009  0.00  0.00    +0.167 A 
ATOM     13  C   UNL     1       1.463   1.802   7.149  0.00  0.00    +0.168 A 
ATOM     14  C   UNL     1       2.552   1.291   6.462  0.00  0.00    +0.070 A 
ATOM     15  C   UNL     1       2.397   0.188   5.641  0.00  0.00    +0.050 A 
ATOM     16 CL   UNL     1       3.764  -0.455   4.786  0.00  0.00    -0.083 Cl
ATOM     17  O   UNL     1       1.349   2.857   8.008  0.00  0.00    -0.453 OA
ATOM     18  C   UNL     1      -0.059   3.150   8.073  0.00  0.00    +0.466 C 
ATOM     19  O   UNL     1      -0.685   1.886   7.780  0.00  0.00    -0.453 OA
ENDBRANCH   9  10
ENDBRANCH   4   9
BRANCH   2  20
ATOM     20  C   UNL     1       2.297  -0.433  -0.091  0.00  0.00    +0.079 C 
BRANCH  20  21
ATOM     21  C   UNL     1       3.759  -0.806   0.165  0.00  0.00    -0.007 C 
ATOM     22  C   UNL     1       4.360   0.157   1.194  0.00  0.00    -0.015 C 
ATOM     23  C   UNL     1       5.842  -0.171   1.386  0.00  0.00    -0.082 C 
ATOM     24  N   UNL     1       6.548  -0.027   0.107  0.00  0.00    +0.379 N 
ATOM     25  C   UNL     1       6.025  -0.997  -0.863  0.00  0.00    -0.082 C 
ATOM     26  C   UNL     1       4.550  -0.700  -1.141  0.00  0.00    -0.015 C 
ATOM     27  H   UNL     1       6.413   0.908  -0.247  0.00  0.00    -0.086 HD
ATOM     28  H   UNL     1       7.534  -0.192   0.248  0.00  0.00    -0.086 HD
ENDBRANCH  20  21
ENDBRANCH   2  20
TORSDOF 5
