REMARK  Name = ZINC15163932
REMARK  6 active torsions:
REMARK  status: ('A' for Active; 'I' for Inactive)
REMARK    1  A    between atoms: C_1  and  C_2
REMARK    2  A    between atoms: C_5  and  N_8
REMARK    3  A    between atoms: N_8  and  C_9
REMARK    4  A    between atoms: C_12  and  N_19
REMARK    5  A    between atoms: C_14  and  S_15
REMARK    6  A    between atoms: S_15  and  N_18
REMARK                            x       y       z     vdW  Elec       q    Type
REMARK                         _______ _______ _______ _____ _____    ______ ____
ROOT
ATOM      1  C   UNL     1      -3.721   3.287   0.038  0.00  0.00    +0.054 A 
ATOM      2  C   UNL     1      -3.700   1.898   0.030  0.00  0.00    +0.027 A 
ATOM      3  C   UNL     1      -2.493   1.227   0.021  0.00  0.00    +0.034 A 
ATOM      4  C   UNL     1      -1.306   1.936   0.019  0.00  0.00    +0.128 A 
ATOM      5  C   UNL     1      -1.323   3.319   0.032  0.00  0.00    +0.063 A 
ATOM      6  C   UNL     1      -2.527   3.996   0.037  0.00  0.00    +0.128 A 
ENDROOT
BRANCH   6   7
ATOM      7  S   UNL     1      -2.547   5.758   0.047  0.00  0.00    +0.058 S 
ATOM      8  O   UNL     1      -3.443   6.148   1.079  0.00  0.00    -0.153 OA
ATOM      9  O   UNL     1      -1.191   6.180   0.016  0.00  0.00    -0.153 OA
BRANCH   7  10
ATOM     10  N   UNL     1      -3.228   6.248  -1.381  0.00  0.00    -0.203 NA
ATOM     11  H   UNL     1      -3.525   5.589  -2.028  0.00  0.00    +0.144 HD
ATOM     12  H   UNL     1      -3.331   7.194  -1.570  0.00  0.00    +0.144 HD
ENDBRANCH   7  10
ENDBRANCH   6   7
BRANCH   4  13
ATOM     13  N   UNL     1      -0.014   1.214   0.009  0.00  0.00    +0.056 N 
ATOM     14  O   UNL     1       0.002  -0.004   0.002  0.00  0.00    -0.126 OA
ATOM     15  O   UNL     1       1.032   1.837   0.002  0.00  0.00    -0.126 OA
ENDBRANCH   4  13
BRANCH   1  16
ATOM     16  N   UNL     1      -4.940   3.969   0.049  0.00  0.00    -0.339 N 
ATOM     17  H   UNL     1      -4.953   4.939   0.055  0.00  0.00    +0.146 HD
BRANCH  16  22
ATOM     18  C   UNL     1      -8.026   6.279  -2.404  0.00  0.00    +0.007 C 
ATOM     19  C   UNL     1      -7.855   4.998  -1.585  0.00  0.00    -0.014 C 
ATOM     20  C   UNL     1      -7.473   5.359  -0.147  0.00  0.00    +0.005 C 
ATOM     21  C   UNL     1      -7.302   4.078   0.672  0.00  0.00    +0.022 C 
ATOM     22  C   UNL     1      -6.199   3.219   0.051  0.00  0.00    +0.070 C 
ATOM     23  C   UNL     1      -6.580   2.859  -1.386  0.00  0.00    +0.022 C 
ATOM     24  C   UNL     1      -6.751   4.139  -2.205  0.00  0.00    +0.005 C 
ENDBRANCH  16  22
ENDBRANCH   1  16
TORSDOF 5
