REMARK  Name = ZINC64610022
REMARK  8 active torsions:
REMARK  status: ('A' for Active; 'I' for Inactive)
REMARK    1  A    between atoms: C_4  and  O_7
REMARK    2  A    between atoms: O_7  and  C_8
REMARK    3  A    between atoms: C_8  and  C_9
REMARK    4  A    between atoms: N_11  and  C_12
REMARK    5  A    between atoms: C_12  and  C_13
REMARK    6  A    between atoms: C_13  and  C_14
REMARK    7  A    between atoms: N_22  and  C_25
REMARK    8  A    between atoms: C_25  and  C_26
REMARK                            x       y       z     vdW  Elec       q    Type
REMARK                         _______ _______ _______ _____ _____    ______ ____
ROOT
ATOM      1  C   UNL     1       7.378  -7.066   0.263  0.00  0.00    +0.118 C 
ATOM      2  N   UNL     1       8.303  -6.182   0.311  0.00  0.00    -0.175 NA
ATOM      3  N   UNL     1       9.575  -6.769   0.225  0.00  0.00    -0.247 N 
ATOM      4  C   UNL     1       9.326  -8.209   0.294  0.00  0.00    +0.177 C 
ATOM      5  N   UNL     1       7.893  -8.366   0.106  0.00  0.00    -0.296 N 
ATOM      6  C   UNL     1       7.053  -9.484  -0.265  0.00  0.00    +0.123 C 
ATOM      7  C   UNL     1       6.997  -9.593  -1.800  0.00  0.00    +0.103 C 
ATOM      8  N   UNL     1       8.335  -9.840  -2.272  0.00  0.00    -0.298 NA
ATOM      9  C   UNL     1       9.318  -8.792  -2.102  0.00  0.00    +0.088 C 
ATOM     10  C   UNL     1      10.095  -8.974  -0.803  0.00  0.00    +0.059 C 
ATOM     11  H   UNL     1      10.431  -6.319   0.139  0.00  0.00    +0.170 HD
ENDROOT
BRANCH   1  12
ATOM     12  C   UNL     1       5.908  -6.751   0.370  0.00  0.00    +0.092 C 
BRANCH  12  13
ATOM     13  C   UNL     1       5.720  -5.241   0.532  0.00  0.00    +0.112 C 
BRANCH  13  16
ATOM     14  C   UNL     1       3.884  -3.659   0.786  0.00  0.00    +0.251 C 
ATOM     15  O   UNL     1       4.701  -2.764   0.835  0.00  0.00    -0.272 OA
ATOM     16  N   UNL     1       4.291  -4.935   0.636  0.00  0.00    -0.312 N 
ATOM     17  H   UNL     1       3.638  -5.651   0.597  0.00  0.00    +0.149 HD
BRANCH  14  18
ATOM     18  C   UNL     1       2.414  -3.344   0.892  0.00  0.00    +0.324 C 
BRANCH  18  19
ATOM     19  O   UNL     1       2.239  -1.934   1.044  0.00  0.00    -0.483 OA
BRANCH  19  23
ATOM     20  C   UNL     1      -1.634  -0.554   1.379  0.00  0.00    +0.000 A 
ATOM     21  C   UNL     1      -0.578   0.338   1.417  0.00  0.00    +0.004 A 
ATOM     22  C   UNL     1       0.720  -0.122   1.305  0.00  0.00    +0.045 A 
ATOM     23  C   UNL     1       0.963  -1.480   1.155  0.00  0.00    +0.121 A 
ATOM     24  C   UNL     1      -0.098  -2.372   1.118  0.00  0.00    +0.045 A 
ATOM     25  C   UNL     1      -1.394  -1.908   1.230  0.00  0.00    +0.004 A 
ENDBRANCH  19  23
ENDBRANCH  18  19
ENDBRANCH  14  18
ENDBRANCH  13  16
ENDBRANCH  12  13
ENDBRANCH   1  12
BRANCH   8  26
ATOM     26  C   UNL     1       8.323 -10.330  -3.657  0.00  0.00    +0.113 C 
BRANCH  26  27
ATOM     27  C   UNL     1       9.677 -10.962  -3.986  0.00  0.00    +0.117 C 
ATOM     28  C   UNL     1       9.616 -11.658  -5.327  0.00  0.00    +0.008 C 
ATOM     29  C   UNL     1       9.882 -12.962  -5.086  0.00  0.00    -0.004 A 
ATOM     30  C   UNL     1       9.970 -14.137  -5.961  0.00  0.00    +0.010 A 
ATOM     31  C   UNL     1      10.260 -15.340  -5.416  0.00  0.00    +0.001 A 
ATOM     32  C   UNL     1      10.478 -15.493  -4.040  0.00  0.00    +0.002 A 
ATOM     33  C   UNL     1      10.414 -14.460  -3.173  0.00  0.00    +0.026 A 
ATOM     34  C   UNL     1      10.116 -13.149  -3.637  0.00  0.00    +0.043 A 
ATOM     35  N   UNL     1      10.000 -12.005  -3.005  0.00  0.00    -0.377 N 
ATOM     36  H   UNL     1      10.109 -11.870  -2.051  0.00  0.00    +0.160 HD
ENDBRANCH  26  27
ENDBRANCH   8  26
TORSDOF 8
