REMARK  Name = ZINC50651863
REMARK  6 active torsions:
REMARK  status: ('A' for Active; 'I' for Inactive)
REMARK    1  A    between atoms: C_1  and  N_2
REMARK    2  A    between atoms: N_2  and  C_3
REMARK    3  A    between atoms: N_2  and  S_6
REMARK    4  A    between atoms: S_6  and  C_9
REMARK    5  A    between atoms: C_12  and  N_18
REMARK    6  A    between atoms: C_14  and  N_15
REMARK                            x       y       z     vdW  Elec       q    Type
REMARK                         _______ _______ _______ _____ _____    ______ ____
ROOT
ATOM      1  C   UNL     1       1.520  -1.142  -1.980  0.00  0.00    +0.136 A 
ATOM      2  C   UNL     1       2.565  -1.125  -1.074  0.00  0.00    +0.032 A 
ATOM      3  C   UNL     1       3.841  -1.455  -1.484  0.00  0.00    +0.025 A 
ATOM      4  C   UNL     1       4.076  -1.805  -2.808  0.00  0.00    +0.027 A 
ATOM      5  C   UNL     1       3.024  -1.821  -3.715  0.00  0.00    +0.057 A 
ATOM      6  C   UNL     1       1.749  -1.494  -3.297  0.00  0.00    +0.154 A 
ENDROOT
BRANCH   1   7
ATOM      7  S   UNL     1      -0.108  -0.721  -1.453  0.00  0.00    +0.063 S 
ATOM      8  O   UNL     1      -0.809  -1.945  -1.282  0.00  0.00    -0.153 OA
ATOM      9  O   UNL     1      -0.565   0.303  -2.325  0.00  0.00    -0.153 OA
BRANCH   7  11
ATOM     10  C   UNL     1       0.112   1.418   0.188  0.00  0.00    +0.132 C 
ATOM     11  N   UNL     1       0.026  -0.038   0.050  0.00  0.00    -0.177 NA
BRANCH  11  12
ATOM     12  C   UNL     1       0.058  -0.890   1.241  0.00  0.00    +0.080 C 
ATOM     13  C   UNL     1      -0.022  -0.200   2.605  0.00  0.00    +0.022 C 
ATOM     14  C   UNL     1       1.299  -0.812   2.132  0.00  0.00    +0.022 C 
ENDBRANCH  11  12
ENDBRANCH   7  11
ENDBRANCH   1   7
BRANCH   6  15
ATOM     15  N   UNL     1       0.627  -1.517  -4.262  0.00  0.00    +0.058 N 
ATOM     16  O   UNL     1       0.844  -1.695  -5.438  0.00  0.00    -0.126 OA
ATOM     17  O   UNL     1      -0.507  -1.357  -3.874  0.00  0.00    -0.126 OA
ENDBRANCH   6  15
BRANCH   4  18
ATOM     18  N   UNL     1       5.366  -2.139  -3.226  0.00  0.00    -0.358 N 
ATOM     19  H   UNL     1       6.100  -2.127  -2.591  0.00  0.00    +0.142 HD
ATOM     20  H   UNL     1       5.529  -2.382  -4.151  0.00  0.00    +0.142 HD
ENDBRANCH   4  18
TORSDOF 5
