REMARK  Name = ZINC09298235
REMARK  9 active torsions:
REMARK  status: ('A' for Active; 'I' for Inactive)
REMARK    1  A    between atoms: C_1  and  C_2
REMARK    2  A    between atoms: C_2  and  O_3
REMARK    3  A    between atoms: O_3  and  C_4
REMARK    4  A    between atoms: C_7  and  C_9
REMARK    5  A    between atoms: C_13  and  N_14
REMARK    6  A    between atoms: C_15  and  C_17
REMARK    7  A    between atoms: C_20  and  C_23
REMARK    8  A    between atoms: C_23  and  C_25
REMARK    9  A    between atoms: C_27  and  C_31
REMARK                            x       y       z     vdW  Elec       q    Type
REMARK                         _______ _______ _______ _____ _____    ______ ____
ROOT
ATOM      1  C   UNL     1       7.346  -0.144  -0.068  0.00  0.00    +0.069 A 
ATOM      2  C   UNL     1       8.457  -1.081  -0.083  0.00  0.00    -0.023 A 
ATOM      3  C   UNL     1       8.108  -2.386  -0.086  0.00  0.00    -0.004 A 
ATOM      4  S   UNL     1       6.338  -2.382  -0.063  0.00  0.00    -0.077 S 
ATOM      5  C   UNL     1       6.061  -0.672  -0.059  0.00  0.00    +0.085 A 
ATOM      6  C   UNL     1       9.029  -3.567  -0.099  0.00  0.00    +0.046 C 
ATOM      7  C   UNL     1      10.440  -3.085   0.269  0.00  0.00    -0.009 C 
ATOM      8  C   UNL     1      10.769  -1.843  -0.565  0.00  0.00    +0.008 C 
ATOM      9  C   UNL     1       9.921  -0.660  -0.094  0.00  0.00    +0.037 C 
ATOM     10  C   UNL     1      11.454  -4.191  -0.029  0.00  0.00    +0.008 C 
ENDROOT
BRANCH   1  14
ATOM     11  C   UNL     1       7.876   3.306  -1.223  0.00  0.00    +0.407 C 
ATOM     12  O   UNL     1       7.980   3.901  -0.169  0.00  0.00    -0.226 OA
ATOM     13  N   UNL     1       7.667   1.974  -1.228  0.00  0.00    -0.217 N 
ATOM     14  C   UNL     1       7.573   1.303  -0.063  0.00  0.00    +0.255 C 
ATOM     15  O   UNL     1       7.678   1.899   0.993  0.00  0.00    -0.270 OA
ATOM     16  H   UNL     1       7.584   1.499  -2.069  0.00  0.00    +0.161 HD
BRANCH  11  17
ATOM     17  O   UNL     1       7.969   3.976  -2.386  0.00  0.00    -0.450 OA
BRANCH  17  19
ATOM     18  C   UNL     1       8.272   5.993  -3.717  0.00  0.00    +0.048 C 
ATOM     19  C   UNL     1       8.195   5.409  -2.306  0.00  0.00    +0.230 C 
ENDBRANCH  17  19
ENDBRANCH  11  17
ENDBRANCH   1  14
BRANCH   5  20
ATOM     20  N   UNL     1       4.853   0.005  -0.043  0.00  0.00    -0.275 N 
ATOM     21  C   UNL     1       3.695  -0.685  -0.036  0.00  0.00    +0.249 C 
ATOM     22  O   UNL     1       3.711  -1.900  -0.043  0.00  0.00    -0.270 OA
ATOM     23  H   UNL     1       4.841   0.975  -0.038  0.00  0.00    +0.156 HD
BRANCH  21  24
ATOM     24  C   UNL     1       2.404   0.038  -0.020  0.00  0.00    +0.037 A 
ATOM     25  C   UNL     1       1.204  -0.676  -0.013  0.00  0.00    +0.014 A 
ATOM     26  C   UNL     1       0.002  -0.004   0.002  0.00  0.00    +0.012 A 
ATOM     27  C   UNL     1      -0.017   1.394   0.010  0.00  0.00    +0.017 A 
ATOM     28  C   UNL     1       1.185   2.108   0.002  0.00  0.00    +0.012 A 
ATOM     29  C   UNL     1       2.386   1.434  -0.013  0.00  0.00    +0.014 A 
BRANCH  27  30
ATOM     30  C   UNL     1      -1.303   2.114   0.020  0.00  0.00    +0.160 C 
ATOM     31  O   UNL     1      -2.345   1.494   0.021  0.00  0.00    -0.292 OA
ATOM     32  C   UNL     1      -1.323   3.621   0.028  0.00  0.00    +0.091 C 
ENDBRANCH  27  30
ENDBRANCH  21  24
ENDBRANCH   5  20
TORSDOF 6
