REMARK  Name = ZINC42890729
REMARK  10 active torsions:
REMARK  status: ('A' for Active; 'I' for Inactive)
REMARK    1  A    between atoms: C_1  and  C_2
REMARK    2  A    between atoms: C_6  and  C_7
REMARK    3  A    between atoms: C_7  and  N_8
REMARK    4  A    between atoms: N_11  and  C_12
REMARK    5  A    between atoms: C_12  and  C_14
REMARK    6  A    between atoms: C_12  and  C_16
REMARK    7  A    between atoms: C_14  and  O_15
REMARK    8  A    between atoms: C_16  and  C_18
REMARK    9  A    between atoms: C_16  and  O_27
REMARK   10  A    between atoms: C_21  and  N_24
REMARK                            x       y       z     vdW  Elec       q    Type
REMARK                         _______ _______ _______ _____ _____    ______ ____
ROOT
ATOM      1  C   UNK A   1      -3.110   1.037   6.102  0.00  0.00    +0.133 C 
ENDROOT
BRANCH   1   5
ATOM      2  N   UNK A   0      -1.075  -0.156   3.282  0.00  0.00    -0.295 N 
ATOM      3  C   UNK A   0      -1.427   0.336   4.486  0.00  0.00    +0.300 C 
ATOM      4  O   UNK A   0      -0.569   0.631   5.296  0.00  0.00    -0.253 OA
ATOM      5  N   UNK A   1      -2.728   0.501   4.793  0.00  0.00    -0.292 N 
ATOM      6  H   UNK A   0      -1.760  -0.392   2.636  0.00  0.00    +0.151 HD
ATOM      7  H   UNK A   1      -3.413   0.266   4.147  0.00  0.00    +0.151 HD
BRANCH   2   8
ATOM      8  C   UNK A   0       0.340  -0.336   2.948  0.00  0.00    +0.148 C 
BRANCH   8  14
ATOM      9  C   UNK A   0       0.560   1.270   0.339  0.00  0.00    +0.044 C 
ATOM     10  C   UNK A   0       0.560  -0.237   0.374  0.00  0.00    -0.039 A 
ATOM     11  C   UNK A   0       0.668  -0.966  -0.795  0.00  0.00    +0.011 A 
ATOM     12  C   UNK A   0       0.664  -2.320  -0.727  0.00  0.00    +0.046 A 
ATOM     13  S   UNK A   0       0.505  -2.602   1.028  0.00  0.00    -0.100 S 
ATOM     14  C   UNK A   0       0.460  -0.897   1.554  0.00  0.00    +0.010 A 
ENDBRANCH   8  14
ENDBRANCH   2   8
ENDBRANCH   1   5
BRANCH   1  15
ATOM     15  C   UNK A   1      -3.078   2.566   6.057  0.00  0.00    +0.181 C 
BRANCH  15  16
ATOM     16  O   UNK A   1      -4.068   3.036   5.141  0.00  0.00    -0.393 OA
ATOM     17  H   UNK A   1      -4.104   3.999   5.061  0.00  0.00    +0.209 HD
ENDBRANCH  15  16
ENDBRANCH   1  15
BRANCH   1  18
ATOM     18  C   UNK A   1      -4.523   0.567   6.453  0.00  0.00    +0.167 C 
BRANCH  18  19
ATOM     19  C   UNK A   1      -4.538  -0.936   6.571  0.00  0.00    -0.017 A 
ATOM     20  C   UNK A   1      -4.189  -1.539   7.765  0.00  0.00    +0.008 A 
ATOM     21  C   UNK A   1      -4.203  -2.917   7.872  0.00  0.00    +0.033 A 
ATOM     22  C   UNK A   1      -4.566  -3.692   6.787  0.00  0.00    +0.126 A 
ATOM     23  C   UNK A   1      -4.915  -3.088   5.593  0.00  0.00    +0.033 A 
ATOM     24  C   UNK A   1      -4.906  -1.710   5.487  0.00  0.00    +0.008 A 
BRANCH  22  25
ATOM     25  N   UNK A   1      -4.579  -5.168   6.902  0.00  0.00    +0.056 N 
ATOM     26  O   UNK A   1      -4.273  -5.695   7.945  0.00  0.00    -0.126 OA
ATOM     27  O   UNK A   1      -4.897  -5.845   5.952  0.00  0.00    -0.126 OA
ENDBRANCH  22  25
ENDBRANCH  18  19
BRANCH  18  28
ATOM     28  O   UNK A   1      -4.922   1.146   7.697  0.00  0.00    -0.385 OA
ATOM     29  H   UNK A   1      -4.302   0.988   8.422  0.00  0.00    +0.210 HD
ENDBRANCH  18  28
ENDBRANCH   1  18
TORSDOF 9
