REMARK  Name = ZINC35697766
REMARK  15 active torsions:
REMARK  status: ('A' for Active; 'I' for Inactive)
REMARK    1  A    between atoms: C_1  and  C_2
REMARK    2  A    between atoms: C_2  and  C_3
REMARK    3  A    between atoms: C_3  and  C_5
REMARK    4  A    between atoms: C_3  and  N_6
REMARK    5  A    between atoms: N_6  and  C_7
REMARK    6  A    between atoms: C_9  and  C_10
REMARK    7  A    between atoms: C_15  and  C_34
REMARK    8  A    between atoms: C_16  and  C_30
REMARK    9  A    between atoms: C_17  and  C_20
REMARK   10  A    between atoms: C_23  and  O_28
REMARK   11  A    between atoms: C_24  and  O_26
REMARK   12  A    between atoms: O_26  and  C_27
REMARK   13  A    between atoms: O_28  and  C_29
REMARK   14  A    between atoms: C_30  and  O_32
REMARK   15  A    between atoms: O_32  and  C_33
REMARK                            x       y       z     vdW  Elec       q    Type
REMARK                         _______ _______ _______ _____ _____    ______ ____
ROOT
ATOM      1  C   UNL     1       4.646  -0.145   3.392  0.00  0.00    +0.048 C 
ATOM      2  C   UNL     1       5.861   0.440   3.303  0.00  0.00    +0.072 C 
ATOM      3  S   UNL     1       6.373   0.488   5.009  0.00  0.00    -0.060 S 
ATOM      4  C   UNL     1       5.024  -0.230   5.702  0.00  0.00    +0.166 C 
ATOM      5  N   UNL     1       4.732  -0.510   6.956  0.00  0.00    -0.230 NA
ATOM      6  C   UNL     1       3.611  -1.086   7.359  0.00  0.00    +0.053 C 
ATOM      7  C   UNL     1       2.639  -1.443   6.445  0.00  0.00    +0.082 C 
ATOM      8  C   UNL     1       2.903  -1.152   4.985  0.00  0.00    +0.150 C 
ATOM      9  N   UNL     1       4.195  -0.496   4.649  0.00  0.00    -0.267 N 
ATOM     10  C   UNL     1       3.395  -1.356   8.826  0.00  0.00    +0.066 C 
ENDROOT
BRANCH   8  11
ATOM     11  C   UNL     1       1.794  -0.265   4.480  0.00  0.00    -0.018 A 
ATOM     12  C   UNL     1       1.781   1.078   4.808  0.00  0.00    +0.009 A 
ATOM     13  C   UNL     1       0.766   1.895   4.347  0.00  0.00    +0.050 A 
ATOM     14  C   UNL     1      -0.242   1.369   3.556  0.00  0.00    +0.162 A 
ATOM     15  C   UNL     1      -0.230   0.017   3.226  0.00  0.00    +0.162 A 
ATOM     16  C   UNL     1       0.794  -0.796   3.687  0.00  0.00    +0.055 A 
BRANCH  15  17
ATOM     17  O   UNL     1      -1.217  -0.504   2.449  0.00  0.00    -0.491 OA
ATOM     18  C   UNL     1      -1.195  -1.917   2.233  0.00  0.00    +0.277 C 
ENDBRANCH  15  17
BRANCH  14  19
ATOM     19  O   UNL     1      -1.242   2.172   3.102  0.00  0.00    -0.491 OA
ATOM     20  C   UNL     1      -1.191   3.549   3.481  0.00  0.00    +0.277 C 
ENDBRANCH  14  19
ENDBRANCH   8  11
BRANCH   1  23
ATOM     21  C   UNL     1       4.341  -0.150   0.971  0.00  0.00    +0.239 C 
ATOM     22  O   UNL     1       5.643   0.202   0.836  0.00  0.00    -0.271 OA
ATOM     23  C   UNL     1       3.832  -0.394   2.194  0.00  0.00    +0.091 C 
BRANCH  21  24
ATOM     24  N   UNL     1       3.533  -0.257  -0.149  0.00  0.00    -0.309 N 
ATOM     25  H   UNL     1       2.585  -0.435  -0.048  0.00  0.00    +0.149 HD
BRANCH  24  26
ATOM     26  C   UNL     1       4.111  -0.101  -1.486  0.00  0.00    +0.070 C 
ATOM     27  C   UNL     1       4.106   1.379  -1.874  0.00  0.00    +0.028 C 
BRANCH  26  29
ATOM     28  C   UNL     1       3.378  -2.388  -2.174  0.00  0.00    +0.005 C 
ATOM     29  C   UNL     1       3.281  -0.895  -2.497  0.00  0.00    +0.018 C 
ENDBRANCH  26  29
ENDBRANCH  24  26
ENDBRANCH  21  24
ENDBRANCH   1  23
BRANCH   7  30
ATOM     30  C   UNL     1       1.448  -2.054   6.857  0.00  0.00    +0.339 C 
ATOM     31  O   UNL     1       1.256  -2.279   8.039  0.00  0.00    -0.245 OA
BRANCH  30  32
ATOM     32  O   UNL     1       0.511  -2.393   5.944  0.00  0.00    -0.465 OA
ATOM     33  C   UNL     1      -0.679  -3.013   6.435  0.00  0.00    +0.280 C 
ENDBRANCH  30  32
ENDBRANCH   7  30
TORSDOF 9
