REMARK  Name = ZINC62824836
REMARK  9 active torsions:
REMARK  status: ('A' for Active; 'I' for Inactive)
REMARK    1  A    between atoms: C_1  and  N_2
REMARK    2  A    between atoms: N_2  and  C_3
REMARK    3  A    between atoms: C_3  and  C_4
REMARK    4  A    between atoms: C_4  and  C_6
REMARK    5  A    between atoms: C_4  and  O_9
REMARK    6  A    between atoms: C_6  and  O_7
REMARK    7  A    between atoms: O_7  and  C_8
REMARK    8  A    between atoms: N_12  and  C_13
REMARK    9  A    between atoms: C_18  and  C_19
REMARK                            x       y       z     vdW  Elec       q    Type
REMARK                         _______ _______ _______ _____ _____    ______ ____
ROOT
ATOM      1  C   UNL     1      -0.068   1.473   0.001  0.00  0.00    +0.133 C 
ATOM      2  N   UNL     1      -0.030   0.009  -0.003  0.00  0.00    -0.286 N 
ATOM      3  C   UNL     1      -0.014  -0.662  -1.171  0.00  0.00    +0.306 C 
ATOM      4  O   UNL     1       0.017  -1.877  -1.175  0.00  0.00    -0.252 OA
ATOM      5  N   UNL     1      -0.033   0.015  -2.337  0.00  0.00    -0.269 N 
ATOM      6  H   UNL     1      -0.122   0.981  -2.336  0.00  0.00    +0.156 HD
ENDROOT
BRANCH   5   7
ATOM      7  C   UNL     1       0.076  -0.672  -3.542  0.00  0.00    +0.049 A 
ATOM      8  C   UNL     1      -0.498  -1.929  -3.684  0.00  0.00    +0.025 A 
ATOM      9  C   UNL     1      -0.389  -2.608  -4.880  0.00  0.00    +0.016 A 
ATOM     10  C   UNL     1       0.293  -2.045  -5.948  0.00  0.00    +0.014 A 
ATOM     11  C   UNL     1       0.870  -0.800  -5.827  0.00  0.00    +0.031 A 
ATOM     12  C   UNL     1       0.763  -0.096  -4.623  0.00  0.00    +0.085 A 
ATOM     13  I   UNL     1       0.447  -3.094  -7.755  0.00  0.00    -0.044 I 
BRANCH  12  14
ATOM     14  C   UNL     1       1.372   1.236  -4.488  0.00  0.00    +0.388 C 
ATOM     15  O   UNL     1       1.884   1.776  -5.460  0.00  0.00    -0.241 OA
ATOM     16  O   UNL     1       1.365   1.805  -3.405  0.00  0.00    -0.241 OA
ENDBRANCH  12  14
ENDBRANCH   5   7
BRANCH   2  17
ATOM     17  C   UNL     1      -0.010  -0.727   1.264  0.00  0.00    +0.142 C 
BRANCH  17  18
ATOM     18  C   UNL     1      -1.445  -1.020   1.707  0.00  0.00    +0.157 C 
BRANCH  18  19
ATOM     19  O   UNL     1      -2.150   0.211   1.882  0.00  0.00    -0.388 OA
ATOM     20  H   UNL     1      -1.760   0.796   2.546  0.00  0.00    +0.210 HD
ENDBRANCH  18  19
BRANCH  18  21
ATOM     21  C   UNL     1      -1.423  -1.788   3.030  0.00  0.00    +0.192 C 
BRANCH  21  22
ATOM     22  O   UNL     1      -2.756  -2.163   3.384  0.00  0.00    -0.380 OA
ATOM     23  C   UNL     1      -2.849  -2.890   4.611  0.00  0.00    +0.194 C 
ENDBRANCH  21  22
ENDBRANCH  18  21
ENDBRANCH  17  18
ENDBRANCH   2  17
TORSDOF 7
