REMARK  Name = ZINC25045676
REMARK  9 active torsions:
REMARK  status: ('A' for Active; 'I' for Inactive)
REMARK    1  A    between atoms: C_1  and  C_2
REMARK    2  A    between atoms: C_5  and  N_8
REMARK    3  A    between atoms: C_9  and  N_14
REMARK    4  A    between atoms: C_11  and  C_13
REMARK    5  A    between atoms: C_15  and  C_17
REMARK    6  A    between atoms: C_17  and  N_18
REMARK    7  A    between atoms: N_18  and  C_19
REMARK    8  A    between atoms: N_18  and  C_20
REMARK    9  A    between atoms: C_20  and  C_21
REMARK                            x       y       z     vdW  Elec       q    Type
REMARK                         _______ _______ _______ _____ _____    ______ ____
ROOT
ATOM      1  N   UNL     1       6.502  -3.121  -3.242  0.00  0.00    -0.272 N 
ATOM      2  C   UNL     1       5.497  -2.276  -2.938  0.00  0.00    +0.202 C 
ATOM      3  O   UNL     1       4.782  -1.842  -3.817  0.00  0.00    -0.278 OA
ATOM      4  H   UNL     1       7.150  -3.514  -2.445  0.00  0.00    +0.156 HD
ENDROOT
BRANCH   1   6
ATOM      5  N   UNL     1       7.694  -4.335  -5.017  0.00  0.00    -0.218 N 
ATOM      6  C   UNL     1       6.719  -3.498  -4.567  0.00  0.00    +0.129 A 
ATOM      7  C   UNL     1       5.999  -3.091  -5.648  0.00  0.00    +0.068 A 
ATOM      8  C   UNL     1       6.546  -3.700  -6.781  0.00  0.00    +0.062 A 
ATOM      9  N   UNL     1       7.555  -4.445  -6.406  0.00  0.00    -0.170 NA
ATOM     10  C   UNL     1       6.057  -3.527  -8.196  0.00  0.00    +0.067 C 
BRANCH   5  15
ATOM     11  C   UNL     1      11.613  -6.923  -1.831  0.00  0.00    +0.044 C 
ATOM     12  C   UNL     1      10.572  -6.236  -2.677  0.00  0.00    -0.050 A 
ATOM     13  C   UNL     1      10.049  -6.878  -3.785  0.00  0.00    +0.005 A 
ATOM     14  C   UNL     1       9.095  -6.250  -4.562  0.00  0.00    +0.028 A 
ATOM     15  C   UNL     1       8.661  -4.974  -4.230  0.00  0.00    +0.067 A 
ATOM     16  C   UNL     1       9.192  -4.330  -3.120  0.00  0.00    +0.028 A 
ATOM     17  C   UNL     1      10.142  -4.965  -2.344  0.00  0.00    +0.005 A 
ENDBRANCH   5  15
ENDBRANCH   1   6
BRANCH   2  18
ATOM     18  C   UNL     1       5.262  -1.869  -1.506  0.00  0.00    +0.019 C 
BRANCH  18  19
ATOM     19  N   UNL     1       4.118  -0.950  -1.440  0.00  0.00    +0.386 N 
ATOM     20  C   UNL     1       4.421   0.318  -2.118  0.00  0.00    -0.095 C 
ATOM     21  H   UNL     1       3.274  -1.421  -1.966  0.00  0.00    -0.081 HD
BRANCH  19  22
ATOM     22  C   UNL     1       3.709  -0.717  -0.048  0.00  0.00    -0.043 C 
BRANCH  22  23
ATOM     23  C   UNL     1       2.397   0.024  -0.027  0.00  0.00    -0.060 A 
ATOM     24  C   UNL     1       1.207  -0.680  -0.016  0.00  0.00    +0.005 A 
ATOM     25  C   UNL     1       0.002  -0.004   0.002  0.00  0.00    +0.049 A 
ATOM     26  C   UNL     1      -0.017   1.383   0.010  0.00  0.00    +0.162 A 
ATOM     27  C   UNL     1       1.179   2.090   0.002  0.00  0.00    +0.162 A 
ATOM     28  C   UNL     1       2.385   1.406  -0.018  0.00  0.00    +0.051 A 
ATOM     29  O   UNL     1       1.184   3.451   0.018  0.00  0.00    -0.485 OA
ATOM     30  C   UNL     1      -0.040   4.103  -0.340  0.00  0.00    +0.270 C 
ATOM     31  C   UNL     1      -1.189   3.413   0.408  0.00  0.00    +0.270 C 
ATOM     32  O   UNL     1      -1.212   2.035   0.019  0.00  0.00    -0.485 OA
ENDBRANCH  22  23
ENDBRANCH  19  22
ENDBRANCH  18  19
ENDBRANCH   2  18
TORSDOF 6
