REMARK  Name = ZINC21473184
REMARK  6 active torsions:
REMARK  status: ('A' for Active; 'I' for Inactive)
REMARK    1  A    between atoms: C_1  and  C_2
REMARK    2  A    between atoms: C_4  and  C_25
REMARK    3  A    between atoms: C_5  and  O_9
REMARK    4  A    between atoms: C_6  and  C_8
REMARK    5  A    between atoms: O_9  and  C_10
REMARK    6  A    between atoms: C_10  and  C_11
REMARK                            x       y       z     vdW  Elec       q    Type
REMARK                         _______ _______ _______ _____ _____    ______ ____
ROOT
ATOM      1  C   UNL     1      -4.300   4.857  -1.006  0.00  0.00    +0.253 C 
ATOM      2  O   UNL     1      -4.694   5.077   0.120  0.00  0.00    -0.272 OA
ATOM      3  N   UNL     1      -5.026   5.265  -2.065  0.00  0.00    -0.299 N 
ATOM      4  C   UNL     1      -4.559   5.011  -3.435  0.00  0.00    +0.110 C 
ATOM      5  C   UNL     1      -5.673   4.282  -4.202  0.00  0.00    +0.054 C 
ATOM      6  C   UNL     1      -6.965   5.086  -4.105  0.00  0.00    +0.115 C 
ATOM      7  C   UNL     1      -7.395   5.247  -2.650  0.00  0.00    +0.054 C 
ATOM      8  C   UNL     1      -6.297   5.978  -1.871  0.00  0.00    +0.110 C 
ATOM      9  C   UNL     1      -8.060   4.422  -4.907  0.00  0.00    +0.244 C 
ATOM     10  O   UNL     1      -8.527   3.316  -4.737  0.00  0.00    -0.273 OA
ATOM     11  N   UNL     1      -8.409   5.319  -5.852  0.00  0.00    -0.238 N 
ATOM     12  C   UNL     1      -7.690   6.444  -5.753  0.00  0.00    +0.307 C 
ATOM     13  O   UNL     1      -7.823   7.399  -6.494  0.00  0.00    -0.252 OA
ATOM     14  N   UNL     1      -6.803   6.399  -4.741  0.00  0.00    -0.285 N 
ATOM     15  H   UNL     1      -9.200   5.075  -6.577  0.00  0.00    +0.159 HD
ATOM     16  H   UNL     1      -6.057   7.109  -4.355  0.00  0.00    +0.151 HD
ENDROOT
BRANCH   1  17
ATOM     17  C   UNL     1      -2.999   4.127  -1.220  0.00  0.00    +0.324 C 
BRANCH  17  18
ATOM     18  O   UNL     1      -2.422   3.802   0.046  0.00  0.00    -0.482 OA
BRANCH  18  23
ATOM     19  C   UNL     1       2.490   1.045  -0.016  0.00  0.00    +0.044 C 
ATOM     20  C   UNL     1       1.176   1.783   0.000  0.00  0.00    -0.050 A 
ATOM     21  C   UNL     1      -0.013   1.076   0.008  0.00  0.00    +0.010 A 
ATOM     22  C   UNL     1      -1.218   1.750   0.017  0.00  0.00    -0.008 A 
ATOM     23  C   UNL     1      -1.237   3.137   0.031  0.00  0.00    +0.127 A 
ATOM     24  C   UNL     1      -0.043   3.844   0.024  0.00  0.00    -0.008 A 
ATOM     25  C   UNL     1       1.160   3.165   0.008  0.00  0.00    +0.010 A 
ATOM     26  C   UNL     1      -0.059   5.351   0.032  0.00  0.00    +0.047 C 
ATOM     27  C   UNL     1      -2.513   0.979   0.019  0.00  0.00    +0.047 C 
ENDBRANCH  18  23
ENDBRANCH  17  18
ENDBRANCH   1  17
TORSDOF 3
