REMARK  Name = ZINC27240443
REMARK  6 active torsions:
REMARK  status: ('A' for Active; 'I' for Inactive)
REMARK    1  A    between atoms: C_1  and  N_2
REMARK    2  A    between atoms: C_3  and  C_5
REMARK    3  A    between atoms: C_7  and  C_11
REMARK    4  A    between atoms: N_9  and  C_10
REMARK    5  A    between atoms: C_11  and  C_13
REMARK    6  A    between atoms: C_13  and  N_14
REMARK                            x       y       z     vdW  Elec       q    Type
REMARK                         _______ _______ _______ _____ _____    ______ ____
ROOT
ATOM      1  C   UNL     1       2.005   3.677   1.201  0.00  0.00    +0.184 C 
ATOM      2  O   UNL     1       1.767   2.833   2.040  0.00  0.00    -0.290 OA
ENDROOT
BRANCH   1   5
ATOM      3  C   UNL     1       3.122   7.142   1.550  0.00  0.00    +0.105 A 
ATOM      4  C   UNL     1       2.760   6.097   0.754  0.00  0.00    +0.044 A 
ATOM      5  C   UNL     1       2.447   5.014   1.611  0.00  0.00    +0.037 A 
ATOM      6  C   UNL     1       2.631   5.460   2.910  0.00  0.00    +0.097 A 
ATOM      7  N   UNL     1       3.041   6.736   2.865  0.00  0.00    -0.345 N 
ATOM      8  C   UNL     1       3.350   7.569   4.029  0.00  0.00    +0.149 C 
BRANCH   3  11
ATOM      9  C   UNL     1       4.192  10.006  -0.690  0.00  0.00    +0.128 C 
ATOM     10  N   UNL     1       3.679   8.712  -0.232  0.00  0.00    -0.313 N 
ATOM     11  C   UNL     1       3.529   8.474   1.086  0.00  0.00    +0.260 C 
ATOM     12  O   UNL     1       3.730   9.364   1.891  0.00  0.00    -0.269 OA
ATOM     13  H   UNL     1       3.416   7.934  -0.965  0.00  0.00    +0.149 HD
ENDBRANCH   3  11
ENDBRANCH   1   5
BRANCH   1  14
ATOM     14  C   UNL     1       1.847   3.351  -0.261  0.00  0.00    +0.208 C 
BRANCH  14  15
ATOM     15  N   UNL     1       1.399   1.964  -0.407  0.00  0.00    -0.267 N 
ATOM     16  C   UNL     1       0.077   1.524  -0.449  0.00  0.00    +0.091 A 
ATOM     17  C   UNL     1      -1.145   2.174  -0.371  0.00  0.00    +0.030 A 
ATOM     18  C   UNL     1      -2.317   1.446  -0.448  0.00  0.00    +0.002 A 
ATOM     19  C   UNL     1      -2.273   0.070  -0.594  0.00  0.00    +0.004 A 
ATOM     20  C   UNL     1      -1.059  -0.585  -0.668  0.00  0.00    +0.048 A 
ATOM     21  C   UNL     1       0.122   0.138  -0.596  0.00  0.00    +0.157 A 
ATOM     22  O   UNL     1       1.429  -0.220  -0.638  0.00  0.00    -0.407 OA
ATOM     23  C   UNL     1       2.191   0.879  -0.524  0.00  0.00    +0.422 A 
ATOM     24  O   UNL     1       3.407   0.893  -0.527  0.00  0.00    -0.223 OA
ENDBRANCH  14  15
ENDBRANCH   1  14
TORSDOF 4
