REMARK  Name = ZINC09081172
REMARK  12 active torsions:
REMARK  status: ('A' for Active; 'I' for Inactive)
REMARK    1  A    between atoms: C_1  and  N_2
REMARK    2  A    between atoms: N_2  and  C_3
REMARK    3  A    between atoms: N_2  and  C_4
REMARK    4  A    between atoms: C_7  and  C_10
REMARK    5  A    between atoms: C_10  and  C_12
REMARK    6  A    between atoms: C_10  and  S_28
REMARK    7  A    between atoms: C_12  and  N_13
REMARK    8  A    between atoms: C_14  and  C_16
REMARK    9  A    between atoms: C_16  and  N_17
REMARK   10  A    between atoms: S_28  and  C_31
REMARK   11  A    between atoms: C_34  and  O_37
REMARK   12  A    between atoms: O_37  and  C_38
REMARK                            x       y       z     vdW  Elec       q    Type
REMARK                         _______ _______ _______ _____ _____    ______ ____
ROOT
ATOM      1  C   UNL     1       2.422   0.741  -0.020  0.00  0.00    +0.183 C 
ENDROOT
BRANCH   1   5
ATOM      2  C   UNL     1       6.095   2.925  -0.041  0.00  0.00    +0.029 A 
ATOM      3  C   UNL     1       5.788   2.070  -1.091  0.00  0.00    +0.023 A 
ATOM      4  C   UNL     1       4.600   1.365  -1.081  0.00  0.00    +0.007 A 
ATOM      5  C   UNL     1       3.717   1.511  -0.027  0.00  0.00    -0.021 A 
ATOM      6  C   UNL     1       4.017   2.366   1.017  0.00  0.00    +0.007 A 
ATOM      7  C   UNL     1       5.206   3.069   1.016  0.00  0.00    +0.023 A 
BRANCH   2   9
ATOM      8  C   UNL     1       8.288   3.394  -1.098  0.00  0.00    +0.129 C 
ATOM      9  N   UNL     1       7.295   3.639  -0.048  0.00  0.00    -0.336 N 
ATOM     10  C   UNL     1       7.562   4.634   0.994  0.00  0.00    +0.129 C 
ENDBRANCH   2   9
ENDBRANCH   1   5
BRANCH   1  11
ATOM     11  S   UNL     1       2.361  -0.327   1.446  0.00  0.00    +0.005 S 
ATOM     12  O   UNL     1       2.507   0.452   2.625  0.00  0.00    -0.169 OA
ATOM     13  O   UNL     1       1.302  -1.266   1.324  0.00  0.00    -0.169 OA
BRANCH  11  14
ATOM     14  C   UNL     1       3.832  -1.294   1.362  0.00  0.00    +0.089 A 
ATOM     15  C   UNL     1       3.822  -2.509   0.703  0.00  0.00    +0.030 A 
ATOM     16  C   UNL     1       4.975  -3.267   0.631  0.00  0.00    +0.047 A 
ATOM     17  C   UNL     1       6.141  -2.812   1.231  0.00  0.00    +0.120 A 
ATOM     18  C   UNL     1       6.146  -1.595   1.897  0.00  0.00    +0.047 A 
ATOM     19  C   UNL     1       4.992  -0.839   1.961  0.00  0.00    +0.030 A 
BRANCH  17  20
ATOM     20  O   UNL     1       7.275  -3.558   1.166  0.00  0.00    -0.495 OA
ATOM     21  C   UNL     1       7.195  -4.801   0.464  0.00  0.00    +0.277 C 
ENDBRANCH  17  20
ENDBRANCH  11  14
ENDBRANCH   1  11
BRANCH   1  22
ATOM     22  C   UNL     1       1.246   1.720   0.014  0.00  0.00    +0.135 C 
BRANCH  22  23
ATOM     23  N   UNL     1      -0.013   0.971   0.021  0.00  0.00    -0.312 N 
ATOM     24  C   UNL     1      -1.188   1.629   0.044  0.00  0.00    +0.231 C 
ATOM     25  O   UNL     1      -1.204   2.842   0.063  0.00  0.00    -0.274 OA
ATOM     26  H   UNL     1      -0.000   0.001   0.005  0.00  0.00    +0.149 HD
BRANCH  24  27
ATOM     27  C   UNL     1      -2.484   0.859   0.045  0.00  0.00    +0.212 C 
BRANCH  27  28
ATOM     28  N   UNL     1      -3.609   1.797   0.072  0.00  0.00    -0.225 N 
ATOM     29  C   UNL     1      -4.186   2.262   1.194  0.00  0.00    +0.254 C 
ATOM     30  O   UNL     1      -3.861   1.976   2.329  0.00  0.00    -0.270 OA
ATOM     31  C   UNL     1      -5.280   3.181   0.816  0.00  0.00    +0.049 A 
ATOM     32  C   UNL     1      -6.197   3.939   1.527  0.00  0.00    +0.014 A 
ATOM     33  C   UNL     1      -7.122   4.714   0.846  0.00  0.00    +0.001 A 
ATOM     34  C   UNL     1      -7.136   4.737  -0.536  0.00  0.00    +0.001 A 
ATOM     35  C   UNL     1      -6.225   3.984  -1.260  0.00  0.00    +0.014 A 
ATOM     36  C   UNL     1      -5.294   3.204  -0.593  0.00  0.00    +0.049 A 
ATOM     37  C   UNL     1      -4.206   2.301  -1.023  0.00  0.00    +0.254 C 
ATOM     38  O   UNL     1      -3.901   2.057  -2.173  0.00  0.00    -0.270 OA
ENDBRANCH  27  28
ENDBRANCH  24  27
ENDBRANCH  22  23
ENDBRANCH   1  22
TORSDOF 9
