REMARK  Name = ZINC28934916
REMARK  7 active torsions:
REMARK  status: ('A' for Active; 'I' for Inactive)
REMARK    1  A    between atoms: C_1  and  N_2
REMARK    2  A    between atoms: N_2  and  C_3
REMARK    3  A    between atoms: N_2  and  C_12
REMARK    4  A    between atoms: C_3  and  C_4
REMARK    5  A    between atoms: C_12  and  C_13
REMARK    6  A    between atoms: N_15  and  C_16
REMARK    7  A    between atoms: C_21  and  N_22
REMARK                            x       y       z     vdW  Elec       q    Type
REMARK                         _______ _______ _______ _____ _____    ______ ____
ROOT
ATOM      1  C   UNL     1       5.908   3.269   0.593  0.00  0.00    +0.201 C 
ATOM      2  O   UNL     1       5.782   2.133   0.998  0.00  0.00    -0.278 OA
ATOM      3  N   UNL     1       4.861   3.904   0.030  0.00  0.00    -0.285 N 
ATOM      4  H   UNL     1       4.996   4.901  -0.415  0.00  0.00    +0.155 HD
ENDROOT
BRANCH   3   5
ATOM      5  C   UNL     1       3.600   3.293   0.011  0.00  0.00    +0.066 A 
ATOM      6  C   UNL     1       3.197   2.499   1.077  0.00  0.00    +0.052 A 
ATOM      7  C   UNL     1       1.951   1.898   1.054  0.00  0.00    +0.078 A 
ATOM      8  C   UNL     1       1.103   2.090  -0.036  0.00  0.00    +0.145 A 
ATOM      9  C   UNL     1       1.508   2.883  -1.095  0.00  0.00    +0.082 A 
ATOM     10  C   UNL     1       2.753   3.484  -1.072  0.00  0.00    +0.151 A 
ATOM     11  O   UNL     1      -0.119   1.492  -0.046  0.00  0.00    -0.481 OA
ATOM     12  C   UNL     1      -0.217   0.219   0.597  0.00  0.00    +0.325 C 
ATOM     13  C   UNL     1       0.464   0.276   1.940  0.00  0.00    +0.255 C 
ATOM     14  O   UNL     1       0.060  -0.408   2.857  0.00  0.00    -0.272 OA
ATOM     15  N   UNL     1       1.525   1.092   2.120  0.00  0.00    -0.280 N 
ATOM     16  H   UNL     1       2.054   1.130   3.083  0.00  0.00    +0.155 HD
BRANCH  10  17
ATOM     17  N   UNL     1       3.184   4.332  -2.206  0.00  0.00    +0.058 N 
ATOM     18  O   UNL     1       2.482   4.428  -3.197  0.00  0.00    -0.126 OA
ATOM     19  O   UNL     1       4.242   4.934  -2.148  0.00  0.00    -0.126 OA
ENDBRANCH  10  17
ENDBRANCH   3   5
BRANCH   1  20
ATOM     20  C   UNL     1       7.235   3.972   0.720  0.00  0.00    +0.019 C 
BRANCH  20  22
ATOM     21  C   UNL     1       8.502   1.920   0.504  0.00  0.00    -0.095 C 
ATOM     22  N   UNL     1       8.205   3.075   1.362  0.00  0.00    +0.386 N 
ATOM     23  H   UNL     1       7.753   2.699   2.292  0.00  0.00    -0.081 HD
BRANCH  22  24
ATOM     24  C   UNL     1       9.434   3.796   1.718  0.00  0.00    -0.041 C 
BRANCH  24  25
ATOM     25  C   UNL     1      10.299   2.918   2.585  0.00  0.00    -0.044 A 
ATOM     26  C   UNL     1      11.427   2.320   2.056  0.00  0.00    +0.003 A 
ATOM     27  C   UNL     1      12.220   1.514   2.851  0.00  0.00    +0.002 A 
ATOM     28  C   UNL     1      11.886   1.305   4.176  0.00  0.00    +0.021 A 
ATOM     29  C   UNL     1      10.758   1.903   4.707  0.00  0.00    +0.059 A 
ATOM     30  C   UNL     1       9.966   2.716   3.912  0.00  0.00    +0.061 A 
ATOM     31 CL   UNL     1       8.554   3.473   4.579  0.00  0.00    -0.082 Cl
ATOM     32 CL   UNL     1      10.338   1.641   6.371  0.00  0.00    -0.082 Cl
ENDBRANCH  24  25
ENDBRANCH  22  24
ENDBRANCH  20  22
ENDBRANCH   1  20
TORSDOF 6
