REMARK  Name = ZINC40288106
REMARK  3 active torsions:
REMARK  status: ('A' for Active; 'I' for Inactive)
REMARK    1  A    between atoms: C_1  and  C_2
REMARK    2  A    between atoms: C_17  and  O_29
REMARK    3  A    between atoms: C_19  and  C_21
REMARK                            x       y       z     vdW  Elec       q    Type
REMARK                         _______ _______ _______ _____ _____    ______ ____
ROOT
ATOM      1  C   UNL     1      -0.018   1.503   0.010  0.00  0.00    +0.068 C 
ATOM      2  C   UNL     1       0.002  -0.004   0.002  0.00  0.00    +0.066 A 
ATOM      3  C   UNL     1       0.008  -0.806  -1.124  0.00  0.00    +0.027 A 
ATOM      4  C   UNL     1       0.032  -2.129  -0.706  0.00  0.00    +0.165 A 
ATOM      5  N   UNL     1       0.034  -2.119   0.648  0.00  0.00    -0.194 N 
ATOM      6  N   UNL     1       0.023  -0.778   1.064  0.00  0.00    -0.168 NA
ATOM      7  C   UNL     1       0.048  -3.241   1.481  0.00  0.00    +0.177 A 
ATOM      8  C   UNL     1       0.043  -3.069   2.878  0.00  0.00    +0.054 A 
ATOM      9  C   UNL     1       0.057  -4.152   3.699  0.00  0.00    +0.054 A 
ATOM     10  C   UNL     1       0.076  -5.441   3.133  0.00  0.00    +0.178 A 
ATOM     11  N   UNL     1       0.093  -6.664   3.638  0.00  0.00    -0.128 NA
ATOM     12  N   UNL     1       0.107  -7.520   2.677  0.00  0.00    -0.136 NA
ATOM     13  C   UNL     1       0.101  -6.903   1.521  0.00  0.00    +0.249 A 
ATOM     14  N   UNL     1       0.081  -5.575   1.766  0.00  0.00    -0.198 N 
ATOM     15  N   UNL     1       0.061  -4.441   0.952  0.00  0.00    -0.144 NA
ATOM     16  N   UNL     1       0.057  -3.160  -1.598  0.00  0.00    -0.197 NA
ATOM     17  C   UNL     1       0.344  -2.913  -2.841  0.00  0.00    +0.190 C 
ATOM     18  C   UNL     1       0.717  -1.552  -3.354  0.00  0.00    +0.108 C 
ATOM     19  C   UNL     1      -0.011  -0.441  -2.587  0.00  0.00    +0.065 C 
ENDROOT
BRANCH  19  20
ATOM     20  C   UNL     1       0.697   0.872  -2.796  0.00  0.00    -0.021 A 
ATOM     21  C   UNL     1       2.029   1.002  -2.447  0.00  0.00    +0.008 A 
ATOM     22  C   UNL     1       2.680   2.205  -2.638  0.00  0.00    +0.039 A 
ATOM     23  C   UNL     1       1.999   3.283  -3.179  0.00  0.00    +0.125 A 
ATOM     24  C   UNL     1       0.666   3.153  -3.529  0.00  0.00    +0.058 A 
ATOM     25  C   UNL     1       0.017   1.946  -3.342  0.00  0.00    +0.047 A 
ATOM     26 CL   UNL     1      -1.653   1.780  -3.786  0.00  0.00    -0.083 Cl
ATOM     27  F   UNL     1       2.635   4.460  -3.365  0.00  0.00    -0.205 F 
ENDBRANCH  19  20
BRANCH  17  28
ATOM     28  O   UNL     1       0.306  -3.936  -3.720  0.00  0.00    -0.495 OA
ATOM     29  H   UNL     1       0.061  -4.784  -3.325  0.00  0.00    +0.293 HD
ENDBRANCH  17  28
TORSDOF 2
