REMARK  Name = ZINC13661751
REMARK  8 active torsions:
REMARK  status: ('A' for Active; 'I' for Inactive)
REMARK    1  A    between atoms: C_1  and  C_2
REMARK    2  A    between atoms: C_5  and  N_9
REMARK    3  A    between atoms: C_6  and  C_8
REMARK    4  A    between atoms: N_9  and  C_10
REMARK    5  A    between atoms: C_10  and  C_11
REMARK    6  A    between atoms: C_15  and  C_22
REMARK    7  A    between atoms: C_23  and  C_25
REMARK    8  A    between atoms: C_29  and  N_31
REMARK                            x       y       z     vdW  Elec       q    Type
REMARK                         _______ _______ _______ _____ _____    ______ ____
ROOT
ATOM      1  N   UNL     1       1.341   6.118   0.137  0.00  0.00    -0.263 N 
ATOM      2  C   UNL     1       0.307   5.255   0.117  0.00  0.00    +0.251 C 
ATOM      3  O   UNL     1      -0.834   5.673   0.107  0.00  0.00    -0.270 OA
ENDROOT
BRANCH   1   8
ATOM      4  C   UNL     1       6.668   4.170   0.041  0.00  0.00    +0.044 C 
ATOM      5  C   UNL     1       5.253   4.687   0.066  0.00  0.00    -0.050 A 
ATOM      6  C   UNL     1       4.579   4.913  -1.120  0.00  0.00    +0.005 A 
ATOM      7  C   UNL     1       3.282   5.387  -1.100  0.00  0.00    +0.024 A 
ATOM      8  C   UNL     1       2.655   5.638   0.113  0.00  0.00    +0.040 A 
ATOM      9  C   UNL     1       3.336   5.415   1.303  0.00  0.00    -0.029 A 
ATOM     10  C   UNL     1       4.631   4.936   1.276  0.00  0.00    +0.008 A 
ATOM     11  C   UNL     1       2.661   5.692   2.622  0.00  0.00    +0.045 C 
ENDBRANCH   1   8
BRANCH   2  12
ATOM     12  C   UNL     1       0.561   3.798   0.107  0.00  0.00    +0.039 A 
ATOM     13  C   UNL     1       1.480   3.241   0.998  0.00  0.00    +0.013 A 
ATOM     14  C   UNL     1       1.712   1.881   0.984  0.00  0.00    +0.003 A 
ATOM     15  C   UNL     1       1.036   1.070   0.089  0.00  0.00    +0.033 A 
ATOM     16  C   UNL     1       0.128   1.617  -0.799  0.00  0.00    +0.127 A 
ATOM     17  C   UNL     1      -0.118   2.974  -0.792  0.00  0.00    +0.045 A 
BRANCH  16  18
ATOM     18  N   UNL     1      -0.587   0.742  -1.756  0.00  0.00    +0.056 N 
ATOM     19  O   UNL     1      -0.374  -0.457  -1.761  0.00  0.00    -0.126 OA
ATOM     20  O   UNL     1      -1.387   1.222  -2.539  0.00  0.00    -0.126 OA
ENDBRANCH  16  18
ENDBRANCH   2  12
BRANCH   1  21
ATOM     21  C   UNL     1       1.090   7.561   0.183  0.00  0.00    +0.154 C 
BRANCH  21  22
ATOM     22  C   UNL     1       1.148   8.035   1.613  0.00  0.00    +0.035 A 
ATOM     23  C   UNL     1       2.279   8.629   2.089  0.00  0.00    +0.020 A 
ATOM     24  C   UNL     1       2.290   9.062   3.430  0.00  0.00    -0.001 A 
ATOM     25  C   UNL     1       3.418   9.687   3.985  0.00  0.00    +0.013 A 
ATOM     26  C   UNL     1       3.394  10.089   5.286  0.00  0.00    -0.050 A 
ATOM     27  C   UNL     1       2.263   9.888   6.075  0.00  0.00    +0.005 A 
ATOM     28  C   UNL     1       1.152   9.286   5.569  0.00  0.00    +0.026 A 
ATOM     29  C   UNL     1       1.139   8.857   4.230  0.00  0.00    +0.049 A 
ATOM     30  N   UNL     1       0.061   8.264   3.707  0.00  0.00    -0.322 N 
ATOM     31  C   UNL     1       0.043   7.861   2.454  0.00  0.00    +0.254 A 
ATOM     32  O   UNL     1      -1.072   7.264   1.967  0.00  0.00    -0.268 OA
ATOM     33  C   UNL     1       4.605  10.759   5.880  0.00  0.00    +0.044 C 
ATOM     34  H   UNL     1      -0.834   8.104   4.326  0.00  0.00    +0.169 HD
ENDBRANCH  21  22
ENDBRANCH   1  21
TORSDOF 5
