REMARK  Name = ZINC35512403
REMARK  10 active torsions:
REMARK  status: ('A' for Active; 'I' for Inactive)
REMARK    1  A    between atoms: C_1  and  C_2
REMARK    2  A    between atoms: C_2  and  O_3
REMARK    3  A    between atoms: O_3  and  C_4
REMARK    4  A    between atoms: C_6  and  C_11
REMARK    5  A    between atoms: C_9  and  O_10
REMARK    6  A    between atoms: C_18  and  C_37
REMARK    7  A    between atoms: C_29  and  C_36
REMARK    8  A    between atoms: C_30  and  C_32
REMARK    9  A    between atoms: C_32  and  O_34
REMARK   10  A    between atoms: O_34  and  C_35
REMARK                            x       y       z     vdW  Elec       q    Type
REMARK                         _______ _______ _______ _____ _____    ______ ____
ROOT
ATOM      1  C   UNL     1      -0.217  -4.963  -0.535  0.00  0.00    +0.152 C 
ATOM      2  C   UNL     1      -1.521  -5.512  -0.056  0.00  0.00    +0.072 A 
ATOM      3  C   UNL     1      -2.771  -4.844   0.320  0.00  0.00    +0.199 A 
ATOM      4  O   UNL     1      -2.981  -3.660   0.121  0.00  0.00    -0.287 OA
ATOM      5  C   UNL     1      -3.757  -5.747   0.965  0.00  0.00    +0.065 A 
ATOM      6  C   UNL     1      -4.908  -5.229   1.557  0.00  0.00    +0.018 A 
ATOM      7  C   UNL     1      -5.804  -6.073   2.152  0.00  0.00    -0.050 A 
ATOM      8  C   UNL     1      -5.570  -7.441   2.168  0.00  0.00    +0.007 A 
ATOM      9  C   UNL     1      -4.439  -7.970   1.587  0.00  0.00    +0.047 A 
ATOM     10  C   UNL     1      -3.511  -7.130   0.972  0.00  0.00    +0.139 A 
ATOM     11  O   UNL     1      -2.413  -7.672   0.399  0.00  0.00    -0.450 OA
ATOM     12  C   UNL     1      -1.402  -6.872   0.006  0.00  0.00    +0.199 A 
ATOM     13  C   UNL     1      -0.040  -7.237  -0.418  0.00  0.00    +0.289 C 
ATOM     14  O   UNL     1       0.391  -8.371  -0.472  0.00  0.00    -0.266 OA
ATOM     15  N   UNL     1       0.660  -6.128  -0.738  0.00  0.00    -0.232 N 
ATOM     16  C   UNL     1       1.970  -6.091  -1.178  0.00  0.00    +0.169 A 
ATOM     17  N   UNL     1       2.793  -7.104  -1.380  0.00  0.00    -0.229 NA
ATOM     18  C   UNL     1       4.017  -6.918  -1.803  0.00  0.00    +0.062 A 
ATOM     19  C   UNL     1       4.398  -5.601  -2.025  0.00  0.00    +0.120 A 
ATOM     20  S   UNL     1       2.892  -4.745  -1.591  0.00  0.00    -0.045 S 
ATOM     21  C   UNL     1       4.962  -8.069  -2.035  0.00  0.00    +0.067 C 
ATOM     22  C   UNL     1      -7.049  -5.517   2.793  0.00  0.00    +0.044 C 
ENDROOT
BRANCH   1  25
ATOM     23  C   UNL     1       0.802  -1.825   1.306  0.00  0.00    +0.162 A 
ATOM     24  C   UNL     1       0.261  -2.673   0.353  0.00  0.00    +0.055 A 
ATOM     25  C   UNL     1       0.372  -4.043   0.502  0.00  0.00    -0.018 A 
ATOM     26  C   UNL     1       1.024  -4.570   1.602  0.00  0.00    +0.009 A 
ATOM     27  C   UNL     1       1.566  -3.730   2.557  0.00  0.00    +0.049 A 
ATOM     28  C   UNL     1       1.462  -2.356   2.410  0.00  0.00    +0.158 A 
BRANCH  28  29
ATOM     29  O   UNL     1       2.000  -1.528   3.345  0.00  0.00    -0.503 OA
ATOM     30  H   UNL     1       1.395  -1.301   4.064  0.00  0.00    +0.292 HD
ENDBRANCH  28  29
BRANCH  23  31
ATOM     31  O   UNL     1       0.693  -0.477   1.160  0.00  0.00    -0.489 OA
BRANCH  31  33
ATOM     32  C   UNL     1      -0.019   1.526   0.010  0.00  0.00    +0.048 C 
ATOM     33  C   UNL     1       0.002  -0.004   0.002  0.00  0.00    +0.226 C 
ENDBRANCH  31  33
ENDBRANCH  23  31
ENDBRANCH   1  25
BRANCH  19  34
ATOM     34  C   UNL     1       5.676  -5.064  -2.490  0.00  0.00    +0.347 C 
ATOM     35  O   UNL     1       6.596  -5.819  -2.744  0.00  0.00    -0.244 OA
BRANCH  34  36
ATOM     36  O   UNL     1       5.835  -3.733  -2.639  0.00  0.00    -0.464 OA
ATOM     37  C   UNL     1       7.109  -3.279  -3.098  0.00  0.00    +0.280 C 
ENDBRANCH  34  36
ENDBRANCH  19  34
TORSDOF 6
