REMARK  Name = ZINC43963985
REMARK  9 active torsions:
REMARK  status: ('A' for Active; 'I' for Inactive)
REMARK    1  A    between atoms: C_1  and  C_2
REMARK    2  A    between atoms: C_2  and  C_4
REMARK    3  A    between atoms: C_2  and  N_20
REMARK    4  A    between atoms: N_6  and  C_7
REMARK    5  A    between atoms: C_21  and  O_23
REMARK    6  A    between atoms: O_23  and  C_24
REMARK    7  A    between atoms: C_24  and  C_25
REMARK    8  A    between atoms: C_24  and  C_26
REMARK    9  A    between atoms: C_24  and  C_27
REMARK                            x       y       z     vdW  Elec       q    Type
REMARK                         _______ _______ _______ _____ _____    ______ ____
ROOT
ATOM      1  C   UNL     1       0.731  -0.503   1.223  0.00  0.00    +0.234 C 
ATOM      2  O   UNL     1       1.725  -1.187   1.099  0.00  0.00    -0.274 OA
ATOM      3  N   UNL     1       0.278  -0.191   2.453  0.00  0.00    -0.307 N 
ATOM      4  H   UNL     1      -0.517   0.356   2.553  0.00  0.00    +0.149 HD
ENDROOT
BRANCH   3   5
ATOM      5  C   UNL     1       0.986  -0.676   3.640  0.00  0.00    +0.105 C 
ATOM      6  C   UNL     1       0.009  -0.759   4.810  0.00  0.00    +0.027 C 
ATOM      7  C   UNL     1       0.811  -1.046   6.085  0.00  0.00    +0.008 C 
ATOM      8  C   UNL     1       1.639   0.193   6.418  0.00  0.00    +0.054 C 
ATOM      9  C   UNL     1       2.421   0.651   5.214  0.00  0.00    +0.024 A 
ATOM     10  C   UNL     1       2.120   0.263   3.959  0.00  0.00    -0.008 A 
ATOM     11  C   UNL     1       2.888   0.742   2.879  0.00  0.00    +0.012 A 
ATOM     12  C   UNL     1       3.928   1.589   3.108  0.00  0.00    +0.070 A 
ATOM     13  C   UNL     1       4.219   1.969   4.429  0.00  0.00    +0.249 A 
ATOM     14  O   UNL     1       5.149   2.725   4.659  0.00  0.00    -0.268 OA
ATOM     15  N   UNL     1       3.471   1.496   5.437  0.00  0.00    -0.326 N 
ATOM     16  H   UNL     1       3.679   1.763   6.346  0.00  0.00    +0.169 HD
ENDBRANCH   3   5
BRANCH   1  18
ATOM     17  C   UNL     1      -0.019   1.526   0.010  0.00  0.00    +0.038 C 
ATOM     18  C   UNL     1       0.002  -0.004   0.002  0.00  0.00    +0.159 C 
BRANCH  18  19
ATOM     19  N   UNL     1       0.688  -0.476  -1.203  0.00  0.00    -0.270 N 
ATOM     20  C   UNL     1       0.006  -0.608  -2.358  0.00  0.00    +0.401 C 
ATOM     21  O   UNL     1      -1.177  -0.335  -2.400  0.00  0.00    -0.226 OA
ATOM     22  H   UNL     1       1.632  -0.695  -1.170  0.00  0.00    +0.153 HD
BRANCH  20  23
ATOM     23  O   UNL     1       0.636  -1.042  -3.466  0.00  0.00    -0.445 OA
BRANCH  23  24
ATOM     24  C   UNL     1      -0.148  -1.158  -4.655  0.00  0.00    +0.107 C 
ATOM     25  C   UNL     1      -0.725   0.211  -5.021  0.00  0.00    +0.055 C 
ATOM     26  C   UNL     1       0.734  -1.662  -5.800  0.00  0.00    +0.055 C 
ATOM     27  C   UNL     1      -1.291  -2.147  -4.418  0.00  0.00    +0.055 C 
ENDBRANCH  23  24
ENDBRANCH  20  23
ENDBRANCH  18  19
ENDBRANCH   1  18
TORSDOF 5
