REMARK  Name = ZINC18284110
REMARK  6 active torsions:
REMARK  status: ('A' for Active; 'I' for Inactive)
REMARK    1  A    between atoms: C_6  and  C_7
REMARK    2  A    between atoms: C_7  and  C_9
REMARK    3  A    between atoms: C_10  and  N_11
REMARK    4  A    between atoms: N_11  and  C_12
REMARK    5  A    between atoms: C_14  and  N_19
REMARK    6  A    between atoms: C_17  and  O_18
REMARK                            x       y       z     vdW  Elec       q    Type
REMARK                         _______ _______ _______ _____ _____    ______ ____
ROOT
ATOM      1  N   UNL     1      -3.596  -2.211   0.127  0.00  0.00    -0.318 N 
ATOM      2  H   UNL     1      -3.622  -1.251  -0.013  0.00  0.00    +0.152 HD
ENDROOT
BRANCH   1   3
ATOM      3  C   UNL     1      -4.783  -2.918   0.345  0.00  0.00    +0.075 A 
ATOM      4  C   UNL     1      -4.747  -4.290   0.551  0.00  0.00    +0.059 A 
ATOM      5  C   UNL     1      -5.921  -4.987   0.766  0.00  0.00    +0.128 A 
ATOM      6  C   UNL     1      -7.133  -4.320   0.776  0.00  0.00    +0.036 A 
ATOM      7  C   UNL     1      -7.176  -2.954   0.571  0.00  0.00    +0.049 A 
ATOM      8  C   UNL     1      -6.004  -2.247   0.361  0.00  0.00    +0.138 A 
BRANCH   5   9
ATOM      9  N   UNL     1      -5.882  -6.450   0.986  0.00  0.00    +0.056 N 
ATOM     10  O   UNL     1      -4.824  -7.034   0.978  0.00  0.00    -0.126 OA
ATOM     11  O   UNL     1      -6.908  -7.061   1.174  0.00  0.00    -0.126 OA
ENDBRANCH   5   9
BRANCH   8  12
ATOM     12  O   UNL     1      -6.044  -0.902   0.164  0.00  0.00    -0.505 OA
ATOM     13  H   UNL     1      -6.139  -0.642  -0.762  0.00  0.00    +0.292 HD
ENDBRANCH   8  12
ENDBRANCH   1   3
BRANCH   1  15
ATOM     14  C   UNL     1      -1.266  -2.209  -0.212  0.00  0.00    +0.066 C 
ATOM     15  C   UNL     1      -2.401  -2.871   0.112  0.00  0.00    +0.076 C 
BRANCH  14  16
ATOM     16  C   UNL     1      -1.336  -0.887  -0.703  0.00  0.00    +0.187 C 
ATOM     17  O   UNL     1      -2.419  -0.382  -0.941  0.00  0.00    -0.287 OA
BRANCH  16  23
ATOM     18  C   UNL     1      -0.161   1.193  -1.412  0.00  0.00    +0.013 A 
ATOM     19  C   UNL     1       1.000   1.909  -1.620  0.00  0.00    +0.022 A 
ATOM     20  C   UNL     1       2.230   1.333  -1.349  0.00  0.00    +0.059 A 
ATOM     21  C   UNL     1       2.302   0.035  -0.867  0.00  0.00    +0.060 A 
ATOM     22  C   UNL     1       1.148  -0.690  -0.655  0.00  0.00    +0.033 A 
ATOM     23  C   UNL     1      -0.095  -0.114  -0.927  0.00  0.00    +0.023 A 
ATOM     24 CL   UNL     1       3.848  -0.679  -0.530  0.00  0.00    -0.082 Cl
ATOM     25 CL   UNL     1       3.686   2.240  -1.614  0.00  0.00    -0.082 Cl
ENDBRANCH  16  23
ENDBRANCH  14  16
ENDBRANCH   1  15
TORSDOF 6
