REMARK  Name = ZINC30223789
REMARK  9 active torsions:
REMARK  status: ('A' for Active; 'I' for Inactive)
REMARK    1  A    between atoms: C_1  and  C_2
REMARK    2  A    between atoms: C_2  and  C_3
REMARK    3  A    between atoms: C_8  and  N_9
REMARK    4  A    between atoms: C_10  and  C_12
REMARK    5  A    between atoms: C_12  and  N_13
REMARK    6  A    between atoms: C_14  and  C_16
REMARK    7  A    between atoms: C_16  and  N_17
REMARK    8  A    between atoms: C_25  and  C_27
REMARK    9  A    between atoms: C_27  and  C_28
REMARK                            x       y       z     vdW  Elec       q    Type
REMARK                         _______ _______ _______ _____ _____    ______ ____
ROOT
ATOM      1  N   UNL     1       7.615   3.312  -1.129  0.00  0.00    -0.308 N 
ATOM      2  C   UNL     1       6.291   3.143  -0.947  0.00  0.00    +0.197 C 
ATOM      3  O   UNL     1       5.521   4.037  -1.227  0.00  0.00    -0.278 OA
ATOM      4  H   UNL     1       8.314   2.501  -0.875  0.00  0.00    +0.149 HD
ENDROOT
BRANCH   1   5
ATOM      5  C   UNL     1       8.125   4.577  -1.666  0.00  0.00    +0.200 C 
BRANCH   5   7
ATOM      6  N   UNL     1      10.317   5.565  -2.244  0.00  0.00    -0.284 N 
ATOM      7  C   UNL     1       9.627   4.509  -1.772  0.00  0.00    +0.234 C 
ATOM      8  O   UNL     1      10.213   3.503  -1.432  0.00  0.00    -0.274 OA
ATOM      9  H   UNL     1       9.793   6.503  -2.482  0.00  0.00    +0.155 HD
BRANCH   6  15
ATOM     10  C   UNL     1      12.312   6.158  -3.470  0.00  0.00    -0.026 A 
ATOM     11  C   UNL     1      13.677   6.062  -3.652  0.00  0.00    +0.005 A 
ATOM     12  C   UNL     1      14.436   5.281  -2.800  0.00  0.00    +0.000 A 
ATOM     13  C   UNL     1      13.831   4.594  -1.764  0.00  0.00    +0.002 A 
ATOM     14  C   UNL     1      12.467   4.690  -1.573  0.00  0.00    +0.023 A 
ATOM     15  C   UNL     1      11.701   5.470  -2.431  0.00  0.00    +0.037 A 
BRANCH  10  17
ATOM     16  C   UNL     1      11.297   8.399  -3.785  0.00  0.00    +0.009 C 
ATOM     17  C   UNL     1      11.485   7.010  -4.399  0.00  0.00    +0.033 C 
ENDBRANCH  10  17
ENDBRANCH   6  15
ENDBRANCH   5   7
ENDBRANCH   1   5
BRANCH   2  18
ATOM     18  C   UNL     1       5.767   1.842  -0.395  0.00  0.00    +0.019 C 
BRANCH  18  19
ATOM     19  N   UNL     1       4.303   1.908  -0.292  0.00  0.00    +0.390 N 
ATOM     20  C   UNL     1       3.892   2.805   0.797  0.00  0.00    -0.072 C 
ATOM     21  C   UNL     1       2.408   3.165   0.610  0.00  0.00    +0.024 C 
ATOM     22  C   UNL     1       1.666   1.901   0.321  0.00  0.00    -0.010 A 
ATOM     23  C   UNL     1       2.209   0.700  -0.023  0.00  0.00    -0.051 A 
ATOM     24  C   UNL     1       1.317  -0.347  -0.243  0.00  0.00    +0.010 A 
ATOM     25  C   UNL     1      -0.015  -0.140  -0.112  0.00  0.00    +0.045 A 
ATOM     26  S   UNL     1      -0.076   1.588   0.341  0.00  0.00    -0.101 S 
ATOM     27  C   UNL     1       3.724   0.566  -0.149  0.00  0.00    -0.036 C 
ATOM     28  H   UNL     1       3.910   2.332  -1.228  0.00  0.00    -0.080 HD
BRANCH  27  29
ATOM     29  C   UNL     1       4.065  -0.274  -1.381  0.00  0.00    -0.014 C 
ATOM     30  C   UNL     1       3.463   0.380  -2.627  0.00  0.00    +0.002 C 
ENDBRANCH  27  29
ENDBRANCH  18  19
ENDBRANCH   2  18
TORSDOF 7
