REMARK  Name = ZINC57328780
REMARK  2 active torsions:
REMARK  status: ('A' for Active; 'I' for Inactive)
REMARK    1  A    between atoms: C_1  and  C_2
REMARK    2  A    between atoms: C_13  and  N_15
REMARK                            x       y       z     vdW  Elec       q    Type
REMARK                         _______ _______ _______ _____ _____    ______ ____
ROOT
ATOM      1  C   UNL     1      -0.108   1.540   0.255  0.00  0.00    +0.009 C 
ATOM      2  C   UNL     1      -0.091   0.011   0.234  0.00  0.00    +0.003 C 
ATOM      3  C   UNL     1      -1.523  -0.518   0.346  0.00  0.00    +0.006 C 
ATOM      4  C   UNL     1      -1.510  -2.047   0.293  0.00  0.00    +0.019 C 
ATOM      5  C   UNL     1      -0.701  -2.588   1.476  0.00  0.00    +0.108 C 
ATOM      6  N   UNL     1       0.633  -1.972   1.458  0.00  0.00    -0.299 N 
ATOM      7  C   UNL     1       0.734  -0.507   1.416  0.00  0.00    +0.111 C 
ATOM      8  C   UNL     1       1.772  -2.758   1.481  0.00  0.00    +0.220 A 
ATOM      9  N   UNL     1       2.960  -2.171   1.469  0.00  0.00    -0.219 NA
ATOM     10  C   UNL     1       4.075  -2.889   1.490  0.00  0.00    +0.051 A 
ATOM     11  C   UNL     1       3.988  -4.266   1.524  0.00  0.00    +0.014 A 
ATOM     12  C   UNL     1       2.723  -4.856   1.536  0.00  0.00    +0.130 A 
ATOM     13  N   UNL     1       1.647  -4.075   1.518  0.00  0.00    -0.199 NA
ATOM     14  C   UNL     1       5.372  -4.870   1.542  0.00  0.00    +0.041 C 
ATOM     15  C   UNL     1       6.313  -3.736   1.079  0.00  0.00    +0.011 C 
ATOM     16  C   UNL     1       5.528  -2.469   1.483  0.00  0.00    +0.056 C 
ENDROOT
BRANCH  12  17
ATOM     17  N   UNL     1       2.591  -6.235   1.570  0.00  0.00    -0.318 N 
ATOM     18  C   UNL     1       2.528  -6.957   2.850  0.00  0.00    +0.087 C 
ATOM     19  C   UNL     1       1.313  -7.890   2.823  0.00  0.00    -0.063 C 
ATOM     20  N   UNL     1       1.390  -8.758   1.640  0.00  0.00    +0.381 N 
ATOM     21  C   UNL     1       1.294  -7.948   0.419  0.00  0.00    -0.063 C 
ATOM     22  C   UNL     1       2.503  -7.017   0.327  0.00  0.00    +0.087 C 
ATOM     23  H   UNL     1       2.268  -9.254   1.645  0.00  0.00    -0.086 HD
ATOM     24  H   UNL     1       0.631  -9.422   1.662  0.00  0.00    -0.086 HD
ENDBRANCH  12  17
TORSDOF 1
