REMARK  Name = ZINC40774377
REMARK  9 active torsions:
REMARK  status: ('A' for Active; 'I' for Inactive)
REMARK    1  A    between atoms: CD1_1  and  CG_2
REMARK    2  A    between atoms: CG_2  and  CD2_3
REMARK    3  A    between atoms: CG_2  and  CB_4
REMARK    4  A    between atoms: CB_4  and  CA_5
REMARK    5  A    between atoms: CA_5  and  C_7
REMARK    6  A    between atoms: CA_5  and  N_9
REMARK    7  A    between atoms: C_7  and  O_8
REMARK    8  A    between atoms: N_9  and  C_10
REMARK    9  A    between atoms: C_15  and  N_16
REMARK                            x       y       z     vdW  Elec       q    Type
REMARK                         _______ _______ _______ _____ _____    ______ ____
ROOT
ATOM      1  C   UNK A   0       3.987  -0.183   0.490  0.00  0.00    +0.050 A 
ATOM      2  C   UNK A   0       4.473   1.020   0.013  0.00  0.00    +0.053 A 
ATOM      3  C   UNK A   0       5.606   1.588   0.595  0.00  0.00    +0.080 A 
ATOM      4  C   UNK A   0       6.245   0.924   1.668  0.00  0.00    +0.067 A 
ATOM      5  C   UNK A   0       5.745  -0.290   2.140  0.00  0.00    +0.040 A 
ATOM      6  C   UNK A   0       4.620  -0.836   1.557  0.00  0.00    +0.047 A 
ATOM      7  C   UNK A   0       7.436   1.552   2.255  0.00  0.00    +0.259 A 
ATOM      8  O   UNK A   0       8.032   1.032   3.180  0.00  0.00    -0.267 OA
ATOM      9  N   UNK A   0       7.845   2.729   1.728  0.00  0.00    -0.313 N 
ATOM     10  H   UNK A   0       8.627   3.171   2.092  0.00  0.00    +0.170 HD
ATOM     11  C   UNK A   0       7.169   3.297   0.695  0.00  0.00    +0.199 A 
ATOM     12  N   UNK A   0       6.114   2.768   0.155  0.00  0.00    -0.237 NA
ENDROOT
BRANCH   6  13
ATOM     13  N   UNK A   0       4.110  -2.051   2.031  0.00  0.00    -0.357 N 
ATOM     14  H   UNK A   0       3.321  -2.439   1.621  0.00  0.00    +0.142 HD
ATOM     15  H   UNK A   0       4.546  -2.505   2.769  0.00  0.00    +0.142 HD
ENDBRANCH   6  13
BRANCH   1  16
ATOM     16  N   LEU A   1       2.854  -0.750  -0.092  0.00  0.00    -0.337 N 
ATOM     17  H   LEU A   1       2.507  -1.592   0.242  0.00  0.00    +0.146 HD
BRANCH  16  18
ATOM     18  CA  LEU A   1       2.187  -0.073  -1.207  0.00  0.00    +0.096 C 
BRANCH  18  19
ATOM     19  CB  LEU A   1       0.718  -0.497  -1.257  0.00  0.00    +0.027 C 
BRANCH  19  21
ATOM     20  CD1 LEU A   1      -0.019   1.526   0.010  0.00  0.00    +0.007 C 
ATOM     21  CG  LEU A   1       0.002  -0.004   0.002  0.00  0.00    -0.015 C 
ATOM     22  CD2 LEU A   1      -1.433  -0.534   0.013  0.00  0.00    +0.007 C 
ENDBRANCH  19  21
ENDBRANCH  18  19
BRANCH  18  23
ATOM     23  C   LEU A   1       2.874  -0.457  -2.520  0.00  0.00    +0.178 C 
BRANCH  23  24
ATOM     24  O   LEU A   1       2.692  -1.853  -2.762  0.00  0.00    -0.393 OA
ATOM     25  H   LEU A   1       3.102  -2.167  -3.579  0.00  0.00    +0.209 HD
ENDBRANCH  23  24
ENDBRANCH  18  23
ENDBRANCH  16  18
ENDBRANCH   1  16
TORSDOF 7
