REMARK  Name = ZINC23372403
REMARK  10 active torsions:
REMARK  status: ('A' for Active; 'I' for Inactive)
REMARK    1  A    between atoms: C_1  and  C_2
REMARK    2  A    between atoms: C_8  and  C_17
REMARK    3  A    between atoms: C_12  and  C_13
REMARK    4  A    between atoms: C_13  and  O_15
REMARK    5  A    between atoms: O_15  and  C_16
REMARK    6  A    between atoms: C_17  and  N_18
REMARK    7  A    between atoms: N_21  and  C_24
REMARK    8  A    between atoms: C_24  and  C_25
REMARK    9  A    between atoms: C_29  and  C_36
REMARK   10  A    between atoms: C_32  and  C_35
REMARK                            x       y       z     vdW  Elec       q    Type
REMARK                         _______ _______ _______ _____ _____    ______ ____
ROOT
ATOM      1  N   UNL     1      -2.430   1.027   0.019  0.00  0.00    -0.299 NA
ATOM      2  C   UNL     1      -2.453   0.270  -1.240  0.00  0.00    +0.066 C 
ATOM      3  C   UNL     1      -3.546  -0.800  -1.169  0.00  0.00    -0.063 C 
ATOM      4  N   UNL     1      -4.843  -0.156  -0.921  0.00  0.00    +0.387 N 
ATOM      5  C   UNL     1      -4.820   0.602   0.338  0.00  0.00    -0.063 C 
ATOM      6  C   UNL     1      -3.727   1.671   0.267  0.00  0.00    +0.066 C 
ATOM      7  H   UNL     1      -5.032   0.554  -1.741  0.00  0.00    -0.081 HD
ENDROOT
BRANCH   1   8
ATOM      8  C   UNL     1      -1.343   2.015   0.019  0.00  0.00    +0.158 C 
BRANCH   8  16
ATOM      9  C   UNL     1       4.901  -0.282  -0.046  0.00  0.00    +0.046 C 
ATOM     10  C   UNL     1       3.514  -0.873  -0.036  0.00  0.00    -0.015 A 
ATOM     11  C   UNL     1       2.397  -0.035  -0.021  0.00  0.00    +0.076 A 
ATOM     12  C   UNL     1       2.337   1.444  -0.013  0.00  0.00    +0.260 A 
ATOM     13  O   UNL     1       3.356   2.111  -0.019  0.00  0.00    -0.267 OA
ATOM     14  N   UNL     1       1.125   2.034   0.002  0.00  0.00    -0.309 N 
ATOM     15  H   UNL     1       1.047   3.131   0.009  0.00  0.00    +0.170 HD
ATOM     16  C   UNL     1      -0.016   1.301   0.009  0.00  0.00    +0.125 A 
ATOM     17  N   UNL     1       0.002  -0.004   0.002  0.00  0.00    -0.225 NA
ATOM     18  C   UNL     1       1.141  -0.684  -0.013  0.00  0.00    +0.116 A 
ATOM     19  S   UNL     1       1.572  -2.406  -0.025  0.00  0.00    -0.062 S 
ATOM     20  C   UNL     1       3.348  -2.227  -0.041  0.00  0.00    +0.102 A 
BRANCH  20  21
ATOM     21  C   UNL     1       4.372  -3.274  -0.056  0.00  0.00    +0.346 C 
ATOM     22  O   UNL     1       5.550  -2.973  -0.066  0.00  0.00    -0.244 OA
BRANCH  21  23
ATOM     23  O   UNL     1       4.008  -4.573  -0.059  0.00  0.00    -0.464 OA
ATOM     24  C   UNL     1       5.076  -5.557  -0.074  0.00  0.00    +0.280 C 
ENDBRANCH  21  23
ENDBRANCH  20  21
ENDBRANCH   8  16
ENDBRANCH   1   8
BRANCH   4  25
ATOM     25  C   UNL     1      -5.930  -1.144  -0.922  0.00  0.00    +0.019 C 
BRANCH  25  26
ATOM     26  C   UNL     1      -6.080  -1.725  -2.304  0.00  0.00    +0.199 C 
ATOM     27  O   UNL     1      -5.354  -1.353  -3.201  0.00  0.00    -0.278 OA
ATOM     28  N   UNL     1      -7.023  -2.658  -2.544  0.00  0.00    -0.303 N 
ATOM     29  C   UNL     1      -7.907  -3.124  -1.466  0.00  0.00    +0.111 C 
ATOM     30  C   UNL     1      -9.364  -2.967  -1.928  0.00  0.00    +0.004 C 
ATOM     31  C   UNL     1      -9.553  -3.701  -3.257  0.00  0.00    +0.009 C 
ATOM     32  C   UNL     1      -8.643  -3.080  -4.319  0.00  0.00    +0.004 C 
ATOM     33  C   UNL     1      -7.181  -3.234  -3.886  0.00  0.00    +0.111 C 
ATOM     34  C   UNL     1      -8.976  -1.595  -4.473  0.00  0.00    +0.009 C 
ATOM     35  C   UNL     1     -10.298  -3.567  -0.875  0.00  0.00    +0.009 C 
ENDBRANCH  25  26
ENDBRANCH   4  25
TORSDOF 6
