REMARK  Name = ZINC42934364
REMARK  6 active torsions:
REMARK  status: ('A' for Active; 'I' for Inactive)
REMARK    1  A    between atoms: C_1  and  C_2
REMARK    2  A    between atoms: C_2  and  C_3
REMARK    3  A    between atoms: C_2  and  C_4
REMARK    4  A    between atoms: C_4  and  C_6
REMARK    5  A    between atoms: C_4  and  S_20
REMARK    6  A    between atoms: S_20  and  C_21
REMARK                            x       y       z     vdW  Elec       q    Type
REMARK                         _______ _______ _______ _____ _____    ______ ____
ROOT
ATOM      1  C   UNL     1      -1.975   0.149  -1.378  0.00  0.00    +0.229 C 
ATOM      2  O   UNL     1      -1.965  -0.531  -2.382  0.00  0.00    -0.274 OA
ATOM      3  N   UNL     1      -2.426   1.419  -1.429  0.00  0.00    -0.298 N 
ATOM      4  C   UNL     1      -2.323   2.296  -0.255  0.00  0.00    +0.126 C 
ATOM      5  C   UNL     1      -1.570   3.570  -0.659  0.00  0.00    +0.125 C 
ATOM      6  N   UNL     1      -2.172   4.101  -1.890  0.00  0.00    -0.314 N 
ATOM      7  C   UNL     1      -2.275   3.223  -3.064  0.00  0.00    +0.125 C 
ATOM      8  C   UNL     1      -3.023   1.952  -2.662  0.00  0.00    +0.126 C 
ATOM      9  C   UNL     1      -2.637   5.410  -1.942  0.00  0.00    +0.099 A 
ATOM     10  C   UNL     1      -2.406   6.267  -0.871  0.00  0.00    +0.042 A 
ATOM     11  C   UNL     1      -2.874   7.566  -0.936  0.00  0.00    +0.005 A 
ATOM     12  C   UNL     1      -3.561   7.967  -2.075  0.00  0.00    +0.018 A 
ATOM     13  C   UNL     1      -3.754   7.064  -3.100  0.00  0.00    +0.084 A 
ATOM     14  N   UNL     1      -3.291   5.832  -3.013  0.00  0.00    -0.350 N 
ATOM     15  H   UNL     1      -3.438   5.218  -3.750  0.00  0.00    +0.166 HD
ENDROOT
BRANCH   1  16
ATOM     16  C   UNL     1      -1.483  -0.424  -0.074  0.00  0.00    +0.142 C 
BRANCH  16  18
ATOM     17  C   UNL     1       0.541  -1.200  -1.317  0.00  0.00    +0.009 C 
ATOM     18  C   UNL     1       0.046  -0.455  -0.075  0.00  0.00    +0.005 C 
ATOM     19  C   UNL     1       0.586   0.977  -0.091  0.00  0.00    +0.009 C 
ENDBRANCH  16  18
BRANCH  16  20
ATOM     20  S   UNL     1      -2.122  -2.110   0.124  0.00  0.00    -0.084 S 
BRANCH  20  21
ATOM     21  C   UNL     1      -1.637  -2.561   1.756  0.00  0.00    +0.161 A 
ATOM     22  N   UNL     1      -1.047  -1.832   2.685  0.00  0.00    -0.133 NA
ATOM     23  N   UNL     1      -0.753  -2.389   3.908  0.00  0.00    -0.125 NA
ATOM     24  C   UNL     1      -1.062  -3.648   4.147  0.00  0.00    +0.180 A 
ATOM     25  S   UNL     1      -1.818  -4.125   2.600  0.00  0.00    -0.025 S 
ATOM     26  N   UNL     1      -0.859  -4.402   5.297  0.00  0.00    -0.336 N 
ATOM     27  H   UNL     1      -0.434  -4.000   6.071  0.00  0.00    +0.144 HD
ATOM     28  H   UNL     1      -1.143  -5.329   5.326  0.00  0.00    +0.144 HD
ENDBRANCH  20  21
ENDBRANCH  16  20
ENDBRANCH   1  16
TORSDOF 4
