REMARK  Name = ZINC31678673
REMARK  4 active torsions:
REMARK  status: ('A' for Active; 'I' for Inactive)
REMARK    1  A    between atoms: C_1  and  C_2
REMARK    2  A    between atoms: C_8  and  N_10
REMARK    3  A    between atoms: C_11  and  C_13
REMARK    4  A    between atoms: C_15  and  N_20
REMARK                            x       y       z     vdW  Elec       q    Type
REMARK                         _______ _______ _______ _____ _____    ______ ____
ROOT
ATOM      1  N   UNL     1      -2.534   5.219   0.055  0.00  0.00    -0.308 N 
ATOM      2  C   UNL     1      -2.522   3.872   0.047  0.00  0.00    +0.245 C 
ATOM      3  O   UNL     1      -3.569   3.254   0.054  0.00  0.00    -0.270 OA
ATOM      4  H   UNL     1      -1.587   5.778   0.049  0.00  0.00    +0.149 HD
ENDROOT
BRANCH   1  11
ATOM      5  C   UNL     1      -3.124   7.199  -1.976  0.00  0.00    +0.009 C 
ATOM      6  C   UNL     1      -3.616   7.332  -0.533  0.00  0.00    +0.006 C 
ATOM      7  C   UNL     1      -4.948   8.085  -0.517  0.00  0.00    +0.005 C 
ATOM      8  C   UNL     1      -5.440   8.219   0.926  0.00  0.00    +0.000 C 
ATOM      9  C   UNL     1      -5.634   6.826   1.530  0.00  0.00    +0.002 C 
ATOM     10  C   UNL     1      -4.302   6.074   1.513  0.00  0.00    +0.022 C 
ATOM     11  C   UNL     1      -3.809   5.940   0.071  0.00  0.00    +0.076 C 
ENDBRANCH   1  11
BRANCH   2  12
ATOM     12  C   UNL     1      -1.235   3.144   0.031  0.00  0.00    +0.052 A 
ATOM     13  C   UNL     1      -0.030   3.851   0.024  0.00  0.00    +0.046 A 
ATOM     14  C   UNL     1       1.167   3.166   0.008  0.00  0.00    +0.127 A 
ATOM     15  C   UNL     1       1.177   1.782   0.000  0.00  0.00    +0.034 A 
ATOM     16  C   UNL     1      -0.013   1.076   0.008  0.00  0.00    +0.017 A 
ATOM     17  C   UNL     1      -1.218   1.748   0.017  0.00  0.00    +0.026 A 
ATOM     18  I   UNL     1      -3.018   0.677   0.020  0.00  0.00    -0.043 I 
BRANCH  14  19
ATOM     19  N   UNL     1       2.444   3.913  -0.000  0.00  0.00    +0.056 N 
ATOM     20  O   UNL     1       3.502   3.310  -0.014  0.00  0.00    -0.126 OA
ATOM     21  O   UNL     1       2.438   5.131   0.006  0.00  0.00    -0.126 OA
ENDBRANCH  14  19
ENDBRANCH   2  12
TORSDOF 3
