REMARK  Name = ZINC54762564
REMARK  7 active torsions:
REMARK  status: ('A' for Active; 'I' for Inactive)
REMARK    1  A    between atoms: C_1  and  C_2
REMARK    2  A    between atoms: C_2  and  C_3
REMARK    3  A    between atoms: C_2  and  C_4
REMARK    4  A    between atoms: C_2  and  N_5
REMARK    5  A    between atoms: N_5  and  C_6
REMARK    6  A    between atoms: C_6  and  C_7
REMARK    7  A    between atoms: N_11  and  C_12
REMARK                            x       y       z     vdW  Elec       q    Type
REMARK                         _______ _______ _______ _____ _____    ______ ____
ROOT
ATOM      1  C   UNL     1       2.831  -0.543  -2.384  0.00  0.00    +0.140 A 
ATOM      2  N   UNL     1       3.427  -1.706  -2.423  0.00  0.00    -0.115 NA
ATOM      3  N   UNL     1       3.937  -1.915  -3.583  0.00  0.00    -0.023 NA
ATOM      4  N   UNL     1       3.705  -0.911  -4.358  0.00  0.00    -0.039 NA
ATOM      5  N   UNL     1       2.969   0.019  -3.604  0.00  0.00    -0.199 N 
ENDROOT
BRANCH   5   6
ATOM      6  C   UNL     1       2.485   1.266  -4.027  0.00  0.00    +0.072 A 
ATOM      7  C   UNL     1       2.616   2.378  -3.205  0.00  0.00    +0.029 A 
ATOM      8  C   UNL     1       2.139   3.605  -3.623  0.00  0.00    +0.025 A 
ATOM      9  C   UNL     1       1.530   3.728  -4.858  0.00  0.00    +0.076 A 
ATOM     10  C   UNL     1       1.396   2.620  -5.681  0.00  0.00    +0.144 A 
ATOM     11  C   UNL     1       1.879   1.391  -5.269  0.00  0.00    +0.067 A 
ATOM     12  F   UNL     1       0.800   2.743  -6.887  0.00  0.00    -0.204 F 
ATOM     13 CL   UNL     1       0.930   5.272  -5.380  0.00  0.00    -0.081 Cl
ENDBRANCH   5   6
BRANCH   1  14
ATOM     14  C   UNL     1       2.117   0.056  -1.199  0.00  0.00    -0.002 C 
BRANCH  14  15
ATOM     15  N   UNL     1       0.737  -0.448  -1.153  0.00  0.00    +0.387 N 
ATOM     16  H   UNL     1       0.749  -1.453  -1.070  0.00  0.00    -0.085 HD
ATOM     17  H   UNL     1       0.256  -0.186  -2.001  0.00  0.00    -0.085 HD
BRANCH  15  19
ATOM     18  C   UNL     1       0.026   1.657  -0.123  0.00  0.00    -0.011 C 
ATOM     19  C   UNL     1       0.043   0.133   0.004  0.00  0.00    -0.076 C 
ATOM     20  C   UNL     1       0.773  -0.264   1.288  0.00  0.00    -0.011 C 
ATOM     21  C   UNL     1      -1.394  -0.392   0.051  0.00  0.00    -0.011 C 
ENDBRANCH  15  19
ENDBRANCH  14  15
ENDBRANCH   1  14
TORSDOF 4
