REMARK  Name = ZINC35442565
REMARK  9 active torsions:
REMARK  status: ('A' for Active; 'I' for Inactive)
REMARK    1  A    between atoms: C_1  and  N_2
REMARK    2  A    between atoms: N_7  and  C_29
REMARK    3  A    between atoms: C_14  and  C_16
REMARK    4  A    between atoms: C_16  and  C_17
REMARK    5  A    between atoms: C_17  and  C_18
REMARK    6  A    between atoms: C_24  and  C_26
REMARK    7  A    between atoms: C_26  and  O_27
REMARK    8  A    between atoms: O_27  and  C_28
REMARK    9  A    between atoms: C_29  and  C_30
REMARK                            x       y       z     vdW  Elec       q    Type
REMARK                         _______ _______ _______ _____ _____    ______ ____
ROOT
ATOM      1  C   UNL     1      -0.348   1.473   0.155  0.00  0.00    -0.095 C 
ATOM      2  N   UNL     1       0.017   0.061  -0.020  0.00  0.00    +0.384 N 
ATOM      3  C   UNL     1       0.449  -0.128  -1.389  0.00  0.00    -0.041 C 
ATOM      4  C   UNL     1      -0.688   0.390  -2.314  0.00  0.00    +0.002 C 
ATOM      5  C   UNL     1      -1.529  -0.859  -2.645  0.00  0.00    +0.084 C 
ATOM      6  N   UNL     1      -0.896  -2.007  -1.950  0.00  0.00    -0.287 NA
ATOM      7  C   UNL     1       0.537  -1.613  -1.758  0.00  0.00    +0.130 C 
ATOM      8  C   UNL     1       1.327  -2.473  -0.883  0.00  0.00    +0.229 C 
ATOM      9  O   UNL     1       2.025  -3.253  -1.496  0.00  0.00    -0.274 OA
ATOM     10  N   UNL     1       1.452  -2.590   0.414  0.00  0.00    -0.316 N 
ATOM     11  C   UNL     1       0.933  -1.704   1.438  0.00  0.00    +0.089 C 
ATOM     12  C   UNL     1       0.971  -0.283   0.994  0.00  0.00    -0.051 C 
ATOM     13  H   UNL     1       1.950  -3.361   0.727  0.00  0.00    +0.149 HD
ATOM     14  H   UNL     1      -0.811  -0.497   0.126  0.00  0.00    -0.081 HD
ENDROOT
BRANCH  12  15
ATOM     15  C   UNL     1       0.731   0.608   2.214  0.00  0.00    -0.005 C 
BRANCH  15  16
ATOM     16  C   UNL     1       1.763   0.283   3.295  0.00  0.00    +0.094 C 
BRANCH  16  17
ATOM     17  C   UNL     1       1.612   1.250   4.441  0.00  0.00    +0.216 C 
ATOM     18  O   UNL     1       0.763   2.114   4.398  0.00  0.00    -0.276 OA
ATOM     19  N   UNL     1       2.422   1.154   5.515  0.00  0.00    -0.296 N 
ATOM     20  C   UNL     1       3.496   0.160   5.695  0.00  0.00    +0.108 C 
ATOM     21  C   UNL     1       4.479   0.816   6.697  0.00  0.00    +0.021 C 
ATOM     22  C   UNL     1       3.504   1.558   7.649  0.00  0.00    +0.026 C 
ATOM     23  C   UNL     1       2.384   2.026   6.697  0.00  0.00    +0.102 C 
BRANCH  23  24
ATOM     24  C   UNL     1       1.027   1.901   7.393  0.00  0.00    +0.181 C 
BRANCH  24  25
ATOM     25  O   UNL     1       0.874   0.575   7.903  0.00  0.00    -0.381 OA
ATOM     26  C   UNL     1      -0.367   0.351   8.576  0.00  0.00    +0.194 C 
ENDBRANCH  24  25
ENDBRANCH  23  24
ENDBRANCH  16  17
ENDBRANCH  15  16
ENDBRANCH  12  15
BRANCH   6  27
ATOM     27  C   UNL     1      -0.998  -3.231  -2.756  0.00  0.00    +0.143 C 
BRANCH  27  28
ATOM     28  C   UNL     1      -2.433  -3.689  -2.794  0.00  0.00    +0.086 A 
ATOM     29  C   UNL     1      -3.276  -3.362  -3.808  0.00  0.00    +0.093 A 
ATOM     30  S   UNL     1      -4.698  -4.121  -3.337  0.00  0.00    +0.028 S 
ATOM     31  N   UNL     1      -4.197  -4.787  -1.950  0.00  0.00    -0.110 NA
ATOM     32  N   UNL     1      -2.961  -4.439  -1.851  0.00  0.00    -0.145 NA
ENDBRANCH  27  28
ENDBRANCH   6  27
TORSDOF 7
