REMARK  Name = ZINC20779272
REMARK  7 active torsions:
REMARK  status: ('A' for Active; 'I' for Inactive)
REMARK    1  A    between atoms: C_5  and  C_7
REMARK    2  A    between atoms: C_7  and  C_8
REMARK    3  A    between atoms: C_8  and  N_9
REMARK    4  A    between atoms: C_10  and  C_12
REMARK    5  A    between atoms: C_12  and  C_13
REMARK    6  A    between atoms: N_20  and  C_21
REMARK    7  A    between atoms: C_21  and  C_22
REMARK                            x       y       z     vdW  Elec       q    Type
REMARK                         _______ _______ _______ _____ _____    ______ ____
ROOT
ATOM      1  C   UNL     1       1.597  -4.090  -1.479  0.00  0.00    +0.028 C 
ATOM      2  C   UNL     1       1.452  -4.538  -2.905  0.00  0.00    +0.200 C 
ATOM      3  O   UNL     1       2.021  -5.550  -3.257  0.00  0.00    -0.278 OA
ATOM      4  N   UNL     1       0.722  -3.869  -3.804  0.00  0.00    -0.318 N 
ATOM      5  C   UNL     1       0.028  -2.623  -3.492  0.00  0.00    +0.085 C 
ATOM      6  C   UNL     1      -0.116  -2.467  -1.977  0.00  0.00    -0.058 C 
ATOM      7  N   UNL     1       1.200  -2.682  -1.352  0.00  0.00    +0.391 N 
ATOM      8  H   UNL     1       0.657  -4.296  -4.815  0.00  0.00    +0.149 HD
ATOM      9  H   UNL     1       1.942  -2.062  -1.877  0.00  0.00    -0.080 HD
ENDROOT
BRANCH   1  10
ATOM     10  C   UNL     1       3.055  -4.247  -1.042  0.00  0.00    +0.089 C 
BRANCH  10  12
ATOM     11  N   UNL     1       5.271  -3.404  -1.749  0.00  0.00    -0.315 N 
ATOM     12  C   UNL     1       3.930  -3.355  -1.883  0.00  0.00    +0.212 C 
ATOM     13  O   UNL     1       3.429  -2.591  -2.682  0.00  0.00    -0.276 OA
ATOM     14  H   UNL     1       5.725  -4.096  -1.025  0.00  0.00    +0.149 HD
BRANCH  11  15
ATOM     15  C   UNL     1       6.121  -2.536  -2.567  0.00  0.00    +0.109 C 
BRANCH  15  16
ATOM     16  C   UNL     1       7.590  -2.788  -2.220  0.00  0.00    +0.055 C 
BRANCH  16  21
ATOM     17  C   UNL     1       9.809  -1.552  -5.013  0.00  0.00    +0.000 A 
ATOM     18  C   UNL     1      10.072  -0.257  -4.605  0.00  0.00    +0.001 A 
ATOM     19  C   UNL     1       9.533   0.218  -3.425  0.00  0.00    +0.020 A 
ATOM     20  C   UNL     1       8.729  -0.601  -2.652  0.00  0.00    +0.044 A 
ATOM     21  C   UNL     1       8.465  -1.895  -3.061  0.00  0.00    -0.028 A 
ATOM     22  C   UNL     1       9.009  -2.372  -4.239  0.00  0.00    +0.005 A 
ATOM     23 CL   UNL     1       8.051  -0.004  -1.169  0.00  0.00    -0.083 Cl
ENDBRANCH  16  21
ENDBRANCH  15  16
ENDBRANCH  11  15
ENDBRANCH  10  12
ENDBRANCH   1  10
BRANCH   7  24
ATOM     24  C   UNL     1       1.188  -2.262   0.056  0.00  0.00    -0.042 C 
BRANCH  24  25
ATOM     25  C   UNL     1       1.168  -0.757   0.131  0.00  0.00    -0.061 A 
ATOM     26  C   UNL     1       2.356  -0.051   0.170  0.00  0.00    +0.002 A 
ATOM     27  C   UNL     1       2.339   1.329   0.239  0.00  0.00    +0.003 A 
ATOM     28  C   UNL     1       1.134   2.005   0.270  0.00  0.00    +0.038 A 
ATOM     29  C   UNL     1      -0.056   1.300   0.230  0.00  0.00    +0.124 A 
ATOM     30  C   UNL     1      -0.038  -0.083   0.161  0.00  0.00    +0.040 A 
ATOM     31  F   UNL     1      -1.235   1.960   0.254  0.00  0.00    -0.205 F 
ENDBRANCH  24  25
ENDBRANCH   7  24
TORSDOF 7
