REMARK  Name = ZINC24134057
REMARK  6 active torsions:
REMARK  status: ('A' for Active; 'I' for Inactive)
REMARK    1  A    between atoms: C_1  and  C_2
REMARK    2  A    between atoms: C_3  and  C_14
REMARK    3  A    between atoms: C_4  and  C_13
REMARK    4  A    between atoms: N_5  and  C_7
REMARK    5  A    between atoms: N_21  and  C_22
REMARK    6  A    between atoms: C_22  and  C_23
REMARK                            x       y       z     vdW  Elec       q    Type
REMARK                         _______ _______ _______ _____ _____    ______ ____
ROOT
ATOM      1  C   UNL     1      -1.607   4.681   0.043  0.00  0.00    +0.054 C 
ATOM      2  C   UNL     1      -1.598   5.290   1.417  0.00  0.00    +0.204 C 
ATOM      3  O   UNL     1      -1.659   4.553   2.379  0.00  0.00    -0.277 OA
ATOM      4  N   UNL     1      -1.525   6.609   1.624  0.00  0.00    -0.318 N 
ATOM      5  C   UNL     1      -1.411   7.577   0.537  0.00  0.00    +0.085 C 
ATOM      6  C   UNL     1      -1.837   6.935  -0.784  0.00  0.00    -0.058 C 
ATOM      7  N   UNL     1      -1.120   5.659  -0.939  0.00  0.00    +0.397 N 
ATOM      8  H   UNL     1      -1.554   6.954   2.668  0.00  0.00    +0.149 HD
ATOM      9  H   UNL     1      -0.050   5.832  -0.755  0.00  0.00    -0.079 HD
ENDROOT
BRANCH   1  12
ATOM     10  C   UNL     1       1.562   4.704   0.012  0.00  0.00    +0.068 C 
ATOM     11  C   UNL     1       0.687   3.478   0.014  0.00  0.00    +0.063 A 
ATOM     12  C   UNL     1      -0.713   3.469   0.028  0.00  0.00    -0.009 A 
ATOM     13  C   UNL     1      -1.121   2.179   0.019  0.00  0.00    +0.044 A 
ATOM     14  N   UNL     1      -0.017   1.398   0.010  0.00  0.00    -0.237 N 
ATOM     15  N   UNL     1       1.104   2.237   0.004  0.00  0.00    -0.171 NA
ATOM     16  C   UNL     1      -2.549   1.698   0.022  0.00  0.00    +0.066 C 
BRANCH  14  17
ATOM     17  C   UNL     1       0.002  -0.004   0.002  0.00  0.00    +0.066 A 
ATOM     18  C   UNL     1      -0.963  -0.717   0.701  0.00  0.00    +0.028 A 
ATOM     19  C   UNL     1      -0.945  -2.098   0.687  0.00  0.00    +0.002 A 
ATOM     20  C   UNL     1       0.040  -2.771  -0.013  0.00  0.00    +0.000 A 
ATOM     21  C   UNL     1       1.005  -2.064  -0.706  0.00  0.00    +0.002 A 
ATOM     22  C   UNL     1       0.989  -0.682  -0.700  0.00  0.00    +0.028 A 
ENDBRANCH  14  17
ENDBRANCH   1  12
BRANCH   7  23
ATOM     23  C   UNL     1      -1.258   5.143  -2.308  0.00  0.00    +0.020 C 
BRANCH  23  24
ATOM     24  C   UNL     1      -0.984   6.251  -3.292  0.00  0.00    +0.180 A 
ATOM     25  N   UNL     1       0.184   6.536  -3.783  0.00  0.00    -0.215 NA
ATOM     26  C   UNL     1       0.057   7.588  -4.636  0.00  0.00    +0.109 A 
ATOM     27  C   UNL     1       0.956   8.304  -5.429  0.00  0.00    +0.031 A 
ATOM     28  C   UNL     1       0.502   9.347  -6.204  0.00  0.00    +0.002 A 
ATOM     29  C   UNL     1      -0.842   9.692  -6.201  0.00  0.00    +0.004 A 
ATOM     30  C   UNL     1      -1.741   8.994  -5.422  0.00  0.00    +0.048 A 
ATOM     31  C   UNL     1      -1.302   7.940  -4.636  0.00  0.00    +0.155 A 
ATOM     32  O   UNL     1      -1.914   7.080  -3.792  0.00  0.00    -0.442 OA
ENDBRANCH  23  24
ENDBRANCH   7  23
TORSDOF 4
