REMARK  Name = ZINC02399549
REMARK  8 active torsions:
REMARK  status: ('A' for Active; 'I' for Inactive)
REMARK    1  A    between atoms: C_1  and  C_2
REMARK    2  A    between atoms: C_2  and  C_3
REMARK    3  A    between atoms: C_2  and  O_4
REMARK    4  A    between atoms: O_4  and  C_5
REMARK    5  A    between atoms: C_9  and  C_11
REMARK    6  A    between atoms: N_15  and  N_16
REMARK    7  A    between atoms: C_17  and  C_18
REMARK    8  A    between atoms: C_22  and  N_24
REMARK                            x       y       z     vdW  Elec       q    Type
REMARK                         _______ _______ _______ _____ _____    ______ ____
ROOT
ATOM      1  C   UNL     1      -0.100   5.293  -0.419  0.00  0.00    +0.184 A 
ATOM      2  N   UNL     1       0.832   6.102   0.030  0.00  0.00    -0.152 NA
ATOM      3  N   UNL     1       0.467   7.324  -0.127  0.00  0.00    -0.253 N 
ATOM      4  C   UNL     1      -0.726   7.373  -0.678  0.00  0.00    +0.197 A 
ATOM      5  N   UNL     1      -1.130   6.081  -0.884  0.00  0.00    -0.188 N 
ATOM      6  S   UNL     1      -1.635   8.829  -1.077  0.00  0.00    -0.010 S 
ATOM      7  H   UNL     1       1.131   8.142   0.189  0.00  0.00    +0.191 HD
ENDROOT
BRANCH   1  12
ATOM      8  C   UNL     1       1.190   1.768  -0.215  0.00  0.00    +0.122 A 
ATOM      9  C   UNL     1       0.023   1.044  -0.421  0.00  0.00    +0.046 A 
ATOM     10  C   UNL     1      -1.176   1.700  -0.631  0.00  0.00    +0.004 A 
ATOM     11  C   UNL     1      -1.222   3.079  -0.626  0.00  0.00    +0.012 A 
ATOM     12  C   UNL     1      -0.054   3.816  -0.419  0.00  0.00    +0.024 A 
ATOM     13  C   UNL     1       1.156   3.152  -0.213  0.00  0.00    +0.057 A 
BRANCH   8  14
ATOM     14  O   UNL     1       2.366   1.118  -0.015  0.00  0.00    -0.489 OA
BRANCH  14  16
ATOM     15  C   UNL     1       2.341  -0.921  -1.312  0.00  0.00    +0.051 C 
ATOM     16  C   UNL     1       2.311  -0.306   0.088  0.00  0.00    +0.167 C 
ATOM     17  C   UNL     1       3.514  -0.807   0.891  0.00  0.00    +0.051 C 
ENDBRANCH  14  16
ENDBRANCH   8  14
ENDBRANCH   1  12
BRANCH   5  18
ATOM     18  N   UNL     1      -2.337   5.651  -1.450  0.00  0.00    -0.171 NA
ATOM     19  C   UNL     1      -3.368   5.436  -0.692  0.00  0.00    +0.141 C 
BRANCH  19  20
ATOM     20  C   UNL     1      -4.639   4.984  -1.288  0.00  0.00    -0.003 A 
ATOM     21  C   UNL     1      -4.736   4.785  -2.667  0.00  0.00    +0.009 A 
ATOM     22  C   UNL     1      -5.928   4.361  -3.217  0.00  0.00    +0.003 A 
ATOM     23  C   UNL     1      -7.026   4.133  -2.406  0.00  0.00    +0.033 A 
ATOM     24  C   UNL     1      -6.937   4.327  -1.039  0.00  0.00    +0.127 A 
ATOM     25  C   UNL     1      -5.750   4.746  -0.475  0.00  0.00    +0.042 A 
BRANCH  24  26
ATOM     26  N   UNL     1      -8.116   4.080  -0.180  0.00  0.00    +0.056 N 
ATOM     27  O   UNL     1      -9.164   3.705  -0.676  0.00  0.00    -0.126 OA
ATOM     28  O   UNL     1      -8.039   4.250   1.024  0.00  0.00    -0.126 OA
ENDBRANCH  24  26
ENDBRANCH  19  20
ENDBRANCH   5  18
TORSDOF 6
