REMARK  Name = ZINC66853239
REMARK  6 active torsions:
REMARK  status: ('A' for Active; 'I' for Inactive)
REMARK    1  A    between atoms: C_1  and  C_2
REMARK    2  A    between atoms: C_6  and  C_24
REMARK    3  A    between atoms: N_9  and  C_10
REMARK    4  A    between atoms: C_10  and  C_11
REMARK    5  A    between atoms: N_13  and  C_14
REMARK    6  A    between atoms: C_17  and  N_21
REMARK                            x       y       z     vdW  Elec       q    Type
REMARK                         _______ _______ _______ _____ _____    ______ ____
ROOT
ATOM      1  C   UNL     1       0.013  -0.097   2.421  0.00  0.00    +0.181 C 
ENDROOT
BRANCH   1   8
ATOM      2  C   UNL     1      -0.047   1.504   0.002  0.00  0.00    +0.026 C 
ATOM      3  C   UNL     1      -0.017  -0.026   0.000  0.00  0.00    +0.080 C 
ATOM      4  C   UNL     1       0.701  -0.522  -1.258  0.00  0.00    +0.179 C 
ATOM      5  O   UNL     1       2.060  -0.076  -1.233  0.00  0.00    -0.369 OA
ATOM      6  C   UNL     1       2.791  -0.525  -0.088  0.00  0.00    +0.162 C 
ATOM      7  C   UNL     1       2.095  -0.029   1.182  0.00  0.00    +0.121 C 
ATOM      8  N   UNL     1       0.703  -0.504   1.190  0.00  0.00    -0.286 NA
BRANCH   6   9
ATOM      9  C   UNL     1       4.194   0.024  -0.141  0.00  0.00    -0.018 A 
ATOM     10  C   UNL     1       4.412   1.323  -0.560  0.00  0.00    +0.006 A 
ATOM     11  C   UNL     1       5.699   1.826  -0.608  0.00  0.00    +0.000 A 
ATOM     12  C   UNL     1       6.767   1.030  -0.238  0.00  0.00    +0.000 A 
ATOM     13  C   UNL     1       6.548  -0.269   0.182  0.00  0.00    +0.000 A 
ATOM     14  C   UNL     1       5.261  -0.770   0.234  0.00  0.00    +0.006 A 
ENDBRANCH   6   9
ENDBRANCH   1   8
BRANCH   1  15
ATOM     15  C   UNL     1       0.631  -0.803   3.600  0.00  0.00    +0.231 C 
ATOM     16  O   UNL     1       1.556  -1.570   3.431  0.00  0.00    -0.274 OA
ATOM     17  N   UNL     1       0.157  -0.583   4.842  0.00  0.00    -0.283 N 
ATOM     18  H   UNL     1      -0.527   0.089   4.988  0.00  0.00    +0.155 HD
BRANCH  17  19
ATOM     19  C   UNL     1       0.652  -1.323   5.922  0.00  0.00    +0.052 A 
ATOM     20  C   UNL     1       1.207  -2.578   5.709  0.00  0.00    +0.027 A 
ATOM     21  C   UNL     1       1.695  -3.306   6.777  0.00  0.00    +0.034 A 
ATOM     22  C   UNL     1       1.632  -2.787   8.057  0.00  0.00    +0.128 A 
ATOM     23  C   UNL     1       1.081  -1.537   8.273  0.00  0.00    +0.054 A 
ATOM     24  C   UNL     1       0.595  -0.801   7.209  0.00  0.00    +0.064 A 
ATOM     25 CL   UNL     1      -0.090   0.770   7.479  0.00  0.00    -0.082 Cl
BRANCH  22  26
ATOM     26  N   UNL     1       2.156  -3.570   9.198  0.00  0.00    +0.056 N 
ATOM     27  O   UNL     1       2.638  -4.663   9.011  0.00  0.00    -0.126 OA
ATOM     28  O   UNL     1       2.102  -3.118  10.318  0.00  0.00    -0.126 OA
ENDBRANCH  22  26
ENDBRANCH  17  19
ENDBRANCH   1  15
TORSDOF 5
