REMARK  Name = ZINC67397878
REMARK  7 active torsions:
REMARK  status: ('A' for Active; 'I' for Inactive)
REMARK    1  A    between atoms: C_1  and  C_2
REMARK    2  A    between atoms: N_7  and  C_9
REMARK    3  A    between atoms: C_9  and  C_10
REMARK    4  A    between atoms: C_10  and  C_12
REMARK    5  A    between atoms: C_10  and  N_13
REMARK    6  A    between atoms: C_14  and  C_16
REMARK    7  A    between atoms: N_18  and  C_19
REMARK                            x       y       z     vdW  Elec       q    Type
REMARK                         _______ _______ _______ _____ _____    ______ ____
ROOT
ATOM      1  N   UNL     1      -0.084  -4.388   2.375  0.00  0.00    -0.307 N 
ATOM      2  C   UNL     1      -0.389  -5.615   1.908  0.00  0.00    +0.299 C 
ATOM      3  O   UNL     1       0.496  -6.378   1.581  0.00  0.00    -0.265 OA
ATOM      4  H   UNL     1      -0.791  -3.779   2.637  0.00  0.00    +0.149 HD
ENDROOT
BRANCH   2   5
ATOM      5  C   UNL     1      -1.817  -6.036   1.793  0.00  0.00    +0.303 C 
ATOM      6  O   UNL     1      -2.703  -5.273   2.120  0.00  0.00    -0.265 OA
ATOM      7  N   UNL     1      -2.123  -7.262   1.325  0.00  0.00    -0.276 N 
ATOM      8  H   UNL     1      -1.420  -7.847   1.002  0.00  0.00    +0.155 HD
BRANCH   7   9
ATOM      9  C   UNL     1      -3.454  -7.691   1.305  0.00  0.00    +0.056 A 
ATOM     10  C   UNL     1      -4.474  -6.783   1.053  0.00  0.00    +0.074 A 
ATOM     11  C   UNL     1      -5.792  -7.208   1.033  0.00  0.00    +0.164 A 
ATOM     12  C   UNL     1      -6.093  -8.546   1.263  0.00  0.00    +0.164 A 
ATOM     13  C   UNL     1      -5.073  -9.451   1.517  0.00  0.00    +0.071 A 
ATOM     14  C   UNL     1      -3.757  -9.029   1.532  0.00  0.00    +0.066 A 
ATOM     15 CL   UNL     1      -2.483 -10.167   1.841  0.00  0.00    -0.081 Cl
ATOM     16  O   UNL     1      -7.382  -8.984   1.240  0.00  0.00    -0.485 OA
ATOM     17  C   UNL     1      -8.403  -7.987   1.353  0.00  0.00    +0.270 C 
ATOM     18  C   UNL     1      -8.055  -6.832   0.403  0.00  0.00    +0.270 C 
ATOM     19  O   UNL     1      -6.781  -6.304   0.788  0.00  0.00    -0.485 OA
ENDBRANCH   7   9
ENDBRANCH   2   5
BRANCH   1  20
ATOM     20  C   UNL     1       1.318  -3.976   2.489  0.00  0.00    +0.054 C 
ATOM     21  C   UNL     1       1.887  -4.465   3.821  0.00  0.00    +0.026 C 
BRANCH  20  22
ATOM     22  C   UNL     1       1.407  -2.450   2.426  0.00  0.00    -0.057 C 
BRANCH  22  28
ATOM     23  C   UNL     1      -0.053   1.528  -0.026  0.00  0.00    +0.005 C 
ATOM     24  C   UNL     1      -0.028  -0.001  -0.030  0.00  0.00    -0.031 C 
ATOM     25  C   UNL     1       0.684  -0.497  -1.292  0.00  0.00    -0.001 C 
ATOM     26  C   UNL     1       0.773  -2.025  -1.249  0.00  0.00    -0.018 C 
ATOM     27  C   UNL     1       1.496  -2.453   0.030  0.00  0.00    -0.079 C 
ATOM     28  N   UNL     1       0.752  -1.971   1.201  0.00  0.00    +0.381 N 
ATOM     29  C   UNL     1       0.723  -0.504   1.204  0.00  0.00    -0.076 C 
ATOM     30  H   UNL     1      -0.193  -2.324   1.166  0.00  0.00    -0.082 HD
ENDBRANCH  22  28
ENDBRANCH  20  22
ENDBRANCH   1  20
TORSDOF 5
