REMARK  Name = ZINC63281149
REMARK  6 active torsions:
REMARK  status: ('A' for Active; 'I' for Inactive)
REMARK    1  A    between atoms: C_1  and  O_2
REMARK    2  A    between atoms: O_2  and  C_3
REMARK    3  A    between atoms: C_6  and  O_9
REMARK    4  A    between atoms: O_9  and  C_10
REMARK    5  A    between atoms: C_10  and  C_11
REMARK    6  A    between atoms: C_17  and  C_20
REMARK                            x       y       z     vdW  Elec       q    Type
REMARK                         _______ _______ _______ _____ _____    ______ ____
ROOT
ATOM      1  C   UNL     1      -6.248  -4.512   0.044  0.00  0.00    +0.189 A 
ATOM      2  N   UNL     1      -6.958  -4.773   1.101  0.00  0.00    -0.128 NA
ATOM      3  N   UNL     1      -8.117  -5.214   0.757  0.00  0.00    -0.121 NA
ATOM      4  C   UNL     1      -8.190  -5.269  -0.537  0.00  0.00    +0.211 A 
ATOM      5  N   UNL     1      -7.020  -4.792  -1.070  0.00  0.00    -0.221 N 
ATOM      6  N   UNL     1      -6.898  -4.692  -2.424  0.00  0.00    -0.265 N 
ATOM      7  C   UNL     1      -7.826  -5.554  -3.203  0.00  0.00    +0.178 C 
ATOM      8  S   UNL     1      -9.174  -5.705  -1.955  0.00  0.00    -0.058 S 
ATOM      9  H   UNL     1      -6.961  -3.730  -2.722  0.00  0.00    +0.168 HD
ENDROOT
BRANCH   7  10
ATOM     10  C   UNL     1      -7.202  -6.916  -3.514  0.00  0.00    +0.135 C 
ATOM     11  C   UNL     1      -8.146  -7.741  -4.360  0.00  0.00    +0.010 C 
ATOM     12  C   UNL     1      -8.428  -8.848  -3.636  0.00  0.00    -0.004 A 
ATOM     13  C   UNL     1      -9.272 -10.020  -3.898  0.00  0.00    +0.010 A 
ATOM     14  C   UNL     1      -9.358 -10.989  -2.959  0.00  0.00    +0.001 A 
ATOM     15  C   UNL     1      -8.664 -10.903  -1.745  0.00  0.00    +0.002 A 
ATOM     16  C   UNL     1      -7.869  -9.858  -1.432  0.00  0.00    +0.026 A 
ATOM     17  C   UNL     1      -7.705  -8.781  -2.346  0.00  0.00    +0.043 A 
ATOM     18  N   UNL     1      -7.001  -7.675  -2.275  0.00  0.00    -0.375 N 
ATOM     19  H   UNL     1      -6.443  -7.405  -1.530  0.00  0.00    +0.160 HD
ENDBRANCH   7  10
BRANCH   1  20
ATOM     20  C   UNL     1      -4.834  -3.991   0.033  0.00  0.00    +0.306 C 
BRANCH  20  21
ATOM     21  O   UNL     1      -4.853  -2.562   0.035  0.00  0.00    -0.484 OA
BRANCH  21  25
ATOM     22  C   UNL     1      -1.201  -0.638   0.010  0.00  0.00    +0.120 A 
ATOM     23  C   UNL     1      -2.374   0.102   0.019  0.00  0.00    +0.049 A 
ATOM     24  C   UNL     1      -3.596  -0.542   0.028  0.00  0.00    +0.049 A 
ATOM     25  C   UNL     1      -3.650  -1.928   0.026  0.00  0.00    +0.121 A 
ATOM     26  C   UNL     1      -2.477  -2.668   0.016  0.00  0.00    +0.049 A 
ATOM     27  C   UNL     1      -1.255  -2.024   0.003  0.00  0.00    +0.049 A 
BRANCH  22  29
ATOM     28  C   UNL     1      -0.017   1.425   0.010  0.00  0.00    +0.277 C 
ATOM     29  O   UNL     1       0.002  -0.004   0.002  0.00  0.00    -0.495 OA
ENDBRANCH  22  29
ENDBRANCH  21  25
ENDBRANCH  20  21
ENDBRANCH   1  20
TORSDOF 5
