REMARK  Name = ZINC48597555
REMARK  2 active torsions:
REMARK  status: ('A' for Active; 'I' for Inactive)
REMARK    1  A    between atoms: C_5  and  N_8
REMARK    2  A    between atoms: C_9  and  C_11
REMARK                            x       y       z     vdW  Elec       q    Type
REMARK                         _______ _______ _______ _____ _____    ______ ____
ROOT
ATOM      1  N   UNL     1      -1.260  -2.104  -0.004  0.00  0.00    -0.277 N 
ATOM      2  C   UNL     1      -0.110  -2.798  -0.115  0.00  0.00    +0.255 C 
ATOM      3  O   UNL     1       0.957  -2.212  -0.117  0.00  0.00    -0.269 OA
ATOM      4  H   UNL     1      -2.105  -2.574   0.070  0.00  0.00    +0.155 HD
ENDROOT
BRANCH   2   5
ATOM      5  C   UNL     1      -0.144  -4.258  -0.234  0.00  0.00    +0.075 A 
ATOM      6  C   UNL     1       0.906  -5.148  -0.350  0.00  0.00    +0.024 A 
ATOM      7  C   UNL     1       0.582  -6.498  -0.449  0.00  0.00    -0.036 A 
ATOM      8  C   UNL     1      -0.741  -6.807  -0.423  0.00  0.00    -0.006 A 
ATOM      9  S   UNL     1      -1.550  -5.352  -0.257  0.00  0.00    -0.088 S 
ATOM     10  C   UNL     1      -1.369  -8.166  -0.518  0.00  0.00    +0.043 C 
ATOM     11  C   UNL     1      -0.404  -9.216   0.044  0.00  0.00    +0.005 C 
ATOM     12  C   UNL     1       0.491  -9.710  -1.088  0.00  0.00    +0.001 C 
ATOM     13  C   UNL     1       1.306  -8.558  -1.669  0.00  0.00    +0.005 C 
ATOM     14  C   UNL     1       1.671  -7.558  -0.577  0.00  0.00    +0.036 C 
ENDBRANCH   2   5
BRANCH   1  19
ATOM     15  C   UNL     1      -0.673   1.426  -1.040  0.00  0.00    +0.070 A 
ATOM     16  C   UNL     1      -1.194   2.054   0.038  0.00  0.00    +0.086 A 
ATOM     17  N   UNL     1      -1.719   1.347   1.067  0.00  0.00    -0.365 N 
ATOM     18  C   UNL     1      -1.741  -0.011   1.056  0.00  0.00    +0.110 A 
ATOM     19  C   UNL     1      -1.234  -0.701   0.004  0.00  0.00    +0.097 A 
ATOM     20  C   UNL     1      -0.678   0.015  -1.088  0.00  0.00    +0.203 A 
ATOM     21  O   UNL     1      -0.218  -0.579  -2.053  0.00  0.00    -0.286 OA
ATOM     22  H   UNL     1      -2.086   1.821   1.829  0.00  0.00    +0.165 HD
ENDBRANCH   1  19
TORSDOF 2
