REMARK  Name = ZINC16735050
REMARK  7 active torsions:
REMARK  status: ('A' for Active; 'I' for Inactive)
REMARK    1  A    between atoms: C_1  and  O_2
REMARK    2  A    between atoms: O_2  and  C_3
REMARK    3  A    between atoms: C_6  and  N_9
REMARK    4  A    between atoms: N_12  and  C_15
REMARK    5  A    between atoms: C_16  and  C_26
REMARK    6  A    between atoms: N_30  and  C_34
REMARK    7  A    between atoms: C_34  and  C_35
REMARK                            x       y       z     vdW  Elec       q    Type
REMARK                         _______ _______ _______ _____ _____    ______ ____
ROOT
ATOM      1  C   UNL     1       2.989   5.291  -0.057  0.00  0.00    +0.136 A 
ATOM      2  C   UNL     1       2.806   3.897   0.102  0.00  0.00    +0.081 A 
ATOM      3  C   UNL     1       3.937   3.054  -0.010  0.00  0.00    +0.267 A 
ATOM      4  O   UNL     1       3.825   1.847   0.116  0.00  0.00    -0.267 OA
ATOM      5  N   UNL     1       5.143   3.610  -0.259  0.00  0.00    -0.268 N 
ATOM      6  C   UNL     1       6.238   2.806  -0.369  0.00  0.00    +0.096 A 
ATOM      7  C   UNL     1       7.459   3.330  -0.617  0.00  0.00    +0.018 A 
ATOM      8  C   UNL     1       7.613   4.715  -0.766  0.00  0.00    +0.005 A 
ATOM      9  C   UNL     1       6.524   5.528  -0.659  0.00  0.00    +0.047 A 
ATOM     10  C   UNL     1       5.261   4.965  -0.400  0.00  0.00    +0.142 A 
ATOM     11  N   UNL     1       4.202   5.768  -0.296  0.00  0.00    -0.214 NA
ENDROOT
BRANCH   2  12
ATOM     12  C   UNL     1       1.524   3.360   0.362  0.00  0.00    +0.037 C 
ATOM     13  C   UNL     1       0.807   3.793   1.440  0.00  0.00    +0.077 C 
ATOM     14  C   UNL     1      -0.526   3.477   1.828  0.00  0.00    +0.259 C 
ATOM     15  O   UNL     1      -1.206   2.712   1.166  0.00  0.00    -0.269 OA
ATOM     16  N   UNL     1      -1.003   4.031   2.929  0.00  0.00    -0.252 N 
ATOM     17  C   UNL     1      -0.246   4.875   3.665  0.00  0.00    +0.121 C 
ATOM     18  S   UNL     1      -0.653   5.699   5.109  0.00  0.00    -0.027 S 
ATOM     19  S   UNL     1       1.287   4.912   2.748  0.00  0.00    -0.061 S 
BRANCH  16  20
ATOM     20  C   UNL     1      -2.370   3.728   3.356  0.00  0.00    +0.141 C 
BRANCH  20  21
ATOM     21  C   UNL     1      -2.357   2.525   4.265  0.00  0.00    -0.015 C 
ATOM     22  C   UNL     1      -2.891   2.601   5.459  0.00  0.00    +0.005 C 
ENDBRANCH  20  21
ENDBRANCH  16  20
ENDBRANCH   2  12
BRANCH   1  26
ATOM     23  N   UNL     1       0.175   8.219  -0.852  0.00  0.00    -0.327 N 
ATOM     24  C   UNL     1       1.142   8.463   0.228  0.00  0.00    +0.124 C 
ATOM     25  C   UNL     1       2.355   7.549   0.040  0.00  0.00    +0.125 C 
ATOM     26  N   UNL     1       1.913   6.147   0.039  0.00  0.00    -0.312 N 
ATOM     27  C   UNL     1       0.947   5.903  -1.040  0.00  0.00    +0.125 C 
ATOM     28  C   UNL     1      -0.266   6.817  -0.852  0.00  0.00    +0.124 C 
BRANCH  23  32
ATOM     29  C   UNL     1      -3.077  10.809  -0.560  0.00  0.00    +0.120 A 
ATOM     30  C   UNL     1      -3.023   9.878  -1.586  0.00  0.00    +0.047 A 
ATOM     31  C   UNL     1      -1.946   9.019  -1.683  0.00  0.00    +0.027 A 
ATOM     32  C   UNL     1      -0.917   9.088  -0.754  0.00  0.00    +0.030 A 
ATOM     33  C   UNL     1      -0.975  10.017   0.277  0.00  0.00    +0.027 A 
ATOM     34  C   UNL     1      -2.050  10.880   0.369  0.00  0.00    +0.047 A 
BRANCH  29  36
ATOM     35  C   UNL     1      -4.129  12.589   0.617  0.00  0.00    +0.277 C 
ATOM     36  O   UNL     1      -4.138  11.655  -0.465  0.00  0.00    -0.495 OA
ENDBRANCH  29  36
ENDBRANCH  23  32
ENDBRANCH   1  26
TORSDOF 6
