REMARK  Name = ZINC01179676
REMARK  6 active torsions:
REMARK  status: ('A' for Active; 'I' for Inactive)
REMARK    1  A    between atoms: C_1  and  C_2
REMARK    2  A    between atoms: C_3  and  C_11
REMARK    3  A    between atoms: C_7  and  N_8
REMARK    4  A    between atoms: N_13  and  C_14
REMARK    5  A    between atoms: C_14  and  N_16
REMARK    6  A    between atoms: N_16  and  C_17
REMARK                            x       y       z     vdW  Elec       q    Type
REMARK                         _______ _______ _______ _____ _____    ______ ____
ROOT
ATOM      1  C   UNL     1       3.458  10.051   0.480  0.00  0.00    +0.250 C 
ATOM      2  O   UNL     1       4.538   9.495   0.484  0.00  0.00    -0.270 OA
ATOM      3  N   UNL     1       2.325   9.323   0.441  0.00  0.00    -0.264 N 
ATOM      4  H   UNL     1       1.462   9.767   0.438  0.00  0.00    +0.157 HD
ENDROOT
BRANCH   1   7
ATOM      5  C   UNL     1       5.879  11.591   0.852  0.00  0.00    +0.047 C 
ATOM      6  C   UNL     1       4.548  12.281   0.697  0.00  0.00    -0.008 A 
ATOM      7  C   UNL     1       3.386  11.527   0.518  0.00  0.00    +0.042 A 
ATOM      8  C   UNL     1       2.157  12.173   0.381  0.00  0.00    +0.013 A 
ATOM      9  C   UNL     1       2.097  13.551   0.417  0.00  0.00    +0.003 A 
ATOM     10  C   UNL     1       3.253  14.292   0.588  0.00  0.00    +0.033 A 
ATOM     11  C   UNL     1       4.475  13.658   0.725  0.00  0.00    +0.130 A 
BRANCH  11  12
ATOM     12  N   UNL     1       5.706  14.459   0.908  0.00  0.00    +0.057 N 
ATOM     13  O   UNL     1       5.631  15.664   1.064  0.00  0.00    -0.126 OA
ATOM     14  O   UNL     1       6.795  13.912   0.901  0.00  0.00    -0.126 OA
ENDBRANCH  11  12
ENDBRANCH   1   7
BRANCH   3  15
ATOM     15  C   UNL     1       2.390   7.977   0.406  0.00  0.00    +0.141 C 
ATOM     16  S   UNL     1       3.912   7.193   0.412  0.00  0.00    -0.018 S 
BRANCH  15  17
ATOM     17  N   UNL     1       1.256   7.248   0.367  0.00  0.00    -0.297 N 
ATOM     18  H   UNL     1       0.396   7.692   0.315  0.00  0.00    +0.154 HD
BRANCH  17  19
ATOM     19  C   UNL     1       1.322   5.852   0.403  0.00  0.00    +0.033 A 
ATOM     20  C   UNL     1       2.321   5.186  -0.316  0.00  0.00    +0.024 A 
ATOM     21  C   UNL     1       2.409   3.830  -0.299  0.00  0.00    +0.010 A 
ATOM     22  C   UNL     1       1.486   3.078   0.449  0.00  0.00    -0.018 A 
ATOM     23  C   UNL     1       1.552   1.674   0.484  0.00  0.00    +0.008 A 
ATOM     24  C   UNL     1       0.643   0.975   1.217  0.00  0.00    +0.001 A 
ATOM     25  C   UNL     1      -0.358   1.629   1.932  0.00  0.00    +0.001 A 
ATOM     26  C   UNL     1      -0.450   2.987   1.926  0.00  0.00    +0.008 A 
ATOM     27  C   UNL     1       0.470   3.743   1.180  0.00  0.00    -0.016 A 
ATOM     28  C   UNL     1       0.402   5.146   1.146  0.00  0.00    +0.031 A 
ENDBRANCH  17  19
ENDBRANCH  15  17
ENDBRANCH   3  15
TORSDOF 5
