REMARK  Name = ZINC16677679
REMARK  6 active torsions:
REMARK  status: ('A' for Active; 'I' for Inactive)
REMARK    1  A    between atoms: C_1  and  O_2
REMARK    2  A    between atoms: O_2  and  C_3
REMARK    3  A    between atoms: C_6  and  C_10
REMARK    4  A    between atoms: C_7  and  O_9
REMARK    5  A    between atoms: N_11  and  N_12
REMARK    6  A    between atoms: C_13  and  C_15
REMARK                            x       y       z     vdW  Elec       q    Type
REMARK                         _______ _______ _______ _____ _____    ______ ____
ROOT
ATOM      1  N   UNL     1      -7.416   0.039   0.549  0.00  0.00    -0.204 N 
ATOM      2  C   UNL     1      -6.205  -0.258   1.061  0.00  0.00    +0.276 C 
ATOM      3  O   UNL     1      -5.953  -1.395   1.403  0.00  0.00    -0.270 OA
ATOM      4  H   UNL     1      -7.617   0.948   0.276  0.00  0.00    +0.177 HD
ENDROOT
BRANCH   2   5
ATOM      5  C   UNL     1      -5.164   0.821   1.210  0.00  0.00    +0.297 C 
ATOM      6  C   UNL     1      -5.628   1.847   2.253  0.00  0.00    +0.283 C 
ATOM      7  O   UNL     1      -4.618   2.854   2.372  0.00  0.00    -0.484 OA
ATOM      8  C   UNL     1      -3.331   2.421   2.483  0.00  0.00    +0.163 A 
ATOM      9  C   UNL     1      -2.383   3.290   2.945  0.00  0.00    +0.058 A 
ATOM     10  C   UNL     1      -1.048   2.870   3.066  0.00  0.00    -0.014 A 
ATOM     11  C   UNL     1      -0.050   3.739   3.539  0.00  0.00    +0.008 A 
ATOM     12  C   UNL     1       1.234   3.300   3.638  0.00  0.00    +0.001 A 
ATOM     13  C   UNL     1       1.577   1.998   3.278  0.00  0.00    +0.001 A 
ATOM     14  C   UNL     1       0.638   1.129   2.816  0.00  0.00    +0.008 A 
ATOM     15  C   UNL     1      -0.699   1.546   2.699  0.00  0.00    -0.014 A 
ATOM     16  C   UNL     1      -1.695   0.676   2.226  0.00  0.00    +0.058 A 
ATOM     17  C   UNL     1      -2.986   1.111   2.122  0.00  0.00    +0.164 A 
ATOM     18  O   UNL     1      -3.934   0.247   1.663  0.00  0.00    -0.472 OA
ENDBRANCH   2   5
BRANCH   1  20
ATOM     19  C   UNL     1      -9.509  -0.704  -0.181  0.00  0.00    +0.142 C 
ATOM     20  N   UNL     1      -8.383  -0.965   0.411  0.00  0.00    -0.187 NA
BRANCH  19  24
ATOM     21  C   UNL     1      -9.986   2.928  -2.332  0.00  0.00    +0.124 A 
ATOM     22  C   UNL     1      -8.720   2.378  -2.167  0.00  0.00    +0.046 A 
ATOM     23  C   UNL     1      -8.560   1.203  -1.466  0.00  0.00    +0.016 A 
ATOM     24  C   UNL     1      -9.675   0.555  -0.927  0.00  0.00    +0.036 A 
ATOM     25  C   UNL     1     -10.951   1.111  -1.095  0.00  0.00    +0.129 A 
ATOM     26  C   UNL     1     -11.098   2.295  -1.797  0.00  0.00    +0.091 A 
BRANCH  21  28
ATOM     27  C   UNL     1      -8.948   4.689  -3.545  0.00  0.00    +0.277 C 
ATOM     28  O   UNL     1     -10.134   4.089  -3.020  0.00  0.00    -0.495 OA
ENDBRANCH  21  28
BRANCH  25  29
ATOM     29  O   UNL     1     -12.039   0.491  -0.570  0.00  0.00    -0.506 OA
ATOM     30  H   UNL     1     -12.209   0.712   0.357  0.00  0.00    +0.292 HD
ENDBRANCH  25  29
ENDBRANCH  19  24
ENDBRANCH   1  20
TORSDOF 5
