REMARK  Name = ZINC32344990
REMARK  8 active torsions:
REMARK  status: ('A' for Active; 'I' for Inactive)
REMARK    1  A    between atoms: C_1  and  C_2
REMARK    2  A    between atoms: C_6  and  C_8
REMARK    3  A    between atoms: N_10  and  C_11
REMARK    4  A    between atoms: C_16  and  C_17
REMARK    5  A    between atoms: N_19  and  C_20
REMARK    6  A    between atoms: C_20  and  C_21
REMARK    7  A    between atoms: C_21  and  C_23
REMARK    8  A    between atoms: C_21  and  N_24
REMARK                            x       y       z     vdW  Elec       q    Type
REMARK                         _______ _______ _______ _____ _____    ______ ____
ROOT
ATOM      1  C   UNL     1       1.101   8.383   0.328  0.00  0.00    +0.046 A 
ATOM      2  C   UNL     1       0.032   9.255   0.172  0.00  0.00    +0.024 A 
ATOM      3  C   UNL     1       0.247  10.534  -0.298  0.00  0.00    +0.002 A 
ATOM      4  C   UNL     1       1.525  10.955  -0.629  0.00  0.00    +0.001 A 
ATOM      5  C   UNL     1       2.597  10.101  -0.486  0.00  0.00    +0.015 A 
ATOM      6  C   UNL     1       2.397   8.805  -0.005  0.00  0.00    +0.058 A 
ENDROOT
BRANCH   1   9
ATOM      7  C   UNL     1      -0.215   6.412   0.441  0.00  0.00    +0.248 C 
ATOM      8  O   UNL     1      -1.065   6.952  -0.241  0.00  0.00    -0.270 OA
ATOM      9  N   UNL     1       0.888   7.093   0.808  0.00  0.00    -0.281 N 
ATOM     10  H   UNL     1       1.619   6.631   1.488  0.00  0.00    +0.155 HD
BRANCH   7  16
ATOM     11  C   UNL     1      -2.916   2.216   0.468  0.00  0.00    +0.044 C 
ATOM     12  C   UNL     1      -1.688   2.985   0.881  0.00  0.00    -0.050 A 
ATOM     13  C   UNL     1      -0.721   2.375   1.661  0.00  0.00    +0.003 A 
ATOM     14  C   UNL     1       0.412   3.072   2.041  0.00  0.00    +0.001 A 
ATOM     15  C   UNL     1       0.582   4.384   1.648  0.00  0.00    +0.013 A 
ATOM     16  C   UNL     1      -0.391   5.007   0.866  0.00  0.00    +0.037 A 
ATOM     17  C   UNL     1      -1.532   4.298   0.486  0.00  0.00    +0.016 A 
ENDBRANCH   7  16
ENDBRANCH   1   9
BRANCH   6  18
ATOM     18  C   UNL     1       3.540   7.886   0.149  0.00  0.00    +0.246 C 
ATOM     19  O   UNL     1       3.350   6.728   0.469  0.00  0.00    -0.270 OA
ATOM     20  N   UNL     1       4.795   8.329  -0.064  0.00  0.00    -0.313 N 
ATOM     21  H   UNL     1       4.966   9.376  -0.353  0.00  0.00    +0.149 HD
BRANCH  20  22
ATOM     22  C   UNL     1       5.930   7.416   0.090  0.00  0.00    +0.089 C 
BRANCH  22  23
ATOM     23  C   UNL     1       7.231   8.165  -0.207  0.00  0.00    -0.054 C 
ATOM     24  C   UNL     1       8.404   7.184  -0.169  0.00  0.00    -0.012 C 
BRANCH  23  25
ATOM     25  N   UNL     1       7.149   8.779  -1.539  0.00  0.00    +0.382 N 
ATOM     26  C   UNL     1       6.862   7.761  -2.575  0.00  0.00    -0.078 C 
ATOM     27  C   UNL     1       7.037   8.288  -3.974  0.00  0.00    -0.019 C 
ATOM     28  C   UNL     1       8.469   7.960  -4.445  0.00  0.00    -0.002 C 
ATOM     29  C   UNL     1       9.456   8.880  -3.890  0.00  0.00    -0.002 C 
ATOM     30  C   UNL     1       9.499   8.828  -2.349  0.00  0.00    -0.019 C 
ATOM     31  C   UNL     1       8.338   9.618  -1.811  0.00  0.00    -0.078 C 
ATOM     32  H   UNL     1       6.292   9.469  -1.561  0.00  0.00    -0.081 HD
ENDBRANCH  23  25
ENDBRANCH  22  23
ENDBRANCH  20  22
ENDBRANCH   6  18
TORSDOF 6
