REMARK  Name = ZINC01980447
REMARK  6 active torsions:
REMARK  status: ('A' for Active; 'I' for Inactive)
REMARK    1  A    between atoms: C_1  and  C_2
REMARK    2  A    between atoms: C_5  and  N_8
REMARK    3  A    between atoms: C_9  and  C_11
REMARK    4  A    between atoms: C_11  and  C_13
REMARK    5  A    between atoms: C_11  and  N_14
REMARK    6  A    between atoms: C_25  and  C_29
REMARK                            x       y       z     vdW  Elec       q    Type
REMARK                         _______ _______ _______ _____ _____    ______ ____
ROOT
ATOM      1  N   UNL     1       0.580  -0.210   1.374  0.00  0.00    -0.287 N 
ATOM      2  C   UNL     1       0.050   0.281   2.523  0.00  0.00    +0.204 A 
ATOM      3  N   UNL     1       0.584   0.009   3.684  0.00  0.00    -0.230 NA
ATOM      4  C   UNL     1       1.671  -0.752   3.775  0.00  0.00    +0.116 A 
ATOM      5  C   UNL     1       2.293  -1.300   2.642  0.00  0.00    +0.076 A 
ATOM      6  C   UNL     1       1.680  -0.986   1.385  0.00  0.00    +0.263 A 
ATOM      7  O   UNL     1       2.146  -1.416   0.344  0.00  0.00    -0.267 OA
ATOM      8  C   UNL     1       3.482  -2.114   2.895  0.00  0.00    -0.023 A 
ATOM      9  C   UNL     1       3.861  -2.260   4.182  0.00  0.00    -0.004 A 
ATOM     10  S   UNL     1       2.675  -1.333   5.118  0.00  0.00    -0.073 S 
ATOM     11  C   UNL     1       5.032  -3.038   4.700  0.00  0.00    +0.046 C 
ATOM     12  C   UNL     1       5.537  -3.958   3.579  0.00  0.00    -0.009 C 
ATOM     13  C   UNL     1       5.662  -3.140   2.290  0.00  0.00    +0.008 C 
ATOM     14  C   UNL     1       4.271  -2.776   1.769  0.00  0.00    +0.037 C 
ATOM     15  C   UNL     1       6.904  -4.532   3.958  0.00  0.00    +0.008 C 
ENDROOT
BRANCH   1  16
ATOM     16  C   UNL     1      -0.055   0.116   0.094  0.00  0.00    +0.174 C 
ATOM     17  C   UNL     1      -0.058   1.633  -0.101  0.00  0.00    +0.041 C 
BRANCH  16  19
ATOM     18  N   UNL     1      -2.256  -0.206  -0.988  0.00  0.00    -0.284 N 
ATOM     19  C   UNL     1      -1.473  -0.394   0.093  0.00  0.00    +0.240 C 
ATOM     20  O   UNL     1      -1.911  -0.972   1.065  0.00  0.00    -0.273 OA
ATOM     21  H   UNL     1      -1.933   0.322  -1.735  0.00  0.00    +0.155 HD
BRANCH  18  26
ATOM     22  C   UNL     1      -7.438  -2.506  -1.173  0.00  0.00    +0.044 C 
ATOM     23  C   UNL     1      -6.061  -1.895  -1.124  0.00  0.00    -0.050 A 
ATOM     24  C   UNL     1      -5.824  -0.679  -1.738  0.00  0.00    +0.005 A 
ATOM     25  C   UNL     1      -4.564  -0.116  -1.694  0.00  0.00    +0.023 A 
ATOM     26  C   UNL     1      -3.534  -0.773  -1.034  0.00  0.00    +0.033 A 
ATOM     27  C   UNL     1      -3.774  -1.998  -0.424  0.00  0.00    +0.023 A 
ATOM     28  C   UNL     1      -5.038  -2.552  -0.465  0.00  0.00    +0.005 A 
ENDBRANCH  18  26
ENDBRANCH  16  19
ENDBRANCH   1  16
TORSDOF 3
