REMARK  Name = ZINC61881985
REMARK  5 active torsions:
REMARK  status: ('A' for Active; 'I' for Inactive)
REMARK    1  A    between atoms: C_4  and  S_9
REMARK    2  A    between atoms: C_6  and  N_7
REMARK    3  A    between atoms: S_9  and  N_12
REMARK    4  A    between atoms: N_12  and  C_13
REMARK    5  A    between atoms: C_13  and  C_14
REMARK                            x       y       z     vdW  Elec       q    Type
REMARK                         _______ _______ _______ _____ _____    ______ ____
ROOT
ATOM      1  S   UNL     1       4.048  -0.922  -0.092  0.00  0.00    +0.060 S 
ATOM      2  O   UNL     1       4.174  -2.022  -0.983  0.00  0.00    -0.153 OA
ATOM      3  O   UNL     1       4.935   0.188  -0.123  0.00  0.00    -0.153 OA
ENDROOT
BRANCH   1   7
ATOM      4  C   UNL     1      -0.130   0.735  -0.674  0.00  0.00    +0.044 A 
ATOM      5  C   UNL     1       0.307  -0.329  -1.441  0.00  0.00    +0.045 A 
ATOM      6  C   UNL     1       1.583  -0.833  -1.262  0.00  0.00    +0.049 A 
ATOM      7  C   UNL     1       2.425  -0.275  -0.316  0.00  0.00    +0.122 A 
ATOM      8  C   UNL     1       1.993   0.788   0.453  0.00  0.00    +0.065 A 
ATOM      9  C   UNL     1       0.712   1.298   0.276  0.00  0.00    +0.042 A 
ATOM     10 BR   UNL     1       3.143   1.549   1.746  0.00  0.00    -0.046 Br
ATOM     11 CL   UNL     1      -0.745  -1.033  -2.628  0.00  0.00    -0.083 Cl
BRANCH   9  12
ATOM     12  N   UNL     1       0.273   2.373   1.052  0.00  0.00    -0.357 N 
ATOM     13  H   UNL     1      -0.622   2.728   0.927  0.00  0.00    +0.142 HD
ATOM     14  H   UNL     1       0.862   2.765   1.715  0.00  0.00    +0.142 HD
ENDBRANCH   9  12
ENDBRANCH   1   7
BRANCH   1  15
ATOM     15  N   UNL     1       4.121  -1.543   1.441  0.00  0.00    -0.183 NA
ATOM     16  H   UNL     1       4.727  -1.157   2.093  0.00  0.00    +0.148 HD
BRANCH  15  17
ATOM     17  C   UNL     1       3.270  -2.676   1.813  0.00  0.00    +0.183 C 
BRANCH  17  18
ATOM     18  C   UNL     1       3.788  -3.296   3.085  0.00  0.00    +0.166 A 
ATOM     19  N   UNL     1       3.424  -2.951   4.319  0.00  0.00    -0.218 NA
ATOM     20  H   UNL     1       5.456  -5.199   4.901  0.00  0.00    +0.190 HD
ATOM     21  C   UNL     1       4.063  -3.687   5.193  0.00  0.00    +0.216 A 
ATOM     22  N   UNL     1       4.862  -4.533   4.520  0.00  0.00    -0.265 N 
ATOM     23  N   UNL     1       4.663  -4.265   3.156  0.00  0.00    -0.156 NA
ENDBRANCH  17  18
ENDBRANCH  15  17
ENDBRANCH   1  15
TORSDOF 5
