REMARK  Name = ZINC34695633
REMARK  11 active torsions:
REMARK  status: ('A' for Active; 'I' for Inactive)
REMARK    1  A    between atoms: C_1  and  C_2
REMARK    2  A    between atoms: C_2  and  C_3
REMARK    3  A    between atoms: C_2  and  N_4
REMARK    4  A    between atoms: N_4  and  C_5
REMARK    5  A    between atoms: C_5  and  C_6
REMARK    6  A    between atoms: C_11  and  C_14
REMARK    7  A    between atoms: C_14  and  C_15
REMARK    8  A    between atoms: C_19  and  C_28
REMARK    9  A    between atoms: C_24  and  C_26
REMARK   10  A    between atoms: C_24  and  C_27
REMARK   11  A    between atoms: C_29  and  C_31
REMARK                            x       y       z     vdW  Elec       q    Type
REMARK                         _______ _______ _______ _____ _____    ______ ____
ROOT
ATOM      1  C   UNL     1      -2.412  -1.670   2.066  0.00  0.00    +0.236 C 
ATOM      2  O   UNL     1      -1.501  -1.499   2.847  0.00  0.00    -0.274 OA
ATOM      3  N   UNL     1      -3.359  -2.593   2.326  0.00  0.00    -0.263 N 
ATOM      4  C   UNL     1      -3.290  -3.350   3.490  0.00  0.00    +0.165 A 
ATOM      5  N   UNL     1      -4.112  -4.290   3.903  0.00  0.00    -0.229 NA
ATOM      6  C   UNL     1      -3.907  -4.923   5.044  0.00  0.00    +0.059 A 
ATOM      7  C   UNL     1      -2.817  -4.559   5.763  0.00  0.00    +0.072 A 
ATOM      8  S   UNL     1      -2.132  -3.291   4.709  0.00  0.00    -0.060 S 
ATOM      9  H   UNL     1      -4.088  -2.730   1.701  0.00  0.00    +0.157 HD
ENDROOT
BRANCH   1  10
ATOM     10  C   UNL     1      -2.487  -0.850   0.804  0.00  0.00    +0.204 C 
BRANCH  10  11
ATOM     11  N   UNL     1      -1.351   0.075   0.755  0.00  0.00    -0.286 N 
ATOM     12  C   UNL     1      -1.461   1.306   1.293  0.00  0.00    +0.247 C 
ATOM     13  O   UNL     1      -2.517   1.905   1.230  0.00  0.00    -0.270 OA
BRANCH  12  14
ATOM     14  C   UNL     1      -0.298   1.927   1.960  0.00  0.00    +0.037 A 
ATOM     15  C   UNL     1       0.998   1.608   1.550  0.00  0.00    +0.014 A 
ATOM     16  C   UNL     1       2.080   2.191   2.175  0.00  0.00    +0.021 A 
ATOM     17  C   UNL     1       1.883   3.092   3.208  0.00  0.00    +0.041 A 
ATOM     18  C   UNL     1       0.600   3.413   3.619  0.00  0.00    +0.021 A 
ATOM     19  C   UNL     1      -0.490   2.841   2.998  0.00  0.00    +0.014 A 
ATOM     20 CL   UNL     1       3.250   3.822   3.992  0.00  0.00    -0.084 Cl
ENDBRANCH  12  14
BRANCH  11  22
ATOM     21  C   UNL     1       0.463   0.822  -0.705  0.00  0.00    +0.028 C 
ATOM     22  C   UNL     1      -0.097  -0.338   0.121  0.00  0.00    +0.071 C 
ATOM     23  C   UNL     1       0.914  -0.732   1.200  0.00  0.00    +0.028 C 
ENDBRANCH  11  22
ENDBRANCH  10  11
ENDBRANCH   1  10
BRANCH   6  24
ATOM     24  C   UNL     1      -4.844  -6.001   5.525  0.00  0.00    +0.152 C 
BRANCH  24  25
ATOM     25  C   UNL     1      -6.249  -5.459   5.577  0.00  0.00    +0.222 C 
ATOM     26  O   UNL     1      -6.469  -4.311   5.254  0.00  0.00    -0.275 OA
ATOM     27  N   UNL     1      -7.262  -6.251   5.981  0.00  0.00    -0.298 N 
ATOM     28  C   UNL     1      -7.144  -7.660   6.387  0.00  0.00    +0.114 C 
ATOM     29  C   UNL     1      -8.561  -8.113   6.809  0.00  0.00    -0.014 C 
ATOM     30  C   UNL     1      -9.469  -7.189   5.953  0.00  0.00    +0.030 C 
ATOM     31  C   UNL     1      -8.683  -5.861   6.082  0.00  0.00    +0.077 C 
ATOM     32  C   UNL     1      -8.954  -5.307   7.478  0.00  0.00    +0.029 C 
ATOM     33  C   UNL     1      -8.631  -6.277   8.600  0.00  0.00    -0.033 C 
ATOM     34  C   UNL     1      -8.784  -7.750   8.275  0.00  0.00    +0.014 C 
ATOM     35  C   UNL     1      -7.214  -6.002   9.128  0.00  0.00    +0.011 C 
ATOM     36  C   UNL     1      -9.599  -5.962   9.768  0.00  0.00    +0.011 C 
ATOM     37  C   UNL     1      -8.806  -9.603   6.522  0.00  0.00    +0.013 C 
ENDBRANCH  24  25
ENDBRANCH   6  24
TORSDOF 6
