REMARK  Name = ZINC01980961
REMARK  5 active torsions:
REMARK  status: ('A' for Active; 'I' for Inactive)
REMARK    1  A    between atoms: C_1  and  C_2
REMARK    2  A    between atoms: N_13  and  C_16
REMARK    3  A    between atoms: C_16  and  C_18
REMARK    4  A    between atoms: C_16  and  C_19
REMARK    5  A    between atoms: N_21  and  C_22
REMARK                            x       y       z     vdW  Elec       q    Type
REMARK                         _______ _______ _______ _____ _____    ______ ____
ROOT
ATOM      1  C   UNL     1       7.847   2.050   0.269  0.00  0.00    +0.008 C 
ATOM      2  C   UNL     1       6.365   1.810   0.562  0.00  0.00    -0.009 C 
ATOM      3  C   UNL     1       5.511   2.698  -0.348  0.00  0.00    +0.008 C 
ATOM      4  C   UNL     1       4.051   2.652   0.103  0.00  0.00    +0.037 C 
ATOM      5  C   UNL     1       3.611   1.194   0.199  0.00  0.00    -0.023 A 
ATOM      6  C   UNL     1       4.524   0.203   0.278  0.00  0.00    -0.004 A 
ATOM      7  S   UNL     1       3.573  -1.291   0.371  0.00  0.00    -0.073 S 
ATOM      8  C   UNL     1       1.950  -0.577   0.303  0.00  0.00    +0.116 A 
ATOM      9  C   UNL     1       2.203   0.801   0.211  0.00  0.00    +0.076 A 
ATOM     10  C   UNL     1       1.044   1.641   0.139  0.00  0.00    +0.263 A 
ATOM     11  O   UNL     1       1.160   2.852   0.058  0.00  0.00    -0.267 OA
ATOM     12  N   UNL     1      -0.176   1.071   0.164  0.00  0.00    -0.287 N 
ATOM     13  C   UNL     1      -0.324  -0.276   0.256  0.00  0.00    +0.204 A 
ATOM     14  N   UNL     1       0.713  -1.067   0.323  0.00  0.00    -0.230 NA
ATOM     15  C   UNL     1       6.016   0.341   0.285  0.00  0.00    +0.046 C 
ENDROOT
BRANCH  12  16
ATOM     16  C   UNL     1      -1.367   1.920   0.085  0.00  0.00    +0.174 C 
ATOM     17  C   UNL     1      -2.222   1.717   1.338  0.00  0.00    +0.041 C 
BRANCH  16  18
ATOM     18  C   UNL     1      -2.168   1.549  -1.136  0.00  0.00    +0.240 C 
ATOM     19  O   UNL     1      -1.782   0.663  -1.868  0.00  0.00    -0.273 OA
ATOM     20  N   UNL     1      -3.313   2.203  -1.414  0.00  0.00    -0.284 N 
ATOM     21  H   UNL     1      -3.662   2.858  -0.790  0.00  0.00    +0.155 HD
BRANCH  20  22
ATOM     22  C   UNL     1      -4.000   1.935  -2.604  0.00  0.00    +0.034 A 
ATOM     23  C   UNL     1      -3.296   1.606  -3.755  0.00  0.00    +0.025 A 
ATOM     24  C   UNL     1      -3.976   1.338  -4.926  0.00  0.00    +0.022 A 
ATOM     25  C   UNL     1      -5.358   1.408  -4.957  0.00  0.00    +0.041 A 
ATOM     26  C   UNL     1      -6.062   1.741  -3.813  0.00  0.00    +0.022 A 
ATOM     27  C   UNL     1      -5.387   2.005  -2.638  0.00  0.00    +0.025 A 
ATOM     28 CL   UNL     1      -6.210   1.076  -6.433  0.00  0.00    -0.084 Cl
ENDBRANCH  20  22
ENDBRANCH  16  18
ENDBRANCH  12  16
TORSDOF 3
