REMARK  Name = ZINC23554875
REMARK  7 active torsions:
REMARK  status: ('A' for Active; 'I' for Inactive)
REMARK    1  A    between atoms: C_3  and  C_6
REMARK    2  A    between atoms: C_6  and  C_8
REMARK    3  A    between atoms: C_6  and  N_28
REMARK    4  A    between atoms: C_8  and  N_9
REMARK    5  A    between atoms: C_10  and  C_12
REMARK    6  A    between atoms: C_12  and  C_13
REMARK    7  A    between atoms: C_13  and  N_14
REMARK                            x       y       z     vdW  Elec       q    Type
REMARK                         _______ _______ _______ _____ _____    ______ ____
ROOT
ATOM      1  N   UNL     1      -2.767   1.447  -2.984  0.00  0.00    -0.316 N 
ATOM      2  C   UNL     1      -3.751   1.838  -3.817  0.00  0.00    +0.215 C 
ATOM      3  O   UNL     1      -3.490   2.155  -4.958  0.00  0.00    -0.276 OA
ATOM      4  H   UNL     1      -3.004   1.160  -1.949  0.00  0.00    +0.149 HD
ENDROOT
BRANCH   1   5
ATOM      5  C   UNL     1      -1.381   1.404  -3.457  0.00  0.00    +0.094 C 
BRANCH   5   6
ATOM      6  C   UNL     1      -0.488   0.807  -2.367  0.00  0.00    -0.013 C 
BRANCH   6   7
ATOM      7  N   UNL     1       0.915   0.866  -2.797  0.00  0.00    +0.386 N 
ATOM      8  C   UNL     1       1.821   0.373  -1.728  0.00  0.00    -0.078 C 
ATOM      9  C   UNL     1       3.200   0.974  -2.074  0.00  0.00    -0.020 C 
ATOM     10  C   UNL     1       2.886   2.224  -2.927  0.00  0.00    -0.020 C 
ATOM     11  C   UNL     1       1.346   2.270  -3.022  0.00  0.00    -0.078 C 
ATOM     12  H   UNL     1       0.964   0.255  -3.711  0.00  0.00    -0.081 HD
ENDBRANCH   6   7
BRANCH   6  15
ATOM     13  C   UNL     1      -1.881  -2.510  -1.116  0.00  0.00    +0.008 A 
ATOM     14  C   UNL     1      -1.650  -1.148  -1.139  0.00  0.00    +0.009 A 
ATOM     15  C   UNL     1      -0.881  -0.627  -2.126  0.00  0.00    -0.022 A 
ATOM     16  S   UNL     1      -0.459  -2.082  -3.071  0.00  0.00    -0.103 S 
ATOM     17  C   UNL     1      -1.330  -3.286  -2.082  0.00  0.00    +0.045 A 
ENDBRANCH   6  15
ENDBRANCH   5   6
ENDBRANCH   1   5
BRANCH   2  18
ATOM     18  C   UNL     1      -5.177   1.882  -3.330  0.00  0.00    +0.117 C 
BRANCH  18  19
ATOM     19  C   UNL     1      -6.088   2.356  -4.464  0.00  0.00    +0.135 C 
BRANCH  19  20
ATOM     20  N   UNL     1      -7.474   2.399  -3.991  0.00  0.00    -0.298 N 
ATOM     21  C   UNL     1      -8.258   1.298  -4.128  0.00  0.00    +0.203 A 
ATOM     22  N   UNL     1      -9.497   1.295  -3.715  0.00  0.00    -0.230 NA
ATOM     23  C   UNL     1     -10.034   2.376  -3.155  0.00  0.00    +0.116 A 
ATOM     24  C   UNL     1      -9.304   3.562  -2.977  0.00  0.00    +0.076 A 
ATOM     25  C   UNL     1      -7.946   3.530  -3.436  0.00  0.00    +0.262 A 
ATOM     26  O   UNL     1      -7.231   4.511  -3.324  0.00  0.00    -0.267 OA
ATOM     27  C   UNL     1     -10.024   4.668  -2.348  0.00  0.00    -0.023 A 
ATOM     28  C   UNL     1     -11.310   4.445  -2.003  0.00  0.00    -0.004 A 
ATOM     29  S   UNL     1     -11.631   2.771  -2.489  0.00  0.00    -0.073 S 
ATOM     30  C   UNL     1     -12.255   5.407  -1.351  0.00  0.00    +0.043 C 
ATOM     31  C   UNL     1     -11.440   6.580  -0.788  0.00  0.00    +0.005 C 
ATOM     32  C   UNL     1     -10.468   7.065  -1.867  0.00  0.00    +0.005 C 
ATOM     33  C   UNL     1      -9.371   6.023  -2.085  0.00  0.00    +0.037 C 
ENDBRANCH  19  20
ENDBRANCH  18  19
ENDBRANCH   2  18
TORSDOF 7
