REMARK  Name = ZINC13085753
REMARK  8 active torsions:
REMARK  status: ('A' for Active; 'I' for Inactive)
REMARK    1  A    between atoms: C_1  and  C_2
REMARK    2  A    between atoms: C_9  and  C_11
REMARK    3  A    between atoms: C_11  and  S_12
REMARK    4  A    between atoms: S_12  and  C_13
REMARK    5  A    between atoms: N_24  and  C_25
REMARK    6  A    between atoms: C_25  and  C_26
REMARK    7  A    between atoms: C_29  and  C_37
REMARK    8  A    between atoms: C_34  and  C_36
REMARK                            x       y       z     vdW  Elec       q    Type
REMARK                         _______ _______ _______ _____ _____    ______ ____
ROOT
ATOM      1  C   UNL     1       8.203  -1.341  -1.532  0.00  0.00    +0.198 A 
ATOM      2  N   UNL     1       8.254  -0.031  -1.511  0.00  0.00    -0.120 NA
ATOM      3  N   UNL     1       9.597   0.349  -1.386  0.00  0.00    -0.109 NA
ATOM      4  C   UNL     1      10.325  -0.743  -1.343  0.00  0.00    +0.238 A 
ATOM      5  N   UNL     1       9.483  -1.816  -1.433  0.00  0.00    -0.254 N 
ATOM      6  C   UNL     1      10.252  -2.981  -1.388  0.00  0.00    +0.075 A 
ATOM      7  C   UNL     1       9.920  -4.327  -1.439  0.00  0.00    +0.028 A 
ATOM      8  C   UNL     1      10.913  -5.284  -1.373  0.00  0.00    +0.002 A 
ATOM      9  C   UNL     1      12.240  -4.906  -1.255  0.00  0.00    +0.002 A 
ATOM     10  C   UNL     1      12.580  -3.570  -1.203  0.00  0.00    +0.028 A 
ATOM     11  C   UNL     1      11.588  -2.600  -1.269  0.00  0.00    +0.069 A 
ATOM     12  N   UNL     1      11.625  -1.209  -1.242  0.00  0.00    -0.299 N 
ENDROOT
BRANCH   1  13
ATOM     13  S   UNL     1       6.744  -2.318  -1.672  0.00  0.00    -0.076 S 
BRANCH  13  14
ATOM     14  C   UNL     1       5.405  -1.097  -1.763  0.00  0.00    +0.173 C 
BRANCH  14  22
ATOM     15  C   UNL     1       1.831  -3.271  -1.702  0.00  0.00    +0.028 C 
ATOM     16  C   UNL     1       1.636  -1.778  -1.970  0.00  0.00    +0.073 C 
ATOM     17  C   UNL     1       0.764  -1.168  -0.869  0.00  0.00    +0.022 C 
ATOM     18  C   UNL     1       0.685   0.348  -1.066  0.00  0.00    +0.003 C 
ATOM     19  C   UNL     1       2.087   0.952  -0.962  0.00  0.00    +0.019 C 
ATOM     20  C   UNL     1       2.974   0.366  -2.065  0.00  0.00    +0.108 C 
ATOM     21  N   UNL     1       2.940  -1.100  -1.971  0.00  0.00    -0.298 N 
ATOM     22  C   UNL     1       4.083  -1.810  -1.887  0.00  0.00    +0.226 C 
ATOM     23  O   UNL     1       4.047  -3.022  -1.911  0.00  0.00    -0.275 OA
ENDBRANCH  14  22
ENDBRANCH  13  14
ENDBRANCH   1  13
BRANCH  12  24
ATOM     24  C   UNL     1      12.829  -0.383  -1.125  0.00  0.00    +0.221 C 
BRANCH  24  25
ATOM     25  C   UNL     1      13.122  -0.124   0.330  0.00  0.00    +0.236 C 
ATOM     26  O   UNL     1      12.452  -0.659   1.188  0.00  0.00    -0.274 OA
ATOM     27  N   UNL     1      14.128   0.702   0.678  0.00  0.00    -0.294 N 
ATOM     28  C   UNL     1      14.355   1.053   2.087  0.00  0.00    +0.073 C 
ATOM     29  C   UNL     1      15.818   0.742   2.438  0.00  0.00    +0.022 C 
ATOM     30  C   UNL     1      16.738   1.468   1.453  0.00  0.00    +0.004 C 
ATOM     31  C   UNL     1      16.466   0.966   0.033  0.00  0.00    +0.022 C 
ATOM     32  C   UNL     1      15.014   1.275  -0.344  0.00  0.00    +0.073 C 
ATOM     33  C   UNL     1      14.812   2.790  -0.408  0.00  0.00    +0.028 C 
ATOM     34  C   UNL     1      13.425   0.226   2.978  0.00  0.00    +0.028 C 
ENDBRANCH  24  25
ENDBRANCH  12  24
TORSDOF 5
