REMARK  Name = ZINC18350812
REMARK  13 active torsions:
REMARK  status: ('A' for Active; 'I' for Inactive)
REMARK    1  A    between atoms: C_1  and  C_2
REMARK    2  A    between atoms: C_2  and  C_27
REMARK    3  A    between atoms: N_5  and  C_9
REMARK    4  A    between atoms: C_9  and  C_10
REMARK    5  A    between atoms: N_12  and  C_13
REMARK    6  A    between atoms: N_12  and  C_14
REMARK    7  A    between atoms: C_14  and  C_15
REMARK    8  A    between atoms: C_20  and  O_25
REMARK    9  A    between atoms: O_25  and  C_26
REMARK   10  A    between atoms: C_30  and  C_33
REMARK   11  A    between atoms: C_33  and  C_34
REMARK   12  A    between atoms: C_33  and  C_35
REMARK   13  A    between atoms: C_33  and  C_36
REMARK                            x       y       z     vdW  Elec       q    Type
REMARK                         _______ _______ _______ _____ _____    ______ ____
ROOT
ATOM      1  C   UNL     1       4.993  -7.326  -5.647  0.00  0.00    +0.047 C 
ATOM      2  C   UNL     1       4.723  -6.409  -4.452  0.00  0.00    +0.135 C 
ATOM      3  C   UNL     1       3.379  -6.726  -3.829  0.00  0.00    +0.251 C 
ATOM      4  O   UNL     1       3.034  -7.774  -3.325  0.00  0.00    -0.272 OA
ATOM      5  N   UNL     1       2.646  -5.602  -3.950  0.00  0.00    -0.215 N 
ATOM      6  C   UNL     1       3.333  -4.629  -4.561  0.00  0.00    +0.310 C 
ATOM      7  O   UNL     1       2.882  -3.524  -4.788  0.00  0.00    -0.252 OA
ATOM      8  N   UNL     1       4.579  -5.011  -4.894  0.00  0.00    -0.281 N 
ATOM      9  H   UNL     1       5.251  -4.472  -5.340  0.00  0.00    +0.152 HD
ENDROOT
BRANCH   2  10
ATOM     10  C   UNL     1       5.824  -6.531  -3.430  0.00  0.00    -0.015 A 
ATOM     11  C   UNL     1       5.697  -7.424  -2.382  0.00  0.00    +0.006 A 
ATOM     12  C   UNL     1       6.709  -7.540  -1.447  0.00  0.00    +0.004 A 
ATOM     13  C   UNL     1       7.842  -6.755  -1.554  0.00  0.00    -0.042 A 
ATOM     14  C   UNL     1       7.966  -5.859  -2.599  0.00  0.00    +0.004 A 
ATOM     15  C   UNL     1       6.957  -5.747  -3.537  0.00  0.00    +0.006 A 
BRANCH  13  16
ATOM     16  C   UNL     1       8.942  -6.877  -0.531  0.00  0.00    -0.013 C 
ATOM     17  C   UNL     1       9.147  -5.528   0.161  0.00  0.00    +0.015 C 
ATOM     18  C   UNL     1       8.557  -7.931   0.509  0.00  0.00    +0.015 C 
ATOM     19  C   UNL     1      10.240  -7.296  -1.225  0.00  0.00    +0.015 C 
ENDBRANCH  13  16
ENDBRANCH   2  10
BRANCH   5  20
ATOM     20  C   UNL     1       1.267  -5.463  -3.476  0.00  0.00    +0.213 C 
BRANCH  20  21
ATOM     21  C   UNL     1       1.272  -4.968  -2.053  0.00  0.00    +0.234 C 
ATOM     22  O   UNL     1       2.325  -4.753  -1.490  0.00  0.00    -0.274 OA
ATOM     23  N   UNL     1       0.107  -4.764  -1.406  0.00  0.00    -0.299 N 
ATOM     24  C   UNL     1      -1.163  -5.024  -2.087  0.00  0.00    +0.132 C 
BRANCH  23  25
ATOM     25  C   UNL     1       0.113  -4.284  -0.022  0.00  0.00    +0.142 C 
BRANCH  25  26
ATOM     26  C   UNL     1       0.089  -2.777  -0.014  0.00  0.00    -0.030 A 
ATOM     27  C   UNL     1      -1.134  -2.109   0.001  0.00  0.00    +0.006 A 
ATOM     28  C   UNL     1      -1.190  -0.749   0.009  0.00  0.00    +0.009 A 
ATOM     29  C   UNL     1       0.002  -0.004   0.002  0.00  0.00    -0.014 A 
ATOM     30  C   UNL     1      -0.017   1.400   0.010  0.00  0.00    +0.054 A 
ATOM     31  C   UNL     1       1.161   2.091   0.002  0.00  0.00    +0.121 A 
ATOM     32  C   UNL     1       2.387   1.419  -0.013  0.00  0.00    +0.046 A 
ATOM     33  C   UNL     1       2.439   0.060  -0.021  0.00  0.00    +0.012 A 
ATOM     34  C   UNL     1       1.246  -0.683  -0.013  0.00  0.00    -0.017 A 
ATOM     35  C   UNL     1       1.264  -2.088  -0.021  0.00  0.00    +0.013 A 
BRANCH  31  36
ATOM     36  O   UNL     1       1.141   3.450   0.009  0.00  0.00    -0.495 OA
ATOM     37  C   UNL     1       2.405   4.117   0.001  0.00  0.00    +0.277 C 
ENDBRANCH  31  36
ENDBRANCH  25  26
ENDBRANCH  23  25
ENDBRANCH  20  21
ENDBRANCH   5  20
TORSDOF 7
