REMARK  Name = ZINC15999151
REMARK  9 active torsions:
REMARK  status: ('A' for Active; 'I' for Inactive)
REMARK    1  A    between atoms: C_1  and  O_2
REMARK    2  A    between atoms: O_2  and  C_3
REMARK    3  A    between atoms: C_8  and  N_9
REMARK    4  A    between atoms: C_25  and  C_31
REMARK    5  A    between atoms: C_31  and  C_33
REMARK    6  A    between atoms: C_36  and  O_41
REMARK    7  A    between atoms: C_37  and  O_39
REMARK    8  A    between atoms: O_39  and  C_40
REMARK    9  A    between atoms: O_41  and  C_42
REMARK                            x       y       z     vdW  Elec       q    Type
REMARK                         _______ _______ _______ _____ _____    ______ ____
ROOT
ATOM      1  N   UNL     1      -3.039   7.010   1.881  0.00  0.00    -0.206 N 
ATOM      2  C   UNL     1      -2.164   6.412   1.009  0.00  0.00    +0.232 C 
ATOM      3  O   UNL     1      -1.200   6.914   0.472  0.00  0.00    -0.274 OA
ATOM      4  C   UNL     1      -2.639   5.057   0.869  0.00  0.00    +0.113 C 
ATOM      5  C   UNL     1      -2.545   3.897  -0.020  0.00  0.00    +0.100 C 
ATOM      6  C   UNL     1      -1.243   3.156   0.009  0.00  0.00    -0.021 A 
ATOM      7  C   UNL     1      -0.048   3.847   0.007  0.00  0.00    +0.006 A 
ATOM      8  C   UNL     1       1.155   3.165   0.006  0.00  0.00    +0.000 A 
ATOM      9  C   UNL     1       1.172   1.781   0.000  0.00  0.00    +0.001 A 
ATOM     10  C   UNL     1      -0.013   1.076   0.008  0.00  0.00    +0.008 A 
ATOM     11  C   UNL     1      -1.232   1.758   0.017  0.00  0.00    -0.019 A 
ATOM     12  C   UNL     1      -2.495   0.998   0.053  0.00  0.00    +0.022 C 
ATOM     13  C   UNL     1      -3.654   1.635   0.276  0.00  0.00    +0.054 C 
ATOM     14  N   UNL     1      -3.622   2.996   0.487  0.00  0.00    -0.384 NA
ATOM     15  C   UNL     1      -4.601   3.813   1.244  0.00  0.00    +0.141 C 
ATOM     16  C   UNL     1      -4.201   5.258   0.985  0.00  0.00    +0.116 C 
ATOM     17  C   UNL     1      -4.170   6.270   2.086  0.00  0.00    +0.232 C 
ATOM     18  O   UNL     1      -4.980   6.405   2.977  0.00  0.00    -0.274 OA
ATOM     19  H   UNL     1      -3.817   1.920   0.369  0.00  0.00    +0.127 HD
ENDROOT
BRANCH   1  25
ATOM     20  C   UNL     1      -3.213   9.426   1.882  0.00  0.00    +0.142 A 
ATOM     21  C   UNL     1      -2.973  10.646   2.495  0.00  0.00    +0.047 A 
ATOM     22  C   UNL     1      -2.323  10.691   3.714  0.00  0.00    +0.004 A 
ATOM     23  C   UNL     1      -1.911   9.521   4.325  0.00  0.00    +0.002 A 
ATOM     24  C   UNL     1      -2.151   8.301   3.723  0.00  0.00    +0.027 A 
ATOM     25  C   UNL     1      -2.798   8.248   2.497  0.00  0.00    +0.085 A 
BRANCH  20  27
ATOM     26  C   UNL     1      -4.249  10.629   0.111  0.00  0.00    +0.277 C 
ATOM     27  O   UNL     1      -3.852   9.380   0.683  0.00  0.00    -0.493 OA
ENDBRANCH  20  27
ENDBRANCH   1  25
BRANCH  15  28
ATOM     28  C   UNL     1      -4.513   3.502   2.716  0.00  0.00    +0.183 C 
ATOM     29  O   UNL     1      -3.526   2.957   3.163  0.00  0.00    -0.290 OA
BRANCH  28  30
ATOM     30  C   UNL     1      -5.622   3.860   3.610  0.00  0.00    +0.023 A 
ATOM     31  C   UNL     1      -6.760   4.495   3.097  0.00  0.00    +0.015 A 
ATOM     32  C   UNL     1      -7.801   4.824   3.936  0.00  0.00    +0.050 A 
ATOM     33  C   UNL     1      -7.721   4.539   5.293  0.00  0.00    +0.162 A 
ATOM     34  C   UNL     1      -6.588   3.911   5.813  0.00  0.00    +0.162 A 
ATOM     35  C   UNL     1      -5.543   3.572   4.978  0.00  0.00    +0.060 A 
BRANCH  34  36
ATOM     36  O   UNL     1      -6.514   3.634   7.142  0.00  0.00    -0.491 OA
ATOM     37  C   UNL     1      -5.325   2.991   7.606  0.00  0.00    +0.277 C 
ENDBRANCH  34  36
BRANCH  33  38
ATOM     38  O   UNL     1      -8.748   4.871   6.116  0.00  0.00    -0.491 OA
ATOM     39  C   UNL     1      -9.877   5.511   5.519  0.00  0.00    +0.277 C 
ENDBRANCH  33  38
ENDBRANCH  28  30
ENDBRANCH  15  28
TORSDOF 6
