REMARK  Name = ZINC35082540
REMARK  5 active torsions:
REMARK  status: ('A' for Active; 'I' for Inactive)
REMARK    1  A    between atoms: C_1  and  C_2
REMARK    2  A    between atoms: C_2  and  C_3
REMARK    3  A    between atoms: C_6  and  N_9
REMARK    4  A    between atoms: C_12  and  C_15
REMARK    5  A    between atoms: C_12  and  C_16
REMARK                            x       y       z     vdW  Elec       q    Type
REMARK                         _______ _______ _______ _____ _____    ______ ____
ROOT
ATOM      1  N   UNL     1       2.645  -1.825  -4.643  0.00  0.00    -0.226 NA
ATOM      2  C   UNL     1       3.777  -1.272  -5.014  0.00  0.00    +0.155 C 
ATOM      3  N   UNL     1       4.550  -1.583  -6.114  0.00  0.00    -0.318 N 
ATOM      4  C   UNL     1       5.382  -0.505  -6.640  0.00  0.00    +0.038 C 
ATOM      5  C   UNL     1       5.998   0.294  -5.459  0.00  0.00    +0.102 C 
ATOM      6  S   UNL     1       4.661   0.059  -4.215  0.00  0.00    -0.088 S 
ATOM      7  C   UNL     1       6.504  -1.097  -7.496  0.00  0.00    +0.032 C 
ATOM      8  C   UNL     1       4.526   0.430  -7.498  0.00  0.00    +0.032 C 
ATOM      9  H   UNL     1       4.542  -2.466  -6.513  0.00  0.00    +0.148 HD
ENDROOT
BRANCH   1  13
ATOM     10  C   UNL     1       0.707  -0.490  -1.238  0.00  0.00    -0.047 A 
ATOM     11  C   UNL     1      -0.014  -0.718  -2.396  0.00  0.00    +0.006 A 
ATOM     12  C   UNL     1       0.625  -1.163  -3.535  0.00  0.00    +0.028 A 
ATOM     13  C   UNL     1       2.004  -1.383  -3.516  0.00  0.00    +0.067 A 
ATOM     14  C   UNL     1       2.726  -1.151  -2.344  0.00  0.00    +0.028 A 
ATOM     15  C   UNL     1       2.075  -0.701  -1.214  0.00  0.00    +0.006 A 
BRANCH  10  17
ATOM     16  C   UNL     1      -0.019   1.526   0.010  0.00  0.00    +0.009 C 
ATOM     17  C   UNL     1       0.002  -0.004   0.002  0.00  0.00    +0.032 C 
ENDBRANCH  10  17
ENDBRANCH   1  13
TORSDOF 2
