REMARK  Name = ZINC39710790
REMARK  9 active torsions:
REMARK  status: ('A' for Active; 'I' for Inactive)
REMARK    1  A    between atoms: C_1  and  C_2
REMARK    2  A    between atoms: C_8  and  C_14
REMARK    3  A    between atoms: C_14  and  C_16
REMARK    4  A    between atoms: C_14  and  N_25
REMARK    5  A    between atoms: N_20  and  C_21
REMARK    6  A    between atoms: C_21  and  C_22
REMARK    7  A    between atoms: C_22  and  O_23
REMARK    8  A    between atoms: O_23  and  C_24
REMARK    9  A    between atoms: N_28  and  C_31
REMARK                            x       y       z     vdW  Elec       q    Type
REMARK                         _______ _______ _______ _____ _____    ______ ____
ROOT
ATOM      1  C   UNL     1      -1.141  -2.386   4.772  0.00  0.00    +0.142 C 
ENDROOT
BRANCH   1   9
ATOM      2  C   UNL     1       3.702  -3.781   1.268  0.00  0.00    +0.045 C 
ATOM      3  C   UNL     1       3.535  -3.732   2.765  0.00  0.00    -0.029 A 
ATOM      4  C   UNL     1       4.457  -4.326   3.566  0.00  0.00    +0.005 A 
ATOM      5  C   UNL     1       4.363  -4.317   4.958  0.00  0.00    +0.001 A 
ATOM      6  C   UNL     1       3.330  -3.706   5.593  0.00  0.00    +0.009 A 
ATOM      7  C   UNL     1       2.300  -3.046   4.790  0.00  0.00    -0.007 A 
ATOM      8  C   UNL     1       1.244  -2.420   5.384  0.00  0.00    -0.003 C 
ATOM      9  C   UNL     1       0.224  -1.763   4.474  0.00  0.00    +0.123 C 
ATOM     10  C   UNL     1       0.461  -1.855   2.984  0.00  0.00    +0.226 C 
ATOM     11  O   UNL     1      -0.326  -1.346   2.208  0.00  0.00    -0.275 OA
ATOM     12  N   UNL     1       1.526  -2.492   2.526  0.00  0.00    -0.284 N 
ATOM     13  C   UNL     1       2.428  -3.067   3.322  0.00  0.00    +0.043 A 
ATOM     14  H   UNL     1       1.659  -2.540   1.567  0.00  0.00    +0.155 HD
ENDBRANCH   1   9
BRANCH   1  15
ATOM     15  N   UNL     1      -1.516  -2.102   6.163  0.00  0.00    -0.295 NA
ATOM     16  C   UNL     1      -1.738  -0.663   6.365  0.00  0.00    +0.066 C 
ATOM     17  C   UNL     1      -2.068  -0.402   7.837  0.00  0.00    -0.059 C 
ATOM     18  N   UNL     1      -3.271  -1.158   8.210  0.00  0.00    +0.400 N 
ATOM     19  C   UNL     1      -3.025  -2.594   8.027  0.00  0.00    -0.059 C 
ATOM     20  C   UNL     1      -2.703  -2.873   6.557  0.00  0.00    +0.066 C 
ATOM     21  H   UNL     1      -4.043  -0.872   7.627  0.00  0.00    -0.078 HD
BRANCH  18  22
ATOM     22  C   UNL     1      -3.597  -0.893   9.618  0.00  0.00    +0.081 C 
ATOM     23  N   UNL     1      -4.775  -1.663  10.041  0.00  0.00    -0.347 N 
ATOM     24  C   UNL     1      -5.898  -0.947  10.453  0.00  0.00    +0.040 A 
ATOM     25  C   UNL     1      -7.112  -1.509  10.889  0.00  0.00    +0.024 A 
ATOM     26  C   UNL     1      -8.166  -0.714  11.275  0.00  0.00    +0.002 A 
ATOM     27  C   UNL     1      -8.069   0.665  11.247  0.00  0.00    +0.001 A 
ATOM     28  C   UNL     1      -6.886   1.246  10.821  0.00  0.00    +0.016 A 
ATOM     29  C   UNL     1      -5.831   0.450  10.436  0.00  0.00    +0.029 A 
ATOM     30  S   UNL     1      -4.196   0.829   9.845  0.00  0.00    -0.120 S 
ATOM     31  H   UNL     1      -4.771  -2.632  10.034  0.00  0.00    +0.145 HD
ENDBRANCH  18  22
ENDBRANCH   1  15
BRANCH   1  32
ATOM     32  C   UNL     1      -1.068  -3.877   4.567  0.00  0.00    +0.170 A 
ATOM     33  N   UNL     1      -0.361  -4.730   5.268  0.00  0.00    -0.112 NA
ATOM     34  N   UNL     1      -0.565  -5.907   4.785  0.00  0.00    -0.023 NA
ATOM     35  N   UNL     1      -1.382  -5.827   3.794  0.00  0.00    -0.044 NA
ATOM     36  N   UNL     1      -1.719  -4.593   3.631  0.00  0.00    -0.225 N 
BRANCH  36  37
ATOM     37  C   UNL     1      -2.636  -4.067   2.617  0.00  0.00    +0.175 C 
BRANCH  37  38
ATOM     38  C   UNL     1      -1.876  -3.845   1.308  0.00  0.00    +0.183 C 
BRANCH  38  39
ATOM     39  O   UNL     1      -2.756  -3.277   0.336  0.00  0.00    -0.381 OA
ATOM     40  C   UNL     1      -2.142  -3.028  -0.930  0.00  0.00    +0.194 C 
ENDBRANCH  38  39
ENDBRANCH  37  38
ENDBRANCH  36  37
ENDBRANCH   1  32
TORSDOF 7
