REMARK  Name = ZINC04338035
REMARK  5 active torsions:
REMARK  status: ('A' for Active; 'I' for Inactive)
REMARK    1  A    between atoms: C_10  and  N_11
REMARK    2  A    between atoms: C_12  and  C_14
REMARK    3  A    between atoms: C_14  and  S_15
REMARK    4  A    between atoms: S_15  and  C_16
REMARK    5  A    between atoms: N_22  and  N_23
REMARK                            x       y       z     vdW  Elec       q    Type
REMARK                         _______ _______ _______ _____ _____    ______ ____
ROOT
ATOM      1  N   UNL     1      -1.191   1.867   0.018  0.00  0.00    -0.284 N 
ATOM      2  C   UNL     1      -0.015   1.208   0.013  0.00  0.00    +0.228 C 
ATOM      3  O   UNL     1       0.002  -0.004   0.002  0.00  0.00    -0.275 OA
ATOM      4  H   UNL     1      -1.205   2.834   0.093  0.00  0.00    +0.155 HD
ENDROOT
BRANCH   1  14
ATOM      5  C   UNL     1      -5.666   2.747  -2.144  0.00  0.00    +0.001 A 
ATOM      6  C   UNL     1      -4.480   3.473  -2.052  0.00  0.00    +0.001 A 
ATOM      7  C   UNL     1      -3.402   2.973  -1.386  0.00  0.00    +0.010 A 
ATOM      8  C   UNL     1      -3.486   1.710  -0.779  0.00  0.00    +0.003 A 
ATOM      9  C   UNL     1      -4.690   0.970  -0.875  0.00  0.00    -0.016 A 
ATOM     10  C   UNL     1      -5.782   1.518  -1.571  0.00  0.00    +0.008 A 
ATOM     11  C   UNL     1      -4.774  -0.296  -0.272  0.00  0.00    +0.008 A 
ATOM     12  C   UNL     1      -3.701  -0.804   0.396  0.00  0.00    +0.002 A 
ATOM     13  C   UNL     1      -2.511  -0.088   0.493  0.00  0.00    +0.024 A 
ATOM     14  C   UNL     1      -2.388   1.157  -0.086  0.00  0.00    +0.041 A 
ENDBRANCH   1  14
BRANCH   2  15
ATOM     15  C   UNL     1       1.280   1.979   0.016  0.00  0.00    +0.173 C 
BRANCH  15  16
ATOM     16  S   UNL     1       2.672   0.821   0.001  0.00  0.00    -0.075 S 
BRANCH  16  17
ATOM     17  C   UNL     1       4.017   1.959   0.006  0.00  0.00    +0.210 A 
ATOM     18  N   UNL     1       3.777   3.260   0.019  0.00  0.00    -0.122 NA
ATOM     19  N   UNL     1       4.725   4.127   0.024  0.00  0.00    -0.150 NA
ATOM     20  C   UNL     1       5.986   3.764   0.017  0.00  0.00    +0.206 A 
ATOM     21  C   UNL     1       6.311   2.390   0.003  0.00  0.00    +0.290 A 
ATOM     22  O   UNL     1       7.474   2.021  -0.004  0.00  0.00    -0.264 OA
ATOM     23  N   UNL     1       5.298   1.494   0.003  0.00  0.00    -0.207 N 
BRANCH  23  24
ATOM     24  N   UNL     1       5.553   0.152  -0.004  0.00  0.00    -0.293 N 
ATOM     25  H   UNL     1       6.546  -0.028  -0.006  0.00  0.00    +0.163 HD
ATOM     26  H   UNL     1       5.104  -0.306   0.775  0.00  0.00    +0.163 HD
ENDBRANCH  23  24
ENDBRANCH  16  17
ENDBRANCH  15  16
ENDBRANCH   2  15
TORSDOF 5
