REMARK  Name = ZINC11721121
REMARK  8 active torsions:
REMARK  status: ('A' for Active; 'I' for Inactive)
REMARK    1  A    between atoms: C_1  and  C_2
REMARK    2  A    between atoms: C_8  and  N_10
REMARK    3  A    between atoms: C_14  and  C_16
REMARK    4  A    between atoms: C_16  and  S_17
REMARK    5  A    between atoms: S_17  and  C_18
REMARK    6  A    between atoms: N_22  and  C_23
REMARK    7  A    between atoms: C_23  and  C_24
REMARK    8  A    between atoms: C_23  and  C_25
REMARK                            x       y       z     vdW  Elec       q    Type
REMARK                         _______ _______ _______ _____ _____    ______ ____
ROOT
ATOM      1  N   UNL     1      -3.525   1.834   0.029  0.00  0.00    -0.296 N 
ATOM      2  C   UNL     1      -2.349   1.176   0.020  0.00  0.00    +0.306 C 
ATOM      3  O   UNL     1      -2.332  -0.039   0.013  0.00  0.00    -0.252 OA
ATOM      4  N   UNL     1      -1.191   1.866   0.018  0.00  0.00    -0.239 N 
ATOM      5  C   UNL     1      -0.014   1.208   0.009  0.00  0.00    +0.231 C 
ATOM      6  O   UNL     1       0.002  -0.004   0.002  0.00  0.00    -0.274 OA
ATOM      7  H   UNL     1      -3.538   2.804   0.034  0.00  0.00    +0.151 HD
ATOM      8  H   UNL     1      -1.204   2.836   0.023  0.00  0.00    +0.159 HD
ENDROOT
BRANCH   1  15
ATOM      9  C   UNL     1      -5.526   2.327  -2.006  0.00  0.00    +0.009 C 
ATOM     10  C   UNL     1      -5.893   1.950  -0.569  0.00  0.00    +0.006 C 
ATOM     11  C   UNL     1      -7.208   1.167  -0.567  0.00  0.00    +0.005 C 
ATOM     12  C   UNL     1      -7.575   0.790   0.870  0.00  0.00    +0.000 C 
ATOM     13  C   UNL     1      -6.465  -0.075   1.469  0.00  0.00    +0.002 C 
ATOM     14  C   UNL     1      -5.150   0.708   1.467  0.00  0.00    +0.022 C 
ATOM     15  C   UNL     1      -4.783   1.085   0.031  0.00  0.00    +0.077 C 
ENDBRANCH   1  15
BRANCH   5  16
ATOM     16  C   UNL     1       1.280   1.979   0.001  0.00  0.00    +0.173 C 
BRANCH  16  17
ATOM     17  S   UNL     1       2.672   0.822  -0.019  0.00  0.00    -0.077 S 
BRANCH  17  18
ATOM     18  C   UNL     1       4.017   1.960  -0.026  0.00  0.00    +0.192 A 
ATOM     19  N   UNL     1       3.930   3.271  -0.024  0.00  0.00    -0.123 NA
ATOM     20  N   UNL     1       5.108   3.785  -0.028  0.00  0.00    -0.137 NA
ATOM     21  C   UNL     1       6.008   2.844  -0.041  0.00  0.00    +0.226 A 
ATOM     22  N   UNL     1       5.346   1.647  -0.040  0.00  0.00    -0.306 N 
BRANCH  22  23
ATOM     23  C   UNL     1       5.938   0.308  -0.052  0.00  0.00    +0.084 C 
ATOM     24  C   UNL     1       6.792   0.139  -1.311  0.00  0.00    +0.030 C 
ATOM     25  C   UNL     1       6.816   0.127   1.188  0.00  0.00    +0.030 C 
ENDBRANCH  22  23
ENDBRANCH  17  18
ENDBRANCH  16  17
ENDBRANCH   5  16
TORSDOF 5
