REMARK  Name = ZINC38608832
REMARK  14 active torsions:
REMARK  status: ('A' for Active; 'I' for Inactive)
REMARK    1  A    between atoms: C_1  and  C_2
REMARK    2  A    between atoms: C_3  and  C_38
REMARK    3  A    between atoms: N_6  and  C_32
REMARK    4  A    between atoms: C_10  and  C_11
REMARK    5  A    between atoms: N_13  and  C_26
REMARK    6  A    between atoms: C_15  and  C_16
REMARK    7  A    between atoms: C_19  and  O_22
REMARK    8  A    between atoms: O_22  and  C_23
REMARK    9  A    between atoms: C_23  and  C_24
REMARK   10  A    between atoms: C_23  and  C_25
REMARK   11  A    between atoms: C_32  and  C_33
REMARK   12  A    between atoms: C_33  and  O_34
REMARK   13  A    between atoms: O_34  and  C_35
REMARK   14  A    between atoms: C_35  and  C_37
REMARK                            x       y       z     vdW  Elec       q    Type
REMARK                         _______ _______ _______ _____ _____    ______ ____
ROOT
ATOM      1  C   UNL     1      -0.272  -0.798   3.517  0.00  0.00    +0.021 A 
ATOM      2  C   UNL     1      -0.255  -2.187   3.582  0.00  0.00    +0.123 A 
ATOM      3  N   UNL     1      -0.264  -2.535   4.877  0.00  0.00    -0.239 N 
ATOM      4  N   UNL     1      -0.286  -1.389   5.677  0.00  0.00    -0.166 NA
ATOM      5  C   UNL     1      -0.285  -0.324   4.910  0.00  0.00    +0.100 A 
ENDROOT
BRANCH   1  15
ATOM      6  C   UNL     1      -0.580   1.401  -0.155  0.00  0.00    +0.046 C 
ATOM      7  C   UNL     1       0.496   0.369   0.068  0.00  0.00    -0.016 C 
ATOM      8  C   UNL     1       1.395   0.057  -0.940  0.00  0.00    +0.117 C 
ATOM      9  C   UNL     1       2.432  -0.949  -0.699  0.00  0.00    +0.264 C 
ATOM     10  O   UNL     1       3.222  -1.223  -1.584  0.00  0.00    -0.269 OA
ATOM     11  N   UNL     1       2.523  -1.573   0.488  0.00  0.00    -0.230 N 
ATOM     12  C   UNL     1       1.669  -1.299   1.491  0.00  0.00    +0.254 C 
ATOM     13  O   UNL     1       1.776  -1.881   2.554  0.00  0.00    -0.270 OA
ATOM     14  C   UNL     1       0.611  -0.294   1.310  0.00  0.00    +0.042 C 
ATOM     15  C   UNL     1      -0.270  -0.003   2.350  0.00  0.00    +0.025 C 
BRANCH   8  16
ATOM     16  C   UNL     1       1.311   0.715  -2.210  0.00  0.00    +0.105 C 
ATOM     17  N   UNL     1       1.244   1.236  -3.217  0.00  0.00    -0.191 NA
ENDBRANCH   8  16
BRANCH  11  18
ATOM     18  C   UNL     1       3.573  -2.574   0.694  0.00  0.00    +0.158 C 
BRANCH  18  19
ATOM     19  C   UNL     1       4.829  -1.891   1.240  0.00  0.00    +0.251 C 
BRANCH  19  20
ATOM     20  O   UNL     1       4.555  -1.358   2.537  0.00  0.00    -0.463 OA
BRANCH  20  21
ATOM     21  C   UNL     1       5.560  -0.723   3.159  0.00  0.00    +0.304 C 
ATOM     22  O   UNL     1       6.636  -0.622   2.620  0.00  0.00    -0.251 OA
ATOM     23  C   UNL     1       5.346  -0.134   4.530  0.00  0.00    +0.136 C 
ENDBRANCH  20  21
ENDBRANCH  19  20
ENDBRANCH  18  19
ENDBRANCH  11  18
ENDBRANCH   1  15
BRANCH   5  24
ATOM     24  C   UNL     1      -0.300   1.087   5.361  0.00  0.00    +0.003 A 
ATOM     25  C   UNL     1       0.386   2.061   4.633  0.00  0.00    +0.013 A 
ATOM     26  C   UNL     1       0.370   3.373   5.056  0.00  0.00    +0.046 A 
ATOM     27  C   UNL     1      -0.326   3.726   6.204  0.00  0.00    +0.121 A 
ATOM     28  C   UNL     1      -1.010   2.760   6.930  0.00  0.00    +0.046 A 
ATOM     29  C   UNL     1      -1.003   1.447   6.510  0.00  0.00    +0.013 A 
BRANCH  27  30
ATOM     30  O   UNL     1      -0.339   5.020   6.618  0.00  0.00    -0.489 OA
BRANCH  30  31
ATOM     31  C   UNL     1       0.339   5.971   5.794  0.00  0.00    +0.167 C 
ATOM     32  C   UNL     1      -0.584   6.408   4.655  0.00  0.00    +0.051 C 
ATOM     33  C   UNL     1       0.724   7.190   6.635  0.00  0.00    +0.051 C 
ENDBRANCH  30  31
ENDBRANCH  27  30
ENDBRANCH   5  24
BRANCH   3  34
ATOM     34  C   UNL     1      -0.253  -3.851   5.357  0.00  0.00    +0.065 A 
ATOM     35  C   UNL     1      -0.226  -4.916   4.467  0.00  0.00    +0.028 A 
ATOM     36  C   UNL     1      -0.214  -6.212   4.943  0.00  0.00    +0.002 A 
ATOM     37  C   UNL     1      -0.231  -6.450   6.305  0.00  0.00    +0.000 A 
ATOM     38  C   UNL     1      -0.258  -5.391   7.195  0.00  0.00    +0.002 A 
ATOM     39  C   UNL     1      -0.264  -4.093   6.725  0.00  0.00    +0.028 A 
ENDBRANCH   3  34
TORSDOF 10
