REMARK  Name = ZINC02817433
REMARK  7 active torsions:
REMARK  status: ('A' for Active; 'I' for Inactive)
REMARK    1  A    between atoms: C_4  and  S_7
REMARK    2  A    between atoms: S_7  and  N_10
REMARK    3  A    between atoms: N_10  and  C_11
REMARK    4  A    between atoms: C_14  and  N_17
REMARK    5  A    between atoms: N_17  and  S_18
REMARK    6  A    between atoms: S_18  and  C_21
REMARK    7  A    between atoms: C_26  and  N_27
REMARK                            x       y       z     vdW  Elec       q    Type
REMARK                         _______ _______ _______ _____ _____    ______ ____
ROOT
ATOM      1  C   UNL     1      -3.088  -0.363   1.962  0.00  0.00    +0.048 A 
ATOM      2  C   UNL     1      -2.160   0.250   2.794  0.00  0.00    +0.026 A 
ATOM      3  C   UNL     1      -1.246   1.142   2.269  0.00  0.00    +0.026 A 
ATOM      4  C   UNL     1      -1.254   1.425   0.910  0.00  0.00    +0.048 A 
ATOM      5  C   UNL     1      -2.185   0.816   0.079  0.00  0.00    +0.026 A 
ATOM      6  C   UNL     1      -3.096  -0.080   0.603  0.00  0.00    +0.026 A 
ENDROOT
BRANCH   1   7
ATOM      7  N   UNL     1      -4.015  -1.267   2.494  0.00  0.00    -0.216 N 
ATOM      8  H   UNL     1      -3.721  -1.957   3.110  0.00  0.00    +0.174 HD
BRANCH   7   9
ATOM      9  S   UNL     1      -5.613  -1.158   2.074  0.00  0.00    +0.072 S 
ATOM     10  O   UNL     1      -5.654  -1.062   0.656  0.00  0.00    -0.150 OA
ATOM     11  O   UNL     1      -6.292  -2.183   2.788  0.00  0.00    -0.150 OA
BRANCH   9  15
ATOM     12  C   UNL     1      -7.156   2.781   3.683  0.00  0.00    +0.000 A 
ATOM     13  C   UNL     1      -6.722   2.692   2.374  0.00  0.00    +0.002 A 
ATOM     14  C   UNL     1      -6.250   1.489   1.883  0.00  0.00    +0.029 A 
ATOM     15  C   UNL     1      -6.213   0.375   2.700  0.00  0.00    +0.108 A 
ATOM     16  C   UNL     1      -6.653   0.463   4.008  0.00  0.00    +0.029 A 
ATOM     17  C   UNL     1      -7.119   1.667   4.501  0.00  0.00    +0.002 A 
ENDBRANCH   9  15
ENDBRANCH   7   9
ENDBRANCH   1   7
BRANCH   4  18
ATOM     18  N   UNL     1      -0.327   2.330   0.378  0.00  0.00    -0.216 N 
ATOM     19  H   UNL     1      -0.177   3.183   0.813  0.00  0.00    +0.174 HD
BRANCH  18  20
ATOM     20  S   UNL     1       0.514   1.942  -0.995  0.00  0.00    +0.075 S 
ATOM     21  O   UNL     1       1.050   0.642  -0.790  0.00  0.00    -0.150 OA
ATOM     22  O   UNL     1       1.332   3.063  -1.301  0.00  0.00    -0.150 OA
BRANCH  20  23
ATOM     23  C   UNL     1      -0.659   1.803  -2.303  0.00  0.00    +0.139 A 
ATOM     24  C   UNL     1      -0.843   0.590  -2.939  0.00  0.00    +0.031 A 
ATOM     25  C   UNL     1      -1.767   0.479  -3.962  0.00  0.00    +0.002 A 
ATOM     26  C   UNL     1      -2.499   1.584  -4.355  0.00  0.00    +0.002 A 
ATOM     27  C   UNL     1      -2.311   2.798  -3.721  0.00  0.00    +0.035 A 
ATOM     28  C   UNL     1      -1.391   2.908  -2.695  0.00  0.00    +0.153 A 
BRANCH  28  29
ATOM     29  N   UNL     1      -1.189   4.208  -2.018  0.00  0.00    +0.058 N 
ATOM     30  O   UNL     1      -1.737   5.208  -2.444  0.00  0.00    -0.126 OA
ATOM     31  O   UNL     1      -0.474   4.277  -1.034  0.00  0.00    -0.126 OA
ENDBRANCH  28  29
ENDBRANCH  20  23
ENDBRANCH  18  20
ENDBRANCH   4  18
TORSDOF 7
