REMARK  Name = ZINC35550787
REMARK  10 active torsions:
REMARK  status: ('A' for Active; 'I' for Inactive)
REMARK    1  A    between atoms: C_1  and  C_2
REMARK    2  A    between atoms: C_2  and  O_3
REMARK    3  A    between atoms: O_3  and  C_4
REMARK    4  A    between atoms: C_4  and  C_6
REMARK    5  A    between atoms: C_10  and  N_11
REMARK    6  A    between atoms: C_12  and  C_14
REMARK    7  A    between atoms: C_14  and  C_15
REMARK    8  A    between atoms: C_24  and  O_25
REMARK    9  A    between atoms: O_25  and  C_26
REMARK   10  A    between atoms: N_29  and  C_32
REMARK                            x       y       z     vdW  Elec       q    Type
REMARK                         _______ _______ _______ _____ _____    ______ ____
ROOT
ATOM      1  N   UNL     1      -3.036  -2.524   2.499  0.00  0.00    -0.279 N 
ATOM      2  C   UNL     1      -3.812  -2.868   3.546  0.00  0.00    +0.222 C 
ATOM      3  O   UNL     1      -4.913  -3.339   3.357  0.00  0.00    -0.275 OA
ATOM      4  H   UNL     1      -2.155  -2.147   2.651  0.00  0.00    +0.155 HD
ENDROOT
BRANCH   1   9
ATOM      5  C   UNL     1      -2.842  -2.416   0.016  0.00  0.00    +0.091 A 
ATOM      6  C   UNL     1      -3.547  -2.713  -1.215  0.00  0.00    -0.025 A 
ATOM      7  C   UNL     1      -4.779  -3.242  -1.038  0.00  0.00    -0.021 A 
ATOM      8  S   UNL     1      -4.976  -3.336   0.716  0.00  0.00    -0.079 S 
ATOM      9  C   UNL     1      -3.497  -2.709   1.205  0.00  0.00    +0.086 A 
ATOM     10  C   UNL     1      -5.733  -3.641  -2.119  0.00  0.00    -0.036 C 
ATOM     11  N   UNL     1      -5.287  -3.024  -3.381  0.00  0.00    +0.381 N 
ATOM     12  C   UNL     1      -3.861  -3.306  -3.592  0.00  0.00    -0.074 C 
ATOM     13  C   UNL     1      -3.010  -2.481  -2.621  0.00  0.00    +0.018 C 
ATOM     14  C   UNL     1      -6.065  -3.576  -4.498  0.00  0.00    -0.096 C 
ATOM     15  H   UNL     1      -5.429  -2.026  -3.336  0.00  0.00    -0.082 HD
BRANCH   5  16
ATOM     16  C   UNL     1      -1.497  -1.838   0.006  0.00  0.00    +0.342 C 
ATOM     17  O   UNL     1      -0.523  -2.566  -0.007  0.00  0.00    -0.245 OA
BRANCH  16  18
ATOM     18  O   UNL     1      -1.339  -0.499   0.012  0.00  0.00    -0.461 OA
BRANCH  18  20
ATOM     19  C   UNL     1      -0.019   1.526   0.010  0.00  0.00    +0.048 C 
ATOM     20  C   UNL     1       0.002  -0.004   0.002  0.00  0.00    +0.229 C 
ENDBRANCH  18  20
ENDBRANCH  16  18
ENDBRANCH   5  16
ENDBRANCH   1   9
BRANCH   2  21
ATOM     21  C   UNL     1      -3.311  -2.666   4.953  0.00  0.00    +0.135 C 
BRANCH  21  22
ATOM     22  C   UNL     1      -4.360  -3.127   5.931  0.00  0.00    +0.011 A 
ATOM     23  C   UNL     1      -5.335  -2.229   6.396  0.00  0.00    -0.011 A 
ATOM     24  C   UNL     1      -5.358  -0.891   5.966  0.00  0.00    +0.010 A 
ATOM     25  C   UNL     1      -6.317  -0.048   6.436  0.00  0.00    +0.016 A 
ATOM     26  C   UNL     1      -7.280  -0.491   7.342  0.00  0.00    +0.018 A 
ATOM     27  C   UNL     1      -7.290  -1.780   7.780  0.00  0.00    +0.023 A 
ATOM     28  C   UNL     1      -6.315  -2.680   7.316  0.00  0.00    -0.016 A 
ATOM     29  C   UNL     1      -6.294  -4.018   7.747  0.00  0.00    +0.012 A 
ATOM     30  C   UNL     1      -5.337  -4.863   7.278  0.00  0.00    +0.046 A 
ATOM     31  C   UNL     1      -4.373  -4.421   6.366  0.00  0.00    +0.124 A 
ATOM     32 BR   UNL     1      -8.594   0.716   7.970  0.00  0.00    -0.050 Br
BRANCH  31  33
ATOM     33  O   UNL     1      -3.433  -5.291   5.911  0.00  0.00    -0.495 OA
ATOM     34  C   UNL     1      -3.497  -6.631   6.402  0.00  0.00    +0.277 C 
ENDBRANCH  31  33
ENDBRANCH  21  22
ENDBRANCH   2  21
TORSDOF 7
