REMARK  Name = ZINC65193320
REMARK  5 active torsions:
REMARK  status: ('A' for Active; 'I' for Inactive)
REMARK    1  A    between atoms: C_2  and  C_12
REMARK    2  A    between atoms: C_13  and  C_14
REMARK    3  A    between atoms: N_16  and  N_17
REMARK    4  A    between atoms: N_20  and  C_21
REMARK    5  A    between atoms: C_21  and  C_22
REMARK                            x       y       z     vdW  Elec       q    Type
REMARK                         _______ _______ _______ _____ _____    ______ ____
ROOT
ATOM      1  C   UNL     1       2.316   5.713   0.010  0.00  0.00    +0.253 C 
ATOM      2  O   UNL     1       1.255   6.310   0.024  0.00  0.00    -0.269 OA
ATOM      3  N   UNL     1       3.476   6.400   0.003  0.00  0.00    -0.230 N 
ATOM      4  H   UNL     1       4.321   5.924  -0.007  0.00  0.00    +0.173 HD
ENDROOT
BRANCH   3   5
ATOM      5  N   UNL     1       3.461   7.801   0.011  0.00  0.00    -0.218 N 
ATOM      6  C   UNL     1       4.621   8.487   0.003  0.00  0.00    +0.316 C 
ATOM      7  O   UNL     1       4.607   9.703   0.010  0.00  0.00    -0.251 OA
ATOM      8  N   UNL     1       5.795   7.826  -0.011  0.00  0.00    -0.298 N 
ATOM      9  H   UNL     1       2.616   8.276   0.021  0.00  0.00    +0.174 HD
ATOM     10  H   UNL     1       5.805   6.856  -0.017  0.00  0.00    +0.150 HD
BRANCH   8  11
ATOM     11  C   UNL     1       7.056   8.572  -0.019  0.00  0.00    +0.109 C 
BRANCH  11  12
ATOM     12  C   UNL     1       8.229   7.590  -0.036  0.00  0.00    +0.006 C 
ATOM     13  C   UNL     1       9.169   7.593   1.171  0.00  0.00    +0.005 C 
ATOM     14  C   UNL     1       9.637   8.175  -0.164  0.00  0.00    +0.005 C 
ENDBRANCH  11  12
ENDBRANCH   8  11
ENDBRANCH   3   5
BRANCH   1  16
ATOM     15  C   UNL     1       1.170   3.563   0.010  0.00  0.00    +0.013 C 
ATOM     16  C   UNL     1       2.332   4.251   0.003  0.00  0.00    +0.069 C 
BRANCH  15  18
ATOM     17  C   UNL     1      -0.017   1.378   0.010  0.00  0.00    +0.057 A 
ATOM     18  C   UNL     1       1.186   2.093   0.002  0.00  0.00    -0.020 A 
ATOM     19  C   UNL     1       2.404   1.404  -0.014  0.00  0.00    +0.031 A 
ATOM     20  C   UNL     1       2.414   0.026  -0.023  0.00  0.00    +0.087 A 
ATOM     21  C   UNL     1       1.218  -0.684  -0.016  0.00  0.00    +0.180 A 
ATOM     22  C   UNL     1       0.002  -0.004   0.002  0.00  0.00    +0.164 A 
ATOM     23  O   UNL     1      -1.177  -0.686   0.017  0.00  0.00    -0.485 OA
ATOM     24  C   UNL     1      -1.127  -2.064  -0.367  0.00  0.00    +0.270 C 
ATOM     25  C   UNL     1       0.054  -2.723   0.358  0.00  0.00    +0.270 C 
ATOM     26  O   UNL     1       1.253  -2.044  -0.029  0.00  0.00    -0.483 OA
ATOM     27 CL   UNL     1       3.925  -0.827  -0.044  0.00  0.00    -0.080 Cl
ENDBRANCH  15  18
ENDBRANCH   1  16
TORSDOF 5
