REMARK  Name = ZINC63137266
REMARK  9 active torsions:
REMARK  status: ('A' for Active; 'I' for Inactive)
REMARK    1  A    between atoms: C_1  and  C_2
REMARK    2  A    between atoms: C_2  and  C_3
REMARK    3  A    between atoms: C_3  and  C_5
REMARK    4  A    between atoms: C_3  and  N_6
REMARK    5  A    between atoms: C_26  and  C_28
REMARK    6  A    between atoms: C_31  and  O_36
REMARK    7  A    between atoms: C_32  and  O_34
REMARK    8  A    between atoms: O_34  and  C_35
REMARK    9  A    between atoms: O_36  and  C_37
REMARK                            x       y       z     vdW  Elec       q    Type
REMARK                         _______ _______ _______ _____ _____    ______ ____
ROOT
ATOM      1  N   UNL     1      -0.041  -0.146  -2.460  0.00  0.00    -0.288 N 
ATOM      2  C   UNL     1      -1.404  -0.637  -2.579  0.00  0.00    +0.204 C 
ATOM      3  C   UNL     1      -2.066  -0.166  -3.831  0.00  0.00    +0.234 C 
ATOM      4  O   UNL     1      -3.208  -0.520  -4.031  0.00  0.00    -0.274 OA
ATOM      5  N   UNL     1      -1.489   0.620  -4.748  0.00  0.00    -0.279 N 
ATOM      6  C   UNL     1      -0.127   1.124  -4.609  0.00  0.00    +0.167 C 
ATOM      7  C   UNL     1       0.537   0.647  -3.360  0.00  0.00    +0.237 C 
ATOM      8  O   UNL     1       1.679   1.002  -3.153  0.00  0.00    -0.274 OA
ATOM      9  C   UNL     1      -0.133   2.664  -4.633  0.00  0.00    +0.065 C 
ATOM     10  C   UNL     1      -1.019   3.072  -5.783  0.00  0.00    -0.034 C 
ATOM     11  C   UNL     1      -0.817   3.903  -6.798  0.00  0.00    -0.001 A 
ATOM     12  C   UNL     1       0.297   4.812  -7.113  0.00  0.00    +0.010 A 
ATOM     13  C   UNL     1       0.185   5.517  -8.270  0.00  0.00    +0.001 A 
ATOM     14  C   UNL     1      -0.909   5.411  -9.134  0.00  0.00    +0.002 A 
ATOM     15  C   UNL     1      -1.981   4.608  -8.918  0.00  0.00    +0.026 A 
ATOM     16  C   UNL     1      -1.983   3.822  -7.729  0.00  0.00    +0.043 A 
ATOM     17  N   UNL     1      -2.877   2.998  -7.267  0.00  0.00    -0.375 N 
ATOM     18  C   UNL     1      -2.421   2.504  -5.967  0.00  0.00    +0.131 C 
ATOM     19  C   UNL     1      -2.281   0.980  -5.945  0.00  0.00    +0.134 C 
ATOM     20  H   UNL     1      -3.705   2.753  -7.709  0.00  0.00    +0.160 HD
ENDROOT
BRANCH  19  21
ATOM     21  C   UNL     1      -3.644   0.342  -5.868  0.00  0.00    -0.021 A 
ATOM     22  C   UNL     1      -3.870  -0.879  -6.476  0.00  0.00    +0.009 A 
ATOM     23  C   UNL     1      -5.119  -1.468  -6.408  0.00  0.00    +0.050 A 
ATOM     24  C   UNL     1      -6.147  -0.835  -5.728  0.00  0.00    +0.162 A 
ATOM     25  C   UNL     1      -5.920   0.394  -5.115  0.00  0.00    +0.162 A 
ATOM     26  C   UNL     1      -4.665   0.976  -5.184  0.00  0.00    +0.055 A 
BRANCH  25  27
ATOM     27  O   UNL     1      -6.926   1.019  -4.447  0.00  0.00    -0.491 OA
ATOM     28  C   UNL     1      -6.620   2.277  -3.843  0.00  0.00    +0.277 C 
ENDBRANCH  25  27
BRANCH  24  29
ATOM     29  O   UNL     1      -7.376  -1.413  -5.660  0.00  0.00    -0.491 OA
ATOM     30  C   UNL     1      -7.537  -2.674  -6.313  0.00  0.00    +0.277 C 
ENDBRANCH  24  29
ENDBRANCH  19  21
BRANCH   1  31
ATOM     31  C   UNL     1       0.737  -0.540  -1.282  0.00  0.00    +0.073 C 
ATOM     32  C   UNL     1       0.867  -2.064  -1.245  0.00  0.00    +0.028 C 
BRANCH  31  34
ATOM     33  C   UNL     1       0.006   1.472   0.006  0.00  0.00    +0.005 C 
ATOM     34  C   UNL     1       0.026  -0.058  -0.016  0.00  0.00    +0.019 C 
ENDBRANCH  31  34
ENDBRANCH   1  31
TORSDOF 5
