REMARK  Name = ZINC40321750
REMARK  6 active torsions:
REMARK  status: ('A' for Active; 'I' for Inactive)
REMARK    1  A    between atoms: C_4  and  C_7
REMARK    2  A    between atoms: C_7  and  S_8
REMARK    3  A    between atoms: S_8  and  C_9
REMARK    4  A    between atoms: C_15  and  C_17
REMARK    5  A    between atoms: C_20  and  S_22
REMARK    6  A    between atoms: S_22  and  C_25
REMARK                            x       y       z     vdW  Elec       q    Type
REMARK                         _______ _______ _______ _____ _____    ______ ____
ROOT
ATOM      1  C   UNL     1       5.786  -1.866   1.477  0.00  0.00    +0.160 A 
ATOM      2  N   UNL     1       6.419  -2.215   0.372  0.00  0.00    -0.133 NA
ATOM      3  N   UNL     1       7.617  -2.886   0.454  0.00  0.00    -0.125 NA
ATOM      4  C   UNL     1       8.127  -3.179   1.634  0.00  0.00    +0.189 A 
ATOM      5  S   UNL     1       6.897  -2.487   2.730  0.00  0.00    -0.024 S 
ATOM      6  N   UNL     1       9.309  -3.843   1.943  0.00  0.00    -0.257 N 
ATOM      7  C   UNL     1      10.111  -4.287   0.955  0.00  0.00    +0.285 C 
ATOM      8  O   UNL     1       9.801  -4.106  -0.208  0.00  0.00    -0.266 OA
ATOM      9  H   UNL     1       9.557  -3.987   2.870  0.00  0.00    +0.157 HD
ENDROOT
BRANCH   7  10
ATOM     10  C   UNL     1      11.357  -4.987   1.281  0.00  0.00    +0.192 A 
ATOM     11  C   UNL     1      12.259  -5.481   0.382  0.00  0.00    +0.056 A 
ATOM     12  C   UNL     1      13.294  -6.067   1.128  0.00  0.00    +0.070 A 
ATOM     13  C   UNL     1      12.982  -5.907   2.433  0.00  0.00    +0.246 A 
ATOM     14  O   UNL     1      11.817  -5.252   2.521  0.00  0.00    -0.433 OA
BRANCH  13  15
ATOM     15  S   UNL     1      13.951  -6.464   3.795  0.00  0.00    +0.058 S 
ATOM     16  O   UNL     1      13.062  -6.610   4.894  0.00  0.00    -0.161 OA
ATOM     17  O   UNL     1      14.750  -7.537   3.314  0.00  0.00    -0.161 OA
BRANCH  15  18
ATOM     18  C   UNL     1      15.059  -5.160   4.214  0.00  0.00    +0.097 A 
ATOM     19  C   UNL     1      16.303  -5.091   3.615  0.00  0.00    +0.029 A 
ATOM     20  C   UNL     1      17.173  -4.068   3.943  0.00  0.00    +0.022 A 
ATOM     21  C   UNL     1      16.799  -3.113   4.872  0.00  0.00    +0.041 A 
ATOM     22  C   UNL     1      15.554  -3.183   5.471  0.00  0.00    +0.022 A 
ATOM     23  C   UNL     1      14.683  -4.203   5.138  0.00  0.00    +0.029 A 
ATOM     24 CL   UNL     1      17.890  -1.828   5.285  0.00  0.00    -0.084 Cl
ENDBRANCH  15  18
ENDBRANCH  13  15
ENDBRANCH   7  10
BRANCH   1  25
ATOM     25  S   UNL     1       4.257  -1.011   1.666  0.00  0.00    -0.092 S 
BRANCH  25  26
ATOM     26  C   UNL     1       3.711  -0.707  -0.038  0.00  0.00    +0.111 C 
BRANCH  26  30
ATOM     27  C   UNL     1      -0.017   1.378   0.010  0.00  0.00    +0.000 A 
ATOM     28  C   UNL     1       1.171   2.086   0.002  0.00  0.00    +0.000 A 
ATOM     29  C   UNL     1       2.377   1.411  -0.013  0.00  0.00    +0.004 A 
ATOM     30  C   UNL     1       2.396   0.029  -0.020  0.00  0.00    -0.037 A 
ATOM     31  C   UNL     1       1.208  -0.679  -0.012  0.00  0.00    +0.004 A 
ATOM     32  C   UNL     1       0.002  -0.004   0.002  0.00  0.00    +0.000 A 
ENDBRANCH  26  30
ENDBRANCH  25  26
ENDBRANCH   1  25
TORSDOF 6
