REMARK  Name = ZINC19626235
REMARK  5 active torsions:
REMARK  status: ('A' for Active; 'I' for Inactive)
REMARK    1  A    between atoms: C_1  and  C_2
REMARK    2  A    between atoms: C_5  and  O_15
REMARK    3  A    between atoms: C_8  and  O_13
REMARK    4  A    between atoms: O_13  and  C_14
REMARK    5  A    between atoms: O_15  and  C_16
REMARK                            x       y       z     vdW  Elec       q    Type
REMARK                         _______ _______ _______ _____ _____    ______ ____
ROOT
ATOM      1  C   UNL     1      -1.150   3.503   2.749  0.00  0.00    +0.029 C 
ATOM      2  C   UNL     1      -1.978   2.446   3.483  0.00  0.00    +0.085 C 
ATOM      3  C   UNL     1      -2.243   1.290   2.554  0.00  0.00    +0.018 A 
ATOM      4  C   UNL     1      -1.202   0.835   1.750  0.00  0.00    +0.125 A 
ATOM      5  C   UNL     1      -1.400  -0.225   0.881  0.00  0.00    +0.049 A 
ATOM      6  C   UNL     1      -2.634  -0.843   0.820  0.00  0.00    +0.049 A 
ATOM      7  C   UNL     1      -3.671  -0.392   1.619  0.00  0.00    +0.124 A 
ATOM      8  C   UNL     1      -3.475   0.678   2.487  0.00  0.00    +0.004 A 
ATOM      9  C   UNL     1      -4.634   1.139   3.333  0.00  0.00    +0.054 C 
ATOM     10  C   UNL     1      -4.128   2.010   4.483  0.00  0.00    +0.086 C 
ATOM     11  N   UNL     1      -3.240   3.045   3.929  0.00  0.00    -0.309 NA
ATOM     12  H   UNL     1      -3.035   3.796   4.705  0.00  0.00    +0.123 HD
ENDROOT
BRANCH   7  13
ATOM     13  O   UNL     1      -4.887  -0.997   1.555  0.00  0.00    -0.495 OA
ATOM     14  C   UNL     1      -5.021  -2.089   0.643  0.00  0.00    +0.277 C 
ENDBRANCH   7  13
BRANCH   4  15
ATOM     15  O   UNL     1       0.015   1.438   1.814  0.00  0.00    -0.495 OA
ATOM     16  C   UNL     1       1.041   0.922   0.963  0.00  0.00    +0.277 C 
ENDBRANCH   4  15
TORSDOF 2
