REMARK  Name = ZINC14010850
REMARK  4 active torsions:
REMARK  status: ('A' for Active; 'I' for Inactive)
REMARK    1  A    between atoms: C_1  and  O_2
REMARK    2  A    between atoms: O_2  and  C_3
REMARK    3  A    between atoms: C_8  and  C_9
REMARK    4  A    between atoms: N_16  and  C_19
REMARK                            x       y       z     vdW  Elec       q    Type
REMARK                         _______ _______ _______ _____ _____    ______ ____
ROOT
ATOM      1  C   UNL     1       1.626   3.525  -1.215  0.00  0.00    +0.030 C 
ATOM      2  C   UNL     1       0.891   3.028  -0.153  0.00  0.00    +0.100 C 
ATOM      3  C   UNL     1       1.217   1.731   0.470  0.00  0.00    +0.257 C 
ATOM      4  O   UNL     1       2.147   1.060   0.064  0.00  0.00    -0.270 OA
ATOM      5  N   UNL     1       0.457   1.310   1.502  0.00  0.00    -0.235 N 
ATOM      6  C   UNL     1      -0.573   2.038   1.956  0.00  0.00    +0.320 C 
ATOM      7  O   UNL     1      -1.222   1.599   2.885  0.00  0.00    -0.251 OA
ATOM      8  N   UNL     1      -0.923   3.226   1.442  0.00  0.00    -0.190 N 
ATOM      9  C   UNL     1      -0.253   3.772   0.407  0.00  0.00    +0.263 C 
ATOM     10  O   UNL     1      -0.584   4.849  -0.053  0.00  0.00    -0.269 OA
ATOM     11  H   UNL     1       0.658   0.460   1.922  0.00  0.00    +0.159 HD
ENDROOT
BRANCH   1  17
ATOM     12  C   UNL     1       2.066   5.721  -2.206  0.00  0.00    +0.131 A 
ATOM     13  C   UNL     1       1.615   6.835  -2.891  0.00  0.00    +0.095 A 
ATOM     14  C   UNL     1       0.290   6.919  -3.291  0.00  0.00    +0.170 A 
ATOM     15  C   UNL     1      -0.601   5.878  -3.005  0.00  0.00    +0.167 A 
ATOM     16  C   UNL     1      -0.166   4.761  -2.329  0.00  0.00    +0.061 A 
ATOM     17  C   UNL     1       1.174   4.670  -1.915  0.00  0.00    +0.021 A 
ATOM     18  O   UNL     1      -1.829   6.209  -3.505  0.00  0.00    -0.453 OA
ATOM     19  C   UNL     1      -1.585   7.266  -4.451  0.00  0.00    +0.466 C 
ATOM     20  O   UNL     1      -0.384   7.893  -3.966  0.00  0.00    -0.452 OA
BRANCH  12  22
ATOM     21  C   UNL     1       4.209   6.744  -2.144  0.00  0.00    +0.277 C 
ATOM     22  O   UNL     1       3.363   5.641  -1.815  0.00  0.00    -0.494 OA
ENDBRANCH  12  22
ENDBRANCH   1  17
BRANCH   8  23
ATOM     23  C   UNL     1      -2.014   3.913   1.991  0.00  0.00    +0.047 A 
ATOM     24  C   UNL     1      -1.820   4.801   3.040  0.00  0.00    +0.024 A 
ATOM     25  C   UNL     1      -2.897   5.478   3.579  0.00  0.00    +0.003 A 
ATOM     26  C   UNL     1      -4.168   5.273   3.073  0.00  0.00    +0.015 A 
ATOM     27  C   UNL     1      -4.365   4.389   2.027  0.00  0.00    +0.020 A 
ATOM     28  C   UNL     1      -3.290   3.712   1.482  0.00  0.00    +0.039 A 
ATOM     29 BR   UNL     1      -6.104   4.112   1.340  0.00  0.00    -0.050 Br
ENDBRANCH   8  23
TORSDOF 3
