REMARK  Name = ZINC02952882
REMARK  9 active torsions:
REMARK  status: ('A' for Active; 'I' for Inactive)
REMARK    1  A    between atoms: C_1  and  C_2
REMARK    2  A    between atoms: C_2  and  O_3
REMARK    3  A    between atoms: O_3  and  C_4
REMARK    4  A    between atoms: C_4  and  C_6
REMARK    5  A    between atoms: C_9  and  N_12
REMARK    6  A    between atoms: C_14  and  C_26
REMARK    7  A    between atoms: C_17  and  C_24
REMARK    8  A    between atoms: C_20  and  C_23
REMARK    9  A    between atoms: C_24  and  O_25
REMARK                            x       y       z     vdW  Elec       q    Type
REMARK                         _______ _______ _______ _____ _____    ______ ____
ROOT
ATOM      1  N   UNL     1       5.093   6.382   1.288  0.00  0.00    -0.213 NA
ATOM      2  C   UNL     1       4.315   5.616   0.551  0.00  0.00    +0.233 A 
ATOM      3  C   UNL     1       4.675   4.211   0.277  0.00  0.00    +0.099 A 
ATOM      4  C   UNL     1       3.634   3.331   0.013  0.00  0.00    +0.030 A 
ATOM      5  C   UNL     1       2.276   3.878   0.030  0.00  0.00    +0.027 A 
ATOM      6  C   UNL     1       1.147   3.050   0.040  0.00  0.00    +0.007 A 
ATOM      7  C   UNL     1      -0.100   3.638   0.067  0.00  0.00    +0.117 A 
ATOM      8  N   UNL     1      -0.237   4.951   0.079  0.00  0.00    -0.256 NA
ATOM      9  C   UNL     1       0.793   5.773   0.063  0.00  0.00    +0.081 A 
ATOM     10  C   UNL     1       2.088   5.274   0.034  0.00  0.00    +0.159 A 
ATOM     11  O   UNL     1       3.162   6.097   0.011  0.00  0.00    -0.435 OA
ATOM     12  C   UNL     1       0.564   7.262   0.078  0.00  0.00    +0.069 C 
ENDROOT
BRANCH   1  16
ATOM     13  C   UNL     1       4.208  10.386   1.751  0.00  0.00    +0.059 A 
ATOM     14  C   UNL     1       3.769   9.458   2.702  0.00  0.00    +0.017 A 
ATOM     15  C   UNL     1       4.062   8.134   2.550  0.00  0.00    +0.028 A 
ATOM     16  C   UNL     1       4.801   7.704   1.440  0.00  0.00    +0.068 A 
ATOM     17  C   UNL     1       5.244   8.633   0.491  0.00  0.00    +0.028 A 
ATOM     18  C   UNL     1       4.946   9.956   0.641  0.00  0.00    +0.017 A 
BRANCH  13  19
ATOM     19  C   UNL     1       3.893  11.815   1.916  0.00  0.00    +0.339 C 
ATOM     20  O   UNL     1       3.252  12.188   2.878  0.00  0.00    -0.245 OA
BRANCH  19  21
ATOM     21  O   UNL     1       4.315  12.709   1.000  0.00  0.00    -0.461 OA
BRANCH  21  23
ATOM     22  C   UNL     1       4.529  14.958   0.091  0.00  0.00    +0.048 C 
ATOM     23  C   UNL     1       3.968  14.100   1.227  0.00  0.00    +0.229 C 
ENDBRANCH  21  23
ENDBRANCH  19  21
ENDBRANCH  13  19
ENDBRANCH   1  16
BRANCH   3  24
ATOM     24  C   UNL     1       6.079   3.761   0.283  0.00  0.00    +0.247 C 
ATOM     25  O   UNL     1       6.346   2.597   0.054  0.00  0.00    -0.270 OA
ATOM     26  N   UNL     1       7.067   4.641   0.542  0.00  0.00    -0.325 N 
ATOM     27  H   UNL     1       6.854   5.569   0.725  0.00  0.00    +0.145 HD
ATOM     28  H   UNL     1       7.991   4.345   0.546  0.00  0.00    +0.145 HD
ENDBRANCH   3  24
BRANCH   6  29
ATOM     29  C   UNL     1       1.292   1.550   0.026  0.00  0.00    +0.193 C 
BRANCH  29  30
ATOM     30  O   UNL     1      -0.003   0.946   0.047  0.00  0.00    -0.390 OA
ATOM     31  H   UNL     1       0.014  -0.021   0.040  0.00  0.00    +0.210 HD
ENDBRANCH  29  30
ENDBRANCH   6  29
TORSDOF 7
