REMARK  Name = ZINC64201855
REMARK  10 active torsions:
REMARK  status: ('A' for Active; 'I' for Inactive)
REMARK    1  A    between atoms: C_1  and  C_2
REMARK    2  A    between atoms: C_2  and  C_4
REMARK    3  A    between atoms: C_2  and  O_20
REMARK    4  A    between atoms: N_6  and  C_7
REMARK    5  A    between atoms: C_11  and  S_13
REMARK    6  A    between atoms: S_13  and  N_16
REMARK    7  A    between atoms: N_16  and  C_17
REMARK    8  A    between atoms: N_16  and  C_18
REMARK    9  A    between atoms: O_20  and  C_21
REMARK   10  A    between atoms: C_21  and  C_23
REMARK                            x       y       z     vdW  Elec       q    Type
REMARK                         _______ _______ _______ _____ _____    ______ ____
ROOT
ATOM      1  C   UNL     1       0.495  -0.368  -1.328  0.00  0.00    +0.258 C 
ATOM      2  O   UNL     1      -0.086  -1.014  -2.173  0.00  0.00    -0.271 OA
ATOM      3  N   UNL     1       1.817  -0.131  -1.451  0.00  0.00    -0.282 N 
ATOM      4  H   UNL     1       2.269   0.437  -0.808  0.00  0.00    +0.155 HD
ENDROOT
BRANCH   3   5
ATOM      5  C   UNL     1       2.535  -0.704  -2.507  0.00  0.00    +0.035 A 
ATOM      6  C   UNL     1       3.846  -1.118  -2.312  0.00  0.00    +0.025 A 
ATOM      7  C   UNL     1       4.553  -1.683  -3.356  0.00  0.00    +0.024 A 
ATOM      8  C   UNL     1       3.955  -1.837  -4.594  0.00  0.00    +0.067 A 
ATOM      9  C   UNL     1       2.648  -1.426  -4.791  0.00  0.00    +0.125 A 
ATOM     10  C   UNL     1       1.935  -0.866  -3.749  0.00  0.00    +0.053 A 
ATOM     11 CL   UNL     1       4.846  -2.547  -5.904  0.00  0.00    -0.082 Cl
BRANCH   9  12
ATOM     12  S   UNL     1       1.891  -1.624  -6.370  0.00  0.00    +0.062 S 
ATOM     13  O   UNL     1       0.591  -1.058  -6.270  0.00  0.00    -0.153 OA
ATOM     14  O   UNL     1       2.840  -1.188  -7.333  0.00  0.00    -0.153 OA
BRANCH  12  15
ATOM     15  N   UNL     1       1.683  -3.249  -6.612  0.00  0.00    -0.183 NA
ATOM     16  C   UNL     1       0.526  -3.934  -6.030  0.00  0.00    +0.131 C 
ATOM     17  C   UNL     1       2.655  -4.001  -7.409  0.00  0.00    +0.131 C 
ENDBRANCH  12  15
ENDBRANCH   9  12
ENDBRANCH   3   5
BRANCH   1  19
ATOM     18  C   UNL     1      -0.259   1.699  -0.184  0.00  0.00    +0.062 C 
ATOM     19  C   UNL     1      -0.259   0.170  -0.139  0.00  0.00    +0.259 C 
BRANCH  19  20
ATOM     20  O   UNL     1      -1.605  -0.308  -0.173  0.00  0.00    -0.449 OA
BRANCH  20  21
ATOM     21  C   UNL     1      -2.224  -0.477   1.011  0.00  0.00    +0.340 C 
ATOM     22  O   UNL     1      -1.637  -0.226   2.045  0.00  0.00    -0.245 OA
BRANCH  21  23
ATOM     23  C   UNL     1      -3.617  -0.968   1.053  0.00  0.00    +0.061 A 
ATOM     24  C   UNL     1      -4.288  -1.262  -0.137  0.00  0.00    +0.015 A 
ATOM     25  C   UNL     1      -5.592  -1.722  -0.097  0.00  0.00    +0.008 A 
ATOM     26  C   UNL     1      -6.223  -1.888   1.109  0.00  0.00    +0.000 A 
ATOM     27  C   UNL     1      -5.572  -1.600   2.316  0.00  0.00    +0.089 A 
ATOM     28  C   UNL     1      -4.255  -1.142   2.280  0.00  0.00    +0.044 A 
ATOM     29  N   UNL     1      -6.430  -1.855   3.346  0.00  0.00    -0.178 NA
ATOM     30  N   UNL     1      -7.540  -2.264   3.005  0.00  0.00    -0.304 N 
ATOM     31  C   UNL     1      -7.596  -2.354   1.536  0.00  0.00    +0.171 C 
ATOM     32  H   UNL     1      -8.264  -2.492   3.609  0.00  0.00    +0.183 HD
ENDBRANCH  21  23
ENDBRANCH  20  21
ENDBRANCH  19  20
ENDBRANCH   1  19
TORSDOF 7
