REMARK  Name = ZINC06136299
REMARK  8 active torsions:
REMARK  status: ('A' for Active; 'I' for Inactive)
REMARK    1  A    between atoms: C_1  and  O_2
REMARK    2  A    between atoms: O_2  and  C_3
REMARK    3  A    between atoms: C_3  and  C_4
REMARK    4  A    between atoms: C_4  and  N_5
REMARK    5  A    between atoms: C_6  and  C_10
REMARK    6  A    between atoms: C_10  and  C_12
REMARK    7  A    between atoms: C_10  and  N_63
REMARK    8  A    between atoms: N_29  and  C_32
REMARK                            x       y       z     vdW  Elec       q    Type
REMARK                         _______ _______ _______ _____ _____    ______ ____
ROOT
ATOM      1  C   UNL     1       0.484   5.457  -1.033  0.00  0.00    +0.039 C 
ENDROOT
BRANCH   1   2
ATOM      2  C   UNL     1      -0.109   5.959  -2.325  0.00  0.00    +0.011 A 
ATOM      3  C   UNL     1       0.625   6.758  -3.140  0.00  0.00    +0.017 A 
ATOM      4  C   UNL     1       0.024   7.224  -4.389  0.00  0.00    +0.002 A 
ATOM      5  C   UNL     1       0.738   8.045  -5.272  0.00  0.00    +0.059 A 
ATOM      6  C   UNL     1       0.142   8.474  -6.437  0.00  0.00    +0.167 A 
ATOM      7  C   UNL     1      -1.170   8.091  -6.742  0.00  0.00    +0.168 A 
ATOM      8  C   UNL     1      -1.881   7.280  -5.876  0.00  0.00    +0.075 A 
ATOM      9  C   UNL     1      -1.295   6.839  -4.697  0.00  0.00    +0.053 A 
ATOM     10  N   UNL     1      -1.989   6.028  -3.822  0.00  0.00    -0.322 N 
ATOM     11  H   UNL     1      -2.926   5.755  -4.041  0.00  0.00    +0.169 HD
ATOM     12  C   UNL     1      -1.425   5.601  -2.679  0.00  0.00    +0.251 A 
ATOM     13  O   UNL     1      -2.068   4.886  -1.930  0.00  0.00    -0.268 OA
ATOM     14  O   UNL     1      -1.516   8.646  -7.939  0.00  0.00    -0.453 OA
ATOM     15  C   UNL     1      -0.561   9.700  -8.166  0.00  0.00    +0.466 C 
ATOM     16  O   UNL     1       0.609   9.266  -7.448  0.00  0.00    -0.453 OA
ENDBRANCH   1   2
BRANCH   1  22
ATOM     17  C   UNL     1       1.076   3.373  -2.115  0.00  0.00    -0.058 C 
ATOM     18  C   UNL     1       0.874   1.857  -2.068  0.00  0.00    +0.086 C 
ATOM     19  N   UNL     1       1.383   1.337  -0.792  0.00  0.00    -0.331 N 
ATOM     20  C   UNL     1       0.683   1.956   0.343  0.00  0.00    +0.086 C 
ATOM     21  C   UNL     1       0.885   3.473   0.296  0.00  0.00    -0.058 C 
ATOM     22  N   UNL     1       0.350   3.986  -0.983  0.00  0.00    +0.391 N 
ATOM     23  H   UNL     1      -0.644   3.739  -1.051  0.00  0.00    -0.080 HD
BRANCH  19  24
ATOM     24  C   UNL     1       1.281  -0.057  -0.742  0.00  0.00    +0.065 A 
ATOM     25  C   UNL     1       0.039  -0.668  -0.849  0.00  0.00    +0.026 A 
ATOM     26  C   UNL     1      -0.059  -2.046  -0.804  0.00  0.00    +0.002 A 
ATOM     27  C   UNL     1       1.078  -2.816  -0.643  0.00  0.00    +0.003 A 
ATOM     28  C   UNL     1       2.317  -2.212  -0.531  0.00  0.00    +0.040 A 
ATOM     29  C   UNL     1       2.422  -0.835  -0.580  0.00  0.00    +0.144 A 
ATOM     30  F   UNL     1       3.633  -0.244  -0.469  0.00  0.00    -0.204 F 
ENDBRANCH  19  24
ENDBRANCH   1  22
BRANCH   1  32
ATOM     31  N   UNL     1       0.164   7.046   0.936  0.00  0.00    -0.228 N 
ATOM     32  C   UNL     1      -0.265   6.057   0.129  0.00  0.00    +0.143 A 
ATOM     33  N   UNL     1      -1.461   5.722   0.547  0.00  0.00    -0.115 NA
ATOM     34  N   UNL     1      -1.749   6.460   1.562  0.00  0.00    -0.023 NA
ATOM     35  N   UNL     1      -0.771   7.263   1.799  0.00  0.00    -0.044 NA
BRANCH  31  36
ATOM     36  C   UNL     1       1.449   7.744   0.852  0.00  0.00    +0.175 C 
BRANCH  36  37
ATOM     37  C   UNL     1       1.308   8.963  -0.062  0.00  0.00    +0.183 C 
BRANCH  37  39
ATOM     38  C   UNL     1       2.539  10.804  -0.978  0.00  0.00    +0.194 C 
ATOM     39  O   UNL     1       2.562   9.644  -0.144  0.00  0.00    -0.381 OA
ENDBRANCH  37  39
ENDBRANCH  36  37
ENDBRANCH  31  36
ENDBRANCH   1  32
TORSDOF 7
