REMARK  Name = ZINC13077901
REMARK  8 active torsions:
REMARK  status: ('A' for Active; 'I' for Inactive)
REMARK    1  A    between atoms: C_1  and  C_2
REMARK    2  A    between atoms: C_3  and  C_7
REMARK    3  A    between atoms: C_10  and  S_22
REMARK    4  A    between atoms: N_11  and  N_12
REMARK    5  A    between atoms: C_13  and  C_14
REMARK    6  A    between atoms: C_19  and  O_20
REMARK    7  A    between atoms: S_22  and  C_23
REMARK    8  A    between atoms: C_23  and  C_24
REMARK                            x       y       z     vdW  Elec       q    Type
REMARK                         _______ _______ _______ _____ _____    ______ ____
ROOT
ATOM      1  C   UNL     1       1.052   0.359   4.647  0.00  0.00    +0.189 A 
ATOM      2  N   UNL     1       1.759  -0.128   3.653  0.00  0.00    -0.126 NA
ATOM      3  N   UNL     1       1.240   0.221   2.531  0.00  0.00    -0.120 NA
ATOM      4  C   UNL     1       0.174   0.961   2.735  0.00  0.00    +0.213 A 
ATOM      5  N   UNL     1       0.013   1.073   4.091  0.00  0.00    -0.187 N 
ENDROOT
BRANCH   1   8
ATOM      6  C   UNL     1       3.412  -1.277   5.905  0.00  0.00    +0.087 C 
ATOM      7  C   UNL     1       2.338  -0.530   6.653  0.00  0.00    +0.113 A 
ATOM      8  C   UNL     1       1.320   0.176   6.090  0.00  0.00    +0.062 A 
ATOM      9  C   UNL     1       0.539   0.713   7.212  0.00  0.00    +0.053 A 
ATOM     10  C   UNL     1       1.156   0.290   8.328  0.00  0.00    +0.196 A 
ATOM     11  O   UNL     1       2.225  -0.444   7.986  0.00  0.00    -0.467 OA
ENDBRANCH   1   8
BRANCH   5  12
ATOM     12  N   UNL     1      -0.997   1.767   4.770  0.00  0.00    -0.170 NA
ATOM     13  C   UNL     1      -2.101   1.163   5.085  0.00  0.00    +0.145 C 
BRANCH  13  14
ATOM     14  C   UNL     1      -3.163   1.893   5.799  0.00  0.00    +0.037 A 
ATOM     15  C   UNL     1      -4.353   1.246   6.140  0.00  0.00    +0.028 A 
ATOM     16  C   UNL     1      -5.343   1.936   6.809  0.00  0.00    +0.019 A 
ATOM     17  C   UNL     1      -5.162   3.268   7.143  0.00  0.00    +0.019 A 
ATOM     18  C   UNL     1      -3.990   3.919   6.811  0.00  0.00    +0.047 A 
ATOM     19  C   UNL     1      -2.982   3.239   6.145  0.00  0.00    +0.126 A 
ATOM     20 BR   UNL     1      -6.955   1.060   7.270  0.00  0.00    -0.050 Br
BRANCH  19  21
ATOM     21  O   UNL     1      -1.827   3.877   5.824  0.00  0.00    -0.506 OA
ATOM     22  H   UNL     1      -1.843   4.307   4.957  0.00  0.00    +0.292 HD
ENDBRANCH  19  21
ENDBRANCH  13  14
ENDBRANCH   5  12
BRANCH   4  23
ATOM     23  S   UNL     1      -0.860   1.669   1.497  0.00  0.00    -0.073 S 
BRANCH  23  24
ATOM     24  C   UNL     1      -0.013   1.086   0.008  0.00  0.00    +0.202 C 
BRANCH  24  25
ATOM     25  C   UNL     1      -0.742   1.585  -1.213  0.00  0.00    +0.366 C 
ATOM     26  O   UNL     1      -1.732   2.266  -1.089  0.00  0.00    -0.245 OA
ATOM     27  O   UNL     1      -0.290   1.274  -2.438  0.00  0.00    -0.245 OA
ENDBRANCH  24  25
ENDBRANCH  23  24
ENDBRANCH   4  23
TORSDOF 7
