REMARK  Name = ZINC06149318
REMARK  9 active torsions:
REMARK  status: ('A' for Active; 'I' for Inactive)
REMARK    1  A    between atoms: C_1  and  C_2
REMARK    2  A    between atoms: C_2  and  C_3
REMARK    3  A    between atoms: C_3  and  C_4
REMARK    4  A    between atoms: C_3  and  C_5
REMARK    5  A    between atoms: C_3  and  N_6
REMARK    6  A    between atoms: C_7  and  C_11
REMARK    7  A    between atoms: C_11  and  C_13
REMARK    8  A    between atoms: C_11  and  N_72
REMARK    9  A    between atoms: C_19  and  C_25
REMARK                            x       y       z     vdW  Elec       q    Type
REMARK                         _______ _______ _______ _____ _____    ______ ____
ROOT
ATOM      1  C   UNL     1       0.134  -2.924   4.984  0.00  0.00    +0.039 C 
ENDROOT
BRANCH   1   2
ATOM      2  C   UNL     1       0.296  -2.011   3.796  0.00  0.00    +0.011 A 
ATOM      3  C   UNL     1       0.308  -2.528   2.543  0.00  0.00    +0.017 A 
ATOM      4  C   UNL     1       0.468  -1.613   1.411  0.00  0.00    -0.001 A 
ATOM      5  C   UNL     1       0.488  -2.088   0.095  0.00  0.00    +0.010 A 
ATOM      6  C   UNL     1       0.638  -1.208  -0.940  0.00  0.00    +0.001 A 
ATOM      7  C   UNL     1       0.765   0.153  -0.697  0.00  0.00    +0.005 A 
ATOM      8  C   UNL     1       0.754   0.642   0.591  0.00  0.00    -0.026 A 
ATOM      9  C   UNL     1       0.602  -0.235   1.661  0.00  0.00    +0.052 A 
ATOM     10  N   UNL     1       0.582   0.228   2.959  0.00  0.00    -0.322 N 
ATOM     11  H   UNL     1       0.677   1.207   3.135  0.00  0.00    +0.169 HD
ATOM     12  C   UNL     1       0.434  -0.620   3.993  0.00  0.00    +0.251 A 
ATOM     13  O   UNL     1       0.420  -0.176   5.128  0.00  0.00    -0.268 OA
ATOM     14  C   UNL     1       0.899   2.121   0.840  0.00  0.00    +0.046 C 
ENDBRANCH   1   2
BRANCH   1  25
ATOM     15  C   UNL     1       1.014  -3.424   7.183  0.00  0.00    -0.077 C 
ATOM     16  C   UNL     1       2.119  -3.069   8.181  0.00  0.00    -0.018 C 
ATOM     17  C   UNL     1       3.476  -3.468   7.595  0.00  0.00    +0.003 C 
ATOM     18  C   UNL     1       3.674  -2.754   6.255  0.00  0.00    -0.044 C 
ATOM     19  C   UNL     1       2.524  -3.118   5.313  0.00  0.00    -0.071 C 
ATOM     20  C   UNL     1       3.689  -1.241   6.481  0.00  0.00    +0.005 C 
ATOM     21  C   UNL     1       3.889  -0.526   5.143  0.00  0.00    +0.000 C 
ATOM     22  C   UNL     1       5.219  -0.964   4.525  0.00  0.00    +0.000 C 
ATOM     23  C   UNL     1       5.202  -2.476   4.297  0.00  0.00    +0.000 C 
ATOM     24  C   UNL     1       5.002  -3.192   5.635  0.00  0.00    +0.005 C 
ATOM     25  N   UNL     1       1.249  -2.686   5.923  0.00  0.00    +0.390 N 
ATOM     26  H   UNL     1       1.302  -1.682   6.131  0.00  0.00    -0.080 HD
ENDBRANCH   1  25
BRANCH   1  28
ATOM     27  N   UNL     1      -2.258  -3.406   5.726  0.00  0.00    -0.225 N 
ATOM     28  C   UNL     1      -1.168  -2.618   5.679  0.00  0.00    +0.143 A 
ATOM     29  N   UNL     1      -1.461  -1.531   6.349  0.00  0.00    -0.115 NA
ATOM     30  N   UNL     1      -2.666  -1.647   6.790  0.00  0.00    -0.023 NA
ATOM     31  N   UNL     1      -3.150  -2.781   6.418  0.00  0.00    -0.043 NA
BRANCH  27  32
ATOM     32  C   UNL     1      -2.404  -4.728   5.111  0.00  0.00    +0.061 C 
ATOM     33  C   UNL     1      -2.152  -4.620   3.605  0.00  0.00    +0.036 C 
ATOM     34  C   UNL     1      -1.391  -5.693   5.729  0.00  0.00    +0.036 C 
BRANCH  32  36
ATOM     35  C   UNL     1      -3.974  -6.630   4.711  0.00  0.00    +0.006 C 
ATOM     36  C   UNL     1      -3.822  -5.250   5.354  0.00  0.00    +0.026 C 
ENDBRANCH  32  36
ENDBRANCH  27  32
ENDBRANCH   1  28
TORSDOF 5
