REMARK  Name = ZINC23858242
REMARK  9 active torsions:
REMARK  status: ('A' for Active; 'I' for Inactive)
REMARK    1  A    between atoms: C_1  and  N_2
REMARK    2  A    between atoms: C_10  and  C_12
REMARK    3  A    between atoms: C_12  and  C_14
REMARK    4  A    between atoms: C_12  and  N_28
REMARK    5  A    between atoms: C_14  and  N_15
REMARK    6  A    between atoms: C_16  and  C_18
REMARK    7  A    between atoms: C_23  and  N_24
REMARK    8  A    between atoms: N_28  and  C_29
REMARK    9  A    between atoms: N_28  and  C_30
REMARK                            x       y       z     vdW  Elec       q    Type
REMARK                         _______ _______ _______ _____ _____    ______ ____
ROOT
ATOM      1  C   UNL     1       1.853  -1.573   2.307  0.00  0.00    -0.021 C 
ENDROOT
BRANCH   1  11
ATOM      2  C   UNL     1       3.960   4.381   2.211  0.00  0.00    +0.129 C 
ATOM      3  N   UNL     1       4.695   3.283   1.569  0.00  0.00    -0.333 N 
ATOM      4  C   UNL     1       6.092   3.261   2.007  0.00  0.00    +0.105 C 
ATOM      5  C   UNL     1       6.800   2.082   1.327  0.00  0.00    +0.024 C 
ATOM      6  C   UNL     1       6.221   0.788   1.905  0.00  0.00    +0.038 C 
ATOM      7  C   UNL     1       4.715   0.867   1.915  0.00  0.00    -0.026 A 
ATOM      8  C   UNL     1       4.042   2.066   1.760  0.00  0.00    +0.033 A 
ATOM      9  C   UNL     1       2.646   2.078   1.789  0.00  0.00    +0.023 A 
ATOM     10  C   UNL     1       1.942   0.905   1.960  0.00  0.00    +0.004 A 
ATOM     11  C   UNL     1       2.620  -0.290   2.116  0.00  0.00    -0.059 A 
ATOM     12  C   UNL     1       4.000  -0.307   2.091  0.00  0.00    +0.007 A 
ENDBRANCH   1  11
BRANCH   1  13
ATOM     13  N   UNL     1       0.729  -1.341   3.224  0.00  0.00    +0.382 N 
ATOM     14  C   UNL     1      -0.487  -0.974   2.486  0.00  0.00    -0.096 C 
ATOM     15  C   UNL     1       0.494  -2.514   4.077  0.00  0.00    -0.096 C 
ATOM     16  H   UNL     1       0.995  -0.496   3.877  0.00  0.00    -0.082 HD
ENDBRANCH   1  13
BRANCH   1  17
ATOM     17  C   UNL     1       1.317  -2.053   0.956  0.00  0.00    +0.094 C 
BRANCH  17  18
ATOM     18  N   UNL     1       0.685  -3.365   1.119  0.00  0.00    -0.313 N 
ATOM     19  C   UNL     1       0.052  -3.941   0.078  0.00  0.00    +0.246 C 
ATOM     20  O   UNL     1       0.004  -3.373  -0.995  0.00  0.00    -0.270 OA
ATOM     21  H   UNL     1       0.728  -3.879   2.090  0.00  0.00    +0.149 HD
BRANCH  19  22
ATOM     22  C   UNL     1      -0.586  -5.265   0.243  0.00  0.00    +0.068 A 
ATOM     23  C   UNL     1      -0.639  -5.866   1.502  0.00  0.00    +0.035 A 
ATOM     24  C   UNL     1      -1.241  -7.100   1.649  0.00  0.00    +0.042 A 
ATOM     25  C   UNL     1      -1.780  -7.746   0.549  0.00  0.00    +0.022 A 
ATOM     26  C   UNL     1      -1.724  -7.158  -0.702  0.00  0.00    +0.035 A 
ATOM     27  C   UNL     1      -1.131  -5.922  -0.861  0.00  0.00    +0.138 A 
ATOM     28 CL   UNL     1      -1.315  -7.846   3.215  0.00  0.00    -0.084 Cl
BRANCH  27  29
ATOM     29  N   UNL     1      -1.072  -5.295  -2.201  0.00  0.00    +0.057 N 
ATOM     30  O   UNL     1      -2.071  -5.250  -2.896  0.00  0.00    -0.126 OA
ATOM     31  O   UNL     1      -0.025  -4.825  -2.607  0.00  0.00    -0.126 OA
ENDBRANCH  27  29
ENDBRANCH  19  22
ENDBRANCH  17  18
ENDBRANCH   1  17
TORSDOF 6
