REMARK  Name = ZINC13018765
REMARK  12 active torsions:
REMARK  status: ('A' for Active; 'I' for Inactive)
REMARK    1  A    between atoms: C_1  and  C_2
REMARK    2  A    between atoms: C_5  and  C_8
REMARK    3  A    between atoms: C_11  and  S_17
REMARK    4  A    between atoms: N_12  and  C_13
REMARK    5  A    between atoms: C_13  and  C_14
REMARK    6  A    between atoms: C_14  and  C_15
REMARK    7  A    between atoms: S_17  and  C_18
REMARK    8  A    between atoms: C_18  and  C_20
REMARK    9  A    between atoms: C_18  and  C_21
REMARK   10  A    between atoms: N_23  and  C_24
REMARK   11  A    between atoms: C_29  and  O_30
REMARK   12  A    between atoms: O_30  and  C_31
REMARK                            x       y       z     vdW  Elec       q    Type
REMARK                         _______ _______ _______ _____ _____    ______ ____
ROOT
ATOM      1  C   UNL     1      -0.099   0.090  -0.259  0.00  0.00    +0.165 A 
ATOM      2  N   UNL     1       1.085  -0.428  -0.029  0.00  0.00    -0.128 NA
ATOM      3  N   UNL     1       1.951   0.508   0.130  0.00  0.00    -0.122 NA
ATOM      4  C   UNL     1       1.372   1.682   0.011  0.00  0.00    +0.193 A 
ATOM      5  N   UNL     1       0.049   1.458  -0.240  0.00  0.00    -0.302 N 
ENDROOT
BRANCH   1  10
ATOM      6  C   UNL     1      -4.984  -2.810  -1.175  0.00  0.00    +0.044 C 
ATOM      7  C   UNL     1      -3.705  -2.050  -0.935  0.00  0.00    -0.050 A 
ATOM      8  C   UNL     1      -3.753  -0.710  -0.594  0.00  0.00    +0.004 A 
ATOM      9  C   UNL     1      -2.585  -0.009  -0.373  0.00  0.00    +0.012 A 
ATOM     10  C   UNL     1      -1.354  -0.655  -0.494  0.00  0.00    +0.019 A 
ATOM     11  C   UNL     1      -1.312  -2.005  -0.845  0.00  0.00    +0.012 A 
ATOM     12  C   UNL     1      -2.487  -2.696  -1.057  0.00  0.00    +0.004 A 
ENDBRANCH   1  10
BRANCH   5  13
ATOM     13  C   UNL     1      -0.995   2.464  -0.453  0.00  0.00    +0.137 C 
BRANCH  13  14
ATOM     14  C   UNL     1      -1.574   2.890   0.898  0.00  0.00    +0.147 C 
BRANCH  14  15
ATOM     15  C   UNL     1      -2.648   3.925   0.680  0.00  0.00    +0.358 C 
ATOM     16  O   UNL     1      -2.921   4.285  -0.441  0.00  0.00    -0.246 OA
ATOM     17  O   UNL     1      -3.300   4.447   1.730  0.00  0.00    -0.246 OA
ENDBRANCH  14  15
ENDBRANCH  13  14
ENDBRANCH   5  13
BRANCH   4  18
ATOM     18  S   UNL     1       2.158   3.253   0.150  0.00  0.00    -0.074 S 
BRANCH  18  19
ATOM     19  C   UNL     1       3.858   2.726   0.480  0.00  0.00    +0.137 C 
ATOM     20  C   UNL     1       3.916   2.004   1.827  0.00  0.00    +0.029 C 
BRANCH  19  21
ATOM     21  C   UNL     1       4.760   3.933   0.518  0.00  0.00    +0.230 C 
ATOM     22  O   UNL     1       4.303   5.023   0.794  0.00  0.00    -0.274 OA
ATOM     23  N   UNL     1       6.073   3.802   0.244  0.00  0.00    -0.282 N 
ATOM     24  H   UNL     1       6.425   2.946  -0.044  0.00  0.00    +0.155 HD
BRANCH  23  25
ATOM     25  C   UNL     1       6.929   4.903   0.377  0.00  0.00    +0.076 A 
ATOM     26  C   UNL     1       6.463   6.183   0.114  0.00  0.00    +0.027 A 
ATOM     27  C   UNL     1       7.308   7.268   0.252  0.00  0.00    +0.002 A 
ATOM     28  C   UNL     1       8.622   7.080   0.639  0.00  0.00    +0.004 A 
ATOM     29  C   UNL     1       9.096   5.808   0.897  0.00  0.00    +0.048 A 
ATOM     30  C   UNL     1       8.253   4.715   0.768  0.00  0.00    +0.148 A 
BRANCH  30  31
ATOM     31  O   UNL     1       8.718   3.463   1.021  0.00  0.00    -0.432 OA
BRANCH  31  32
ATOM     32  C   UNL     1      10.086   3.346   1.417  0.00  0.00    +0.541 C 
ATOM     33  F   UNL     1      10.909   3.855   0.407  0.00  0.00    -0.166 F 
ATOM     34  F   UNL     1      10.293   4.069   2.596  0.00  0.00    -0.166 F 
ENDBRANCH  31  32
ENDBRANCH  30  31
ENDBRANCH  23  25
ENDBRANCH  19  21
ENDBRANCH  18  19
ENDBRANCH   4  18
TORSDOF 10
