REMARK  Name = ZINC04757211
REMARK  5 active torsions:
REMARK  status: ('A' for Active; 'I' for Inactive)
REMARK    1  A    between atoms: C_1  and  O_2
REMARK    2  A    between atoms: O_2  and  C_3
REMARK    3  A    between atoms: C_6  and  N_9
REMARK    4  A    between atoms: C_10  and  C_32
REMARK    5  A    between atoms: C_12  and  C_18
REMARK                            x       y       z     vdW  Elec       q    Type
REMARK                         _______ _______ _______ _____ _____    ______ ____
ROOT
ATOM      1  N   UNL     1       2.461  -2.421  -4.338  0.00  0.00    -0.263 N 
ATOM      2  C   UNL     1       2.559  -3.875  -4.317  0.00  0.00    +0.123 C 
ATOM      3  C   UNL     1       2.842  -4.412  -5.721  0.00  0.00    +0.101 C 
ATOM      4  C   UNL     1       4.035  -3.649  -6.308  0.00  0.00    +0.024 C 
ATOM      5  C   UNL     1       3.612  -2.197  -6.545  0.00  0.00    +0.097 C 
ATOM      6  C   UNL     1       2.940  -1.653  -5.317  0.00  0.00    +0.220 C 
ATOM      7  O   UNL     1       2.831  -0.450  -5.208  0.00  0.00    -0.275 OA
ENDROOT
BRANCH   3   8
ATOM      8  C   UNL     1       3.166  -5.882  -5.644  0.00  0.00    +0.221 C 
ATOM      9  O   UNL     1       3.630  -6.348  -4.625  0.00  0.00    -0.275 OA
ATOM     10  N   UNL     1       2.941  -6.679  -6.707  0.00  0.00    -0.298 N 
ATOM     11  C   UNL     1       2.501  -6.109  -7.989  0.00  0.00    +0.126 C 
ATOM     12  C   UNL     1       3.479  -6.552  -9.084  0.00  0.00    +0.125 C 
ATOM     13  N   UNL     1       3.669  -8.006  -8.983  0.00  0.00    -0.314 N 
ATOM     14  C   UNL     1       4.109  -8.576  -7.702  0.00  0.00    +0.125 C 
ATOM     15  C   UNL     1       3.136  -8.132  -6.608  0.00  0.00    +0.126 C 
ATOM     16  C   UNL     1       3.436  -8.827 -10.080  0.00  0.00    +0.099 A 
ATOM     17  C   UNL     1       2.893  -8.288 -11.242  0.00  0.00    +0.042 A 
ATOM     18  C   UNL     1       2.667  -9.117 -12.326  0.00  0.00    +0.005 A 
ATOM     19  C   UNL     1       2.993 -10.462 -12.211  0.00  0.00    +0.018 A 
ATOM     20  C   UNL     1       3.529 -10.930 -11.028  0.00  0.00    +0.084 A 
ATOM     21  N   UNL     1       3.739 -10.114 -10.012  0.00  0.00    -0.350 N 
ATOM     22  H   UNL     1       4.120 -10.468  -9.193  0.00  0.00    +0.166 HD
ENDBRANCH   3   8
BRANCH   2  23
ATOM     23  C   UNL     1       1.261  -4.455  -3.819  0.00  0.00    -0.026 A 
ATOM     24  C   UNL     1       0.058  -3.907  -4.224  0.00  0.00    +0.008 A 
ATOM     25  C   UNL     1      -1.133  -4.439  -3.768  0.00  0.00    +0.038 A 
ATOM     26  C   UNL     1      -1.122  -5.521  -2.904  0.00  0.00    +0.123 A 
ATOM     27  C   UNL     1       0.083  -6.069  -2.498  0.00  0.00    +0.038 A 
ATOM     28  C   UNL     1       1.273  -5.539  -2.960  0.00  0.00    +0.008 A 
ATOM     29  F   UNL     1      -2.286  -6.041  -2.457  0.00  0.00    -0.205 F 
ENDBRANCH   2  23
BRANCH   1  33
ATOM     30  C   UNL     1       0.544  -0.547  -1.144  0.00  0.00    +0.120 A 
ATOM     31  C   UNL     1       0.088  -0.349  -2.439  0.00  0.00    +0.047 A 
ATOM     32  C   UNL     1       0.722  -0.969  -3.497  0.00  0.00    +0.027 A 
ATOM     33  C   UNL     1       1.817  -1.791  -3.265  0.00  0.00    +0.037 A 
ATOM     34  C   UNL     1       2.273  -1.989  -1.968  0.00  0.00    +0.027 A 
ATOM     35  C   UNL     1       1.641  -1.364  -0.912  0.00  0.00    +0.047 A 
BRANCH  30  37
ATOM     36  C   UNL     1      -1.204   0.890  -0.414  0.00  0.00    +0.277 C 
ATOM     37  O   UNL     1      -0.081   0.064  -0.102  0.00  0.00    -0.495 OA
ENDBRANCH  30  37
ENDBRANCH   1  33
TORSDOF 4
