REMARK  Name = ZINC06760554
REMARK  6 active torsions:
REMARK  status: ('A' for Active; 'I' for Inactive)
REMARK    1  A    between atoms: C_1  and  C_2
REMARK    2  A    between atoms: C_3  and  C_22
REMARK    3  A    between atoms: N_4  and  C_19
REMARK    4  A    between atoms: C_9  and  C_14
REMARK    5  A    between atoms: C_19  and  C_20
REMARK    6  A    between atoms: C_20  and  O_21
REMARK                            x       y       z     vdW  Elec       q    Type
REMARK                         _______ _______ _______ _____ _____    ______ ____
ROOT
ATOM      1  C   UNL     1      -0.013   1.086   0.008  0.00  0.00    +0.046 C 
ATOM      2  C   UNL     1      -0.718   1.572   1.248  0.00  0.00    -0.017 A 
ATOM      3  C   UNL     1      -2.034   1.827   1.376  0.00  0.00    +0.021 A 
ATOM      4  N   UNL     1      -2.299   2.247   2.651  0.00  0.00    -0.327 N 
ATOM      5  C   UNL     1      -1.143   2.283   3.383  0.00  0.00    +0.147 A 
ATOM      6  C   UNL     1      -0.107   1.863   2.538  0.00  0.00    +0.066 A 
ATOM      7  C   UNL     1       1.247   1.810   3.080  0.00  0.00    +0.169 A 
ATOM      8  N   UNL     1       2.426   1.476   2.595  0.00  0.00    -0.205 NA
ATOM      9  C   UNL     1       3.358   1.613   3.545  0.00  0.00    +0.189 A 
ATOM     10  N   UNL     1       2.787   2.039   4.657  0.00  0.00    -0.143 NA
ATOM     11  N   UNL     1       1.419   2.177   4.390  0.00  0.00    -0.201 N 
ATOM     12  C   UNL     1       0.350   2.570   5.129  0.00  0.00    +0.227 A 
ATOM     13  N   UNL     1      -0.859   2.618   4.649  0.00  0.00    -0.218 NA
ATOM     14  C   UNL     1      -3.059   1.669   0.282  0.00  0.00    +0.064 C 
ENDROOT
BRANCH   9  15
ATOM     15  C   UNL     1       4.799   1.332   3.377  0.00  0.00    +0.058 A 
ATOM     16  C   UNL     1       5.813   1.446   4.290  0.00  0.00    +0.019 A 
ATOM     17  C   UNL     1       7.094   1.124   3.901  0.00  0.00    +0.008 A 
ATOM     18  C   UNL     1       7.314   0.705   2.628  0.00  0.00    +0.046 A 
ATOM     19  S   UNL     1       5.671   0.750   1.931  0.00  0.00    -0.093 S 
ENDBRANCH   9  15
BRANCH   4  20
ATOM     20  C   UNL     1      -3.624   2.611   3.156  0.00  0.00    +0.151 C 
BRANCH  20  21
ATOM     21  C   UNL     1      -3.868   4.103   2.921  0.00  0.00    +0.177 C 
BRANCH  21  22
ATOM     22  O   UNL     1      -5.161   4.458   3.414  0.00  0.00    -0.393 OA
ATOM     23  H   UNL     1      -5.383   5.392   3.298  0.00  0.00    +0.209 HD
ENDBRANCH  21  22
ENDBRANCH  20  21
ENDBRANCH   4  20
TORSDOF 4
