REMARK  Name = ZINC64891111
REMARK  7 active torsions:
REMARK  status: ('A' for Active; 'I' for Inactive)
REMARK    1  A    between atoms: C_1  and  C_2
REMARK    2  A    between atoms: C_5  and  N_8
REMARK    3  A    between atoms: C_10  and  C_15
REMARK    4  A    between atoms: C_17  and  C_20
REMARK    5  A    between atoms: N_30  and  C_31
REMARK    6  A    between atoms: C_31  and  C_32
REMARK    7  A    between atoms: C_31  and  C_33
REMARK                            x       y       z     vdW  Elec       q    Type
REMARK                         _______ _______ _______ _____ _____    ______ ____
ROOT
ATOM      1  C   UNL     1       0.533  -7.479   1.442  0.00  0.00    +0.233 A 
ATOM      2  N   UNL     1       0.064  -8.408   2.224  0.00  0.00    -0.191 NA
ATOM      3  C   UNL     1       1.066  -9.187   2.667  0.00  0.00    +0.202 A 
ATOM      4  N   UNL     1       2.193  -8.748   2.161  0.00  0.00    -0.056 NA
ATOM      5  O   UNL     1       1.861  -7.631   1.351  0.00  0.00    -0.337 OA
ENDROOT
BRANCH   3   6
ATOM      6  C   UNL     1       0.921 -10.349   3.578  0.00  0.00    +0.025 A 
ATOM      7  C   UNL     1      -0.341 -10.717   4.044  0.00  0.00    +0.014 A 
ATOM      8  C   UNL     1      -0.480 -11.796   4.891  0.00  0.00    +0.029 A 
ATOM      9  C   UNL     1       0.638 -12.519   5.282  0.00  0.00    +0.070 A 
ATOM     10  C   UNL     1       1.905 -12.155   4.819  0.00  0.00    +0.068 A 
ATOM     11  C   UNL     1       2.045 -11.076   3.964  0.00  0.00    +0.039 A 
ATOM     12  N   UNL     1       2.811 -13.055   5.376  0.00  0.00    -0.306 N 
ATOM     13  H   UNL     1       3.771 -13.055   5.236  0.00  0.00    +0.170 HD
ATOM     14  C   UNL     1       2.127 -13.925   6.143  0.00  0.00    +0.328 A 
ATOM     15  O   UNL     1       2.620 -14.841   6.773  0.00  0.00    -0.247 OA
ATOM     16  N   UNL     1       0.814 -13.627   6.106  0.00  0.00    -0.290 N 
BRANCH  16  17
ATOM     17  C   UNL     1      -0.248 -14.347   6.813  0.00  0.00    +0.086 C 
ATOM     18  C   UNL     1      -0.272 -15.805   6.349  0.00  0.00    +0.031 C 
ATOM     19  C   UNL     1       0.016 -14.295   8.319  0.00  0.00    +0.031 C 
ENDBRANCH  16  17
ENDBRANCH   3   6
BRANCH   1  22
ATOM     20  N   UNL     1       0.059  -4.170  -0.021  0.00  0.00    -0.271 N 
ATOM     21  C   UNL     1       0.176  -5.003   1.182  0.00  0.00    +0.127 C 
ATOM     22  C   UNL     1      -0.280  -6.415   0.751  0.00  0.00    +0.104 C 
ATOM     23  C   UNL     1       0.013  -6.391  -0.767  0.00  0.00    +0.111 C 
ATOM     24  C   UNL     1      -0.034  -4.923  -1.130  0.00  0.00    +0.221 C 
ATOM     25  O   UNL     1      -0.139  -4.490  -2.258  0.00  0.00    -0.275 OA
BRANCH  20  30
ATOM     26  C   UNL     1      -0.018   1.503   0.010  0.00  0.00    +0.044 C 
ATOM     27  C   UNL     1       0.002  -0.004   0.002  0.00  0.00    -0.050 A 
ATOM     28  C   UNL     1       0.020  -0.687  -1.200  0.00  0.00    +0.005 A 
ATOM     29  C   UNL     1       0.039  -2.068  -1.211  0.00  0.00    +0.024 A 
ATOM     30  C   UNL     1       0.040  -2.771  -0.013  0.00  0.00    +0.036 A 
ATOM     31  C   UNL     1       0.022  -2.082   1.192  0.00  0.00    +0.024 A 
ATOM     32  C   UNL     1       0.009  -0.701   1.197  0.00  0.00    +0.005 A 
ENDBRANCH  20  30
ENDBRANCH   1  22
TORSDOF 4
