REMARK  Name = ZINC38995175
REMARK  8 active torsions:
REMARK  status: ('A' for Active; 'I' for Inactive)
REMARK    1  A    between atoms: C_1  and  C_2
REMARK    2  A    between atoms: C_2  and  O_4
REMARK    3  A    between atoms: O_4  and  C_5
REMARK    4  A    between atoms: C_8  and  C_13
REMARK    5  A    between atoms: C_10  and  O_11
REMARK    6  A    between atoms: O_11  and  C_12
REMARK    7  A    between atoms: N_14  and  N_15
REMARK    8  A    between atoms: C_16  and  C_22
REMARK                            x       y       z     vdW  Elec       q    Type
REMARK                         _______ _______ _______ _____ _____    ______ ____
ROOT
ATOM      1  C   UNL     1      -0.444  -6.253  -0.012  0.00  0.00    +0.138 C 
ATOM      2  N   UNL     1       0.753  -6.755   0.048  0.00  0.00    -0.183 NA
ENDROOT
BRANCH   2   3
ATOM      3  N   UNL     1       0.938  -8.139  -0.059  0.00  0.00    -0.172 N 
ATOM      4  C   UNL     1       2.213  -8.877  -0.124  0.00  0.00    +0.265 C 
ATOM      5  N   UNL     1       1.800 -10.285  -0.229  0.00  0.00    -0.189 NA
ATOM      6  N   UNL     1       0.567 -10.325  -0.224  0.00  0.00    -0.219 N 
ATOM      7  C   UNL     1      -0.012  -9.098  -0.121  0.00  0.00    +0.174 C 
ATOM      8  S   UNL     1      -1.699  -8.811  -0.079  0.00  0.00    -0.015 S 
ATOM      9  H   UNL     1       0.060 -11.150  -0.284  0.00  0.00    +0.176 HD
BRANCH   4  10
ATOM     10  C   UNL     1       3.019  -8.651   1.128  0.00  0.00    +0.016 A 
ATOM     11  C   UNL     1       2.822  -7.508   1.880  0.00  0.00    +0.009 A 
ATOM     12  C   UNL     1       3.562  -7.301   3.030  0.00  0.00    +0.000 A 
ATOM     13  C   UNL     1       4.499  -8.236   3.427  0.00  0.00    +0.001 A 
ATOM     14  C   UNL     1       4.697  -9.379   2.676  0.00  0.00    +0.020 A 
ATOM     15  C   UNL     1       3.953  -9.590   1.529  0.00  0.00    +0.048 A 
ATOM     16 CL   UNL     1       4.197 -11.028   0.588  0.00  0.00    -0.083 Cl
ENDBRANCH   4  10
ENDBRANCH   2   3
BRANCH   1  20
ATOM     17  C   UNL     1      -0.976  -2.038  -0.005  0.00  0.00    +0.173 A 
ATOM     18  C   UNL     1       0.301  -2.576   0.060  0.00  0.00    +0.051 A 
ATOM     19  C   UNL     1       0.478  -3.943   0.058  0.00  0.00    +0.013 A 
ATOM     20  C   UNL     1      -0.631  -4.791  -0.009  0.00  0.00    -0.002 A 
ATOM     21  C   UNL     1      -1.917  -4.249  -0.074  0.00  0.00    +0.059 A 
ATOM     22  C   UNL     1      -2.087  -2.877  -0.067  0.00  0.00    +0.163 A 
BRANCH  22  23
ATOM     23  O   UNL     1      -3.337  -2.346  -0.125  0.00  0.00    -0.491 OA
ATOM     24  C   UNL     1      -4.430  -3.265  -0.186  0.00  0.00    +0.277 C 
ENDBRANCH  22  23
BRANCH  17  25
ATOM     25  O   UNL     1      -1.145  -0.689  -0.003  0.00  0.00    -0.422 OA
BRANCH  25  27
ATOM     26  C   UNL     1      -1.448   1.420   1.245  0.00  0.00    +0.136 C 
ATOM     27  C   UNL     1      -1.368  -0.084   1.174  0.00  0.00    +0.309 C 
ATOM     28  O   UNL     1      -1.506  -0.744   2.176  0.00  0.00    -0.251 OA
ENDBRANCH  25  27
ENDBRANCH  17  25
ENDBRANCH   1  20
TORSDOF 6
