REMARK  Name = ZINC40860975
REMARK  3 active torsions:
REMARK  status: ('A' for Active; 'I' for Inactive)
REMARK    1  A    between atoms: C_6  and  N_7
REMARK    2  A    between atoms: N_7  and  S_8
REMARK    3  A    between atoms: S_8  and  N_11
REMARK                            x       y       z     vdW  Elec       q    Type
REMARK                         _______ _______ _______ _____ _____    ______ ____
ROOT
ATOM      1  C   UNL     1      -0.017   1.384   0.010  0.00  0.00    +0.026 A 
ATOM      2  C   UNL     1       1.173   2.089   0.002  0.00  0.00    +0.018 A 
ATOM      3  C   UNL     1       2.379   1.409  -0.014  0.00  0.00    +0.030 A 
ATOM      4  C   UNL     1       2.409   0.014  -0.025  0.00  0.00    +0.049 A 
ATOM      5  C   UNL     1       1.209  -0.687  -0.015  0.00  0.00    +0.049 A 
ATOM      6  C   UNL     1       0.002  -0.004   0.002  0.00  0.00    +0.051 A 
ATOM      7  N   UNL     1       3.611  -0.689  -0.052  0.00  0.00    -0.284 N 
ATOM      8  C   UNL     1       4.800  -0.230   0.328  0.00  0.00    +0.227 C 
ATOM      9  O   UNL     1       5.754  -0.976   0.252  0.00  0.00    -0.275 OA
ATOM     10  C   UNL     1       5.027   1.164   0.847  0.00  0.00    +0.170 C 
ATOM     11  S   UNL     1       3.902   2.301  -0.019  0.00  0.00    -0.114 S 
ATOM     12  H   UNL     1       3.578  -1.601  -0.380  0.00  0.00    +0.155 HD
ENDROOT
BRANCH   6  13
ATOM     13  N   UNL     1      -1.202  -0.717   0.012  0.00  0.00    -0.206 N 
ATOM     14  H   UNL     1      -1.310  -1.479   0.603  0.00  0.00    +0.175 HD
BRANCH  13  15
ATOM     15  S   UNL     1      -2.443  -0.261  -0.985  0.00  0.00    +0.112 S 
ATOM     16  O   UNL     1      -3.502  -1.183  -0.764  0.00  0.00    -0.138 OA
ATOM     17  O   UNL     1      -2.606   1.140  -0.816  0.00  0.00    -0.138 OA
BRANCH  15  18
ATOM     18  N   UNL     1      -1.930  -0.494  -2.542  0.00  0.00    -0.161 NA
ATOM     19  C   UNL     1      -1.237   0.576  -3.277  0.00  0.00    +0.126 C 
ATOM     20  C   UNL     1      -1.930   0.766  -4.630  0.00  0.00    +0.098 C 
ATOM     21  N   UNL     1      -1.996  -0.525  -5.328  0.00  0.00    -0.313 NA
ATOM     22  C   UNL     1      -2.813  -1.493  -4.584  0.00  0.00    +0.098 C 
ATOM     23  C   UNL     1      -2.151  -1.777  -3.226  0.00  0.00    +0.126 C 
ATOM     24  H   UNL     1      -2.340  -0.410  -6.270  0.00  0.00    +0.122 HD
ENDBRANCH  15  18
ENDBRANCH  13  15
ENDBRANCH   6  13
TORSDOF 3
