REMARK  Name = ZINC47628283
REMARK  10 active torsions:
REMARK  status: ('A' for Active; 'I' for Inactive)
REMARK    1  A    between atoms: C_1  and  C_2
REMARK    2  A    between atoms: C_9  and  C_16
REMARK    3  A    between atoms: C_11  and  O_12
REMARK    4  A    between atoms: C_16  and  N_17
REMARK    5  A    between atoms: N_17  and  C_18
REMARK    6  A    between atoms: N_17  and  C_25
REMARK    7  A    between atoms: C_18  and  C_19
REMARK    8  A    between atoms: C_25  and  C_26
REMARK    9  A    between atoms: C_26  and  O_28
REMARK   10  A    between atoms: O_28  and  C_29
REMARK                            x       y       z     vdW  Elec       q    Type
REMARK                         _______ _______ _______ _____ _____    ______ ____
ROOT
ATOM      1  C   UNL     1       1.889   1.878  -0.147  0.00  0.00    +0.109 C 
ATOM      2  C   UNL     1       1.929   0.372  -0.195  0.00  0.00    +0.214 C 
ATOM      3  O   UNL     1       2.505  -0.250   0.680  0.00  0.00    -0.276 OA
ATOM      4  N   UNL     1       1.339  -0.272  -1.183  0.00  0.00    -0.286 N 
ATOM      5  C   UNL     1       1.248  -1.630  -1.152  0.00  0.00    +0.037 A 
ATOM      6  C   UNL     1       0.951  -2.338  -2.330  0.00  0.00    +0.024 A 
ATOM      7  C   UNL     1       0.858  -3.694  -2.312  0.00  0.00    +0.013 A 
ATOM      8  C   UNL     1       1.060  -4.395  -1.110  0.00  0.00    +0.019 A 
ATOM      9  C   UNL     1       0.968  -5.803  -1.071  0.00  0.00    -0.047 A 
ATOM     10  C   UNL     1       1.175  -6.444   0.134  0.00  0.00    +0.090 A 
ATOM     11  C   UNL     1       1.465  -5.703   1.271  0.00  0.00    +0.285 A 
ATOM     12  O   UNL     1       1.551  -4.369   1.230  0.00  0.00    -0.425 OA
ATOM     13  C   UNL     1       1.358  -3.692   0.078  0.00  0.00    +0.141 A 
ATOM     14  C   UNL     1       1.456  -2.313   0.048  0.00  0.00    +0.070 A 
ATOM     15  H   UNL     1       0.970   0.222  -1.932  0.00  0.00    +0.155 HD
ENDROOT
BRANCH  11  16
ATOM     16  O   UNL     1       1.665  -6.340   2.440  0.00  0.00    -0.480 OA
ATOM     17  H   UNL     1       1.862  -5.751   3.181  0.00  0.00    +0.295 HD
ENDBRANCH  11  16
BRANCH   9  18
ATOM     18  C   UNL     1       0.651  -6.589  -2.317  0.00  0.00    -0.041 C 
BRANCH  18  19
ATOM     19  N   UNL     1       1.901  -7.043  -2.941  0.00  0.00    +0.392 N 
ATOM     20  H   UNL     1       2.501  -6.249  -3.108  0.00  0.00    -0.080 HD
BRANCH  19  21
ATOM     21  C   UNL     1       1.599  -7.705  -4.217  0.00  0.00    -0.042 C 
BRANCH  21  22
ATOM     22  C   UNL     1       1.037  -6.697  -5.186  0.00  0.00    -0.064 A 
ATOM     23  C   UNL     1      -0.327  -6.479  -5.241  0.00  0.00    +0.002 A 
ATOM     24  C   UNL     1      -0.843  -5.554  -6.130  0.00  0.00    +0.000 A 
ATOM     25  C   UNL     1       0.005  -4.847  -6.962  0.00  0.00    +0.000 A 
ATOM     26  C   UNL     1       1.369  -5.065  -6.906  0.00  0.00    +0.000 A 
ATOM     27  C   UNL     1       1.885  -5.987  -6.014  0.00  0.00    +0.002 A 
ENDBRANCH  21  22
ENDBRANCH  19  21
BRANCH  19  28
ATOM     28  C   UNL     1       2.580  -7.989  -2.046  0.00  0.00    +0.045 C 
BRANCH  28  29
ATOM     29  C   UNL     1       3.930  -8.340  -2.616  0.00  0.00    +0.290 C 
ATOM     30  O   UNL     1       4.333  -7.776  -3.606  0.00  0.00    -0.253 OA
BRANCH  29  31
ATOM     31  O   UNL     1       4.686  -9.278  -2.024  0.00  0.00    -0.469 OA
ATOM     32  C   UNL     1       5.955  -9.559  -2.618  0.00  0.00    +0.280 C 
ENDBRANCH  29  31
ENDBRANCH  28  29
ENDBRANCH  19  28
ENDBRANCH  18  19
ENDBRANCH   9  18
TORSDOF 8
