REMARK  Name = ZINC45625699
REMARK  3 active torsions:
REMARK  status: ('A' for Active; 'I' for Inactive)
REMARK    1  A    between atoms: C_4  and  N_8
REMARK    2  A    between atoms: C_9  and  C_11
REMARK    3  A    between atoms: C_13  and  N_18
REMARK                            x       y       z     vdW  Elec       q    Type
REMARK                         _______ _______ _______ _____ _____    ______ ____
ROOT
ATOM      1  N   UNL     1       3.623  -0.651  -0.037  0.00  0.00    -0.279 N 
ATOM      2  C   UNL     1       3.682  -1.939   0.354  0.00  0.00    +0.249 C 
ATOM      3  O   UNL     1       2.661  -2.536   0.635  0.00  0.00    -0.270 OA
ATOM      4  H   UNL     1       4.428  -0.196  -0.331  0.00  0.00    +0.155 HD
ENDROOT
BRANCH   1   8
ATOM      5  C   UNL     1      -0.015   1.381   0.014  0.00  0.00    +0.003 A 
ATOM      6  C   UNL     1       0.789   1.378   1.139  0.00  0.00    +0.022 A 
ATOM      7  C   UNL     1       1.996   0.705   1.125  0.00  0.00    +0.064 A 
ATOM      8  C   UNL     1       2.401   0.031  -0.020  0.00  0.00    +0.071 A 
ATOM      9  C   UNL     1       1.590   0.035  -1.148  0.00  0.00    +0.064 A 
ATOM     10  C   UNL     1       0.385   0.711  -1.128  0.00  0.00    +0.022 A 
ATOM     11 CL   UNL     1       2.092  -0.805  -2.582  0.00  0.00    -0.082 Cl
ATOM     12 CL   UNL     1       3.006   0.703   2.538  0.00  0.00    -0.082 Cl
ENDBRANCH   1   8
BRANCH   2  13
ATOM     13  C   UNL     1       4.987  -2.626   0.443  0.00  0.00    +0.053 A 
ATOM     14  C   UNL     1       6.163  -1.941   0.127  0.00  0.00    +0.047 A 
ATOM     15  C   UNL     1       7.378  -2.588   0.212  0.00  0.00    +0.127 A 
ATOM     16  C   UNL     1       7.435  -3.913   0.609  0.00  0.00    +0.034 A 
ATOM     17  C   UNL     1       6.275  -4.598   0.923  0.00  0.00    +0.018 A 
ATOM     18  C   UNL     1       5.052  -3.961   0.849  0.00  0.00    +0.030 A 
ATOM     19 BR   UNL     1       3.468  -4.896   1.287  0.00  0.00    -0.050 Br
BRANCH  15  20
ATOM     20  N   UNL     1       8.624  -1.864  -0.123  0.00  0.00    +0.056 N 
ATOM     21  O   UNL     1       8.577  -0.707  -0.471  0.00  0.00    -0.126 OA
ATOM     22  O   UNL     1       9.691  -2.429  -0.050  0.00  0.00    -0.126 OA
ENDBRANCH  15  20
ENDBRANCH   2  13
TORSDOF 3
