REMARK  Name = ZINC35176923
REMARK  6 active torsions:
REMARK  status: ('A' for Active; 'I' for Inactive)
REMARK    1  A    between atoms: C_3  and  N_16
REMARK    2  A    between atoms: C_5  and  S_7
REMARK    3  A    between atoms: S_7  and  N_10
REMARK    4  A    between atoms: N_16  and  C_17
REMARK    5  A    between atoms: C_17  and  N_19
REMARK    6  A    between atoms: C_20  and  C_22
REMARK                            x       y       z     vdW  Elec       q    Type
REMARK                         _______ _______ _______ _____ _____    ______ ____
ROOT
ATOM      1  C   UNL     1      -0.005   1.375   0.260  0.00  0.00    +0.004 A 
ATOM      2  C   UNL     1       1.186   2.075   0.259  0.00  0.00    +0.023 A 
ATOM      3  C   UNL     1       2.376   1.417  -0.019  0.00  0.00    +0.034 A 
ATOM      4  C   UNL     1       2.366   0.056  -0.297  0.00  0.00    +0.052 A 
ATOM      5  C   UNL     1       1.172  -0.638  -0.295  0.00  0.00    +0.114 A 
ATOM      6  C   UNL     1      -0.012   0.020  -0.017  0.00  0.00    +0.029 A 
ENDROOT
BRANCH   5   7
ATOM      7  S   UNL     1       1.157  -2.365  -0.647  0.00  0.00    +0.100 S 
ATOM      8  O   UNL     1      -0.147  -2.672  -1.119  0.00  0.00    -0.146 OA
ATOM      9  O   UNL     1       2.326  -2.634  -1.410  0.00  0.00    -0.146 OA
BRANCH   7  10
ATOM     10  N   UNL     1       1.339  -3.160   0.794  0.00  0.00    -0.118 NA
ATOM     11  C   UNL     1       1.363  -4.453   0.821  0.00  0.00    +0.117 C 
ATOM     12  N   UNL     1       1.252  -5.268  -0.274  0.00  0.00    -0.331 N 
ATOM     13  C   UNL     1       1.797  -6.595   0.053  0.00  0.00    +0.103 C 
ATOM     14  C   UNL     1       1.534  -6.758   1.567  0.00  0.00    +0.026 C 
ATOM     15  C   UNL     1       1.522  -5.297   2.066  0.00  0.00    +0.074 C 
ATOM     16  H   UNL     1       0.875  -5.011  -1.130  0.00  0.00    +0.147 HD
ENDBRANCH   7  10
ENDBRANCH   5   7
BRANCH   3  17
ATOM     17  N   UNL     1       3.584   2.123  -0.021  0.00  0.00    -0.297 N 
ATOM     18  H   UNL     1       4.243   1.954  -0.712  0.00  0.00    +0.154 HD
BRANCH  17  19
ATOM     19  C   UNL     1       3.830   3.038   0.937  0.00  0.00    +0.141 C 
ATOM     20  S   UNL     1       2.732   3.236   2.235  0.00  0.00    -0.018 S 
BRANCH  19  21
ATOM     21  N   UNL     1       4.942   3.797   0.874  0.00  0.00    -0.264 N 
ATOM     22  C   UNL     1       5.189   4.712   1.832  0.00  0.00    +0.250 C 
ATOM     23  O   UNL     1       4.409   4.853   2.753  0.00  0.00    -0.270 OA
ATOM     24  H   UNL     1       5.565   3.685   0.138  0.00  0.00    +0.157 HD
BRANCH  22  25
ATOM     25  C   UNL     1       6.407   5.545   1.762  0.00  0.00    +0.037 A 
ATOM     26  C   UNL     1       7.303   5.390   0.702  0.00  0.00    +0.014 A 
ATOM     27  C   UNL     1       8.438   6.170   0.642  0.00  0.00    +0.016 A 
ATOM     28  C   UNL     1       8.691   7.106   1.631  0.00  0.00    +0.018 A 
ATOM     29  C   UNL     1       7.808   7.264   2.686  0.00  0.00    +0.016 A 
ATOM     30  C   UNL     1       6.666   6.493   2.754  0.00  0.00    +0.014 A 
ATOM     31 BR   UNL     1      10.251   8.171   1.542  0.00  0.00    -0.050 Br
ENDBRANCH  22  25
ENDBRANCH  19  21
ENDBRANCH  17  19
ENDBRANCH   3  17
TORSDOF 6
