REMARK  Name = ZINC19174322
REMARK  10 active torsions:
REMARK  status: ('A' for Active; 'I' for Inactive)
REMARK    1  A    between atoms: C_1  and  C_2
REMARK    2  A    between atoms: C_4  and  C_15
REMARK    3  A    between atoms: C_6  and  S_9
REMARK    4  A    between atoms: C_7  and  C_8
REMARK    5  A    between atoms: S_9  and  N_12
REMARK    6  A    between atoms: N_12  and  C_13
REMARK    7  A    between atoms: N_12  and  C_14
REMARK    8  A    between atoms: N_17  and  C_18
REMARK    9  A    between atoms: C_22  and  N_25
REMARK   10  A    between atoms: C_23  and  C_24
REMARK                            x       y       z     vdW  Elec       q    Type
REMARK                         _______ _______ _______ _____ _____    ______ ____
ROOT
ATOM      1  C   UNL     1      -0.500  -0.296  -0.315  0.00  0.00    +0.044 C 
ATOM      2  C   UNL     1      -0.235  -1.774  -0.186  0.00  0.00    -0.045 A 
ATOM      3  C   UNL     1       0.247  -2.484  -1.266  0.00  0.00    +0.016 A 
ATOM      4  C   UNL     1       0.492  -3.853  -1.144  0.00  0.00    +0.039 A 
ATOM      5  C   UNL     1       0.248  -4.494   0.072  0.00  0.00    +0.042 A 
ATOM      6  C   UNL     1      -0.234  -3.772   1.144  0.00  0.00    +0.109 A 
ATOM      7  C   UNL     1      -0.470  -2.414   1.018  0.00  0.00    -0.021 A 
ATOM      8  C   UNL     1      -0.991  -1.631   2.195  0.00  0.00    +0.046 C 
ENDROOT
BRANCH   4   9
ATOM      9  C   UNL     1       1.008  -4.620  -2.297  0.00  0.00    +0.248 C 
ATOM     10  O   UNL     1       1.220  -5.812  -2.188  0.00  0.00    -0.270 OA
ATOM     11  N   UNL     1       1.242  -3.998  -3.470  0.00  0.00    -0.281 N 
ATOM     12  H   UNL     1       1.124  -3.038  -3.542  0.00  0.00    +0.155 HD
BRANCH  11  13
ATOM     13  C   UNL     1       1.656  -4.737  -4.583  0.00  0.00    +0.039 A 
ATOM     14  C   UNL     1       2.413  -5.889  -4.411  0.00  0.00    +0.024 A 
ATOM     15  C   UNL     1       2.820  -6.617  -5.512  0.00  0.00    +0.004 A 
ATOM     16  C   UNL     1       2.475  -6.199  -6.785  0.00  0.00    +0.033 A 
ATOM     17  C   UNL     1       1.721  -5.053  -6.959  0.00  0.00    +0.131 A 
ATOM     18  C   UNL     1       1.305  -4.325  -5.862  0.00  0.00    +0.001 A 
ATOM     19  C   UNL     1       0.478  -3.080  -6.052  0.00  0.00    +0.048 C 
BRANCH  17  20
ATOM     20  N   UNL     1       1.354  -4.611  -8.323  0.00  0.00    +0.057 N 
ATOM     21  O   UNL     1       1.047  -5.426  -9.161  0.00  0.00    -0.126 OA
ATOM     22  O   UNL     1       1.361  -3.433  -8.598  0.00  0.00    -0.126 OA
ENDBRANCH  17  20
ENDBRANCH  11  13
ENDBRANCH   4   9
BRANCH   6  23
ATOM     23  S   UNL     1      -0.543  -4.579   2.679  0.00  0.00    +0.061 S 
ATOM     24  O   UNL     1      -0.261  -5.957   2.478  0.00  0.00    -0.153 OA
ATOM     25  O   UNL     1       0.105  -3.807   3.682  0.00  0.00    -0.153 OA
BRANCH  23  26
ATOM     26  N   UNL     1      -2.169  -4.466   2.973  0.00  0.00    -0.183 NA
ATOM     27  C   UNL     1      -3.094  -5.414   2.346  0.00  0.00    +0.131 C 
ATOM     28  C   UNL     1      -2.683  -3.420   3.860  0.00  0.00    +0.131 C 
ENDBRANCH  23  26
ENDBRANCH   6  23
TORSDOF 5
