REMARK  Name = ZINC06812683
REMARK  10 active torsions:
REMARK  status: ('A' for Active; 'I' for Inactive)
REMARK    1  A    between atoms: C_1  and  N_55
REMARK    2  A    between atoms: C_2  and  N_55
REMARK    3  A    between atoms: C_3  and  C_4
REMARK    4  A    between atoms: C_3  and  N_55
REMARK    5  A    between atoms: C_4  and  N_5
REMARK    6  A    between atoms: C_6  and  C_24
REMARK    7  A    between atoms: C_9  and  C_10
REMARK    8  A    between atoms: C_9  and  O_19
REMARK    9  A    between atoms: C_28  and  O_30
REMARK   10  A    between atoms: O_30  and  C_31
REMARK                            x       y       z     vdW  Elec       q    Type
REMARK                         _______ _______ _______ _____ _____    ______ ____
ROOT
ATOM      1  N   UNL     1       0.434  -1.515   3.629  0.00  0.00    -0.285 N 
ATOM      2  C   UNL     1       1.892  -1.582   3.770  0.00  0.00    +0.145 C 
ATOM      3  C   UNL     1       2.170  -1.955   5.207  0.00  0.00    +0.074 C 
ATOM      4  C   UNL     1       3.412  -2.129   5.796  0.00  0.00    +0.168 C 
ATOM      5  C   UNL     1       0.920  -2.096   5.823  0.00  0.00    +0.249 C 
ATOM      6  O   UNL     1       0.727  -2.397   6.988  0.00  0.00    -0.282 OA
ATOM      7  C   UNL     1      -0.132  -1.815   4.810  0.00  0.00    +0.288 C 
ATOM      8  O   UNL     1      -1.327  -1.850   5.020  0.00  0.00    -0.266 OA
ENDROOT
BRANCH   4   9
ATOM      9  C   UNL     1       3.510  -2.386   7.233  0.00  0.00    +0.171 A 
ATOM     10  C   UNL     1       4.259  -3.369   7.808  0.00  0.00    +0.061 A 
ATOM     11  C   UNL     1       4.069  -3.264   9.208  0.00  0.00    +0.021 A 
ATOM     12  C   UNL     1       4.560  -3.978  10.308  0.00  0.00    +0.011 A 
ATOM     13  C   UNL     1       4.180  -3.623  11.570  0.00  0.00    +0.001 A 
ATOM     14  C   UNL     1       3.309  -2.560  11.772  0.00  0.00    +0.004 A 
ATOM     15  C   UNL     1       2.813  -1.845  10.703  0.00  0.00    +0.047 A 
ATOM     16  C   UNL     1       3.186  -2.186   9.409  0.00  0.00    +0.136 A 
ATOM     17  O   UNL     1       2.878  -1.682   8.197  0.00  0.00    -0.452 OA
ENDBRANCH   4   9
BRANCH   2  18
ATOM     18  C   UNL     1       2.453  -2.630   2.843  0.00  0.00    -0.019 A 
ATOM     19  C   UNL     1       1.785  -3.829   2.672  0.00  0.00    +0.006 A 
ATOM     20  C   UNL     1       2.296  -4.792   1.822  0.00  0.00    +0.004 A 
ATOM     21  C   UNL     1       3.476  -4.558   1.141  0.00  0.00    +0.045 A 
ATOM     22  C   UNL     1       4.147  -3.357   1.312  0.00  0.00    +0.120 A 
ATOM     23  C   UNL     1       3.630  -2.390   2.162  0.00  0.00    +0.051 A 
BRANCH  22  24
ATOM     24  O   UNL     1       5.308  -3.125   0.643  0.00  0.00    -0.495 OA
ATOM     25  C   UNL     1       5.778  -4.162  -0.219  0.00  0.00    +0.277 C 
ENDBRANCH  22  24
ENDBRANCH   2  18
BRANCH   4  26
ATOM     26  O   UNL     1       4.532  -2.062   5.044  0.00  0.00    -0.503 OA
ATOM     27  H   UNL     1       5.333  -2.209   5.624  0.00  0.00    +0.292 HD
ENDBRANCH   4  26
BRANCH   1  28
ATOM     28  C   UNL     1      -0.288  -1.182   2.399  0.00  0.00    +0.090 C 
BRANCH  28  29
ATOM     29  C   UNL     1      -0.516   0.330   2.335  0.00  0.00    -0.060 C 
BRANCH  29  32
ATOM     30  C   UNL     1      -0.419   0.384  -0.084  0.00  0.00    -0.097 C 
ATOM     31  C   UNL     1      -1.686   2.063   1.115  0.00  0.00    -0.097 C 
ATOM     32  N   UNL     1      -1.264   0.647   1.100  0.00  0.00    +0.377 N 
ATOM     33  H   UNL     1      -2.099   0.051   1.053  0.00  0.00    -0.083 HD
ENDBRANCH  29  32
ENDBRANCH  28  29
ENDBRANCH   1  28
TORSDOF 7
