REMARK  Name = ZINC32099920
REMARK  5 active torsions:
REMARK  status: ('A' for Active; 'I' for Inactive)
REMARK    1  A    between atoms: C_1  and  C_2
REMARK    2  A    between atoms: C_2  and  C_3
REMARK    3  A    between atoms: C_3  and  C_4
REMARK    4  A    between atoms: C_8  and  C_15
REMARK    5  A    between atoms: C_11  and  C_14
REMARK                            x       y       z     vdW  Elec       q    Type
REMARK                         _______ _______ _______ _____ _____    ______ ____
ROOT
ATOM      1  C   UNL     1       1.181   2.083  -0.127  0.00  0.00    +0.020 A 
ATOM      2  C   UNL     1      -0.017   1.377  -0.122  0.00  0.00    +0.072 A 
ATOM      3  C   UNL     1       0.002  -0.005  -0.088  0.00  0.00    +0.190 A 
ATOM      4  C   UNL     1       1.260  -0.650  -0.058  0.00  0.00    +0.048 A 
ATOM      5  C   UNL     1       1.363  -2.048  -0.022  0.00  0.00    -0.038 A 
ATOM      6  C   UNL     1       2.593  -2.632   0.005  0.00  0.00    +0.004 A 
ATOM      7  C   UNL     1       3.751  -1.858  -0.001  0.00  0.00    +0.005 A 
ATOM      8  C   UNL     1       3.687  -0.499  -0.035  0.00  0.00    -0.026 A 
ATOM      9  C   UNL     1       2.435   0.140  -0.064  0.00  0.00    +0.054 A 
ATOM     10  N   UNL     1       2.343   1.474  -0.099  0.00  0.00    -0.358 N 
ATOM     11  C   UNL     1       4.953   0.318  -0.042  0.00  0.00    +0.046 C 
ATOM     12  C   UNL     1       0.119  -2.899  -0.015  0.00  0.00    +0.044 C 
ATOM     13  O   UNL     1      -1.150  -0.720  -0.083  0.00  0.00    -0.287 OA
ATOM     14  H   UNL     1       3.272   2.062  -0.103  0.00  0.00    +0.166 HD
ENDROOT
BRANCH   1  15
ATOM     15  C   UNL     1       1.144   3.589  -0.165  0.00  0.00    +0.053 C 
BRANCH  15  17
ATOM     16  C   UNL     1       1.907   5.678   0.973  0.00  0.00    +0.004 C 
ATOM     17  C   UNL     1       1.945   4.149   1.012  0.00  0.00    +0.003 C 
ENDBRANCH  15  17
ENDBRANCH   1  15
TORSDOF 2
