REMARK  Name = ZINC24909589
REMARK  7 active torsions:
REMARK  status: ('A' for Active; 'I' for Inactive)
REMARK    1  A    between atoms: C_1  and  C_2
REMARK    2  A    between atoms: C_5  and  C_8
REMARK    3  A    between atoms: C_11  and  S_14
REMARK    4  A    between atoms: N_12  and  N_13
REMARK    5  A    between atoms: S_14  and  C_15
REMARK    6  A    between atoms: C_15  and  C_16
REMARK    7  A    between atoms: C_22  and  C_24
REMARK                            x       y       z     vdW  Elec       q    Type
REMARK                         _______ _______ _______ _____ _____    ______ ____
ROOT
ATOM      1  C   UNL     1      -0.018   1.474   0.010  0.00  0.00    +0.182 A 
ATOM      2  N   UNL     1       1.027   2.269   0.004  0.00  0.00    -0.127 NA
ATOM      3  N   UNL     1       0.645   3.496   0.015  0.00  0.00    -0.121 NA
ATOM      4  C   UNL     1      -0.668   3.560   0.028  0.00  0.00    +0.209 A 
ATOM      5  N   UNL     1      -1.135   2.277   0.019  0.00  0.00    -0.224 N 
ENDROOT
BRANCH   1  10
ATOM      6  C   UNL     1       0.060  -4.280  -0.022  0.00  0.00    +0.044 C 
ATOM      7  C   UNL     1       0.040  -2.773  -0.013  0.00  0.00    -0.050 A 
ATOM      8  C   UNL     1       1.192  -2.070   0.291  0.00  0.00    +0.004 A 
ATOM      9  C   UNL     1       1.180  -0.691   0.300  0.00  0.00    +0.012 A 
ATOM     10  C   UNL     1       0.002  -0.004   0.002  0.00  0.00    +0.021 A 
ATOM     11  C   UNL     1      -1.158  -0.719  -0.298  0.00  0.00    +0.012 A 
ATOM     12  C   UNL     1      -1.132  -2.098  -0.309  0.00  0.00    +0.004 A 
ENDBRANCH   1  10
BRANCH   5  13
ATOM     13  N   UNL     1      -2.441   1.874   0.022  0.00  0.00    -0.295 N 
ATOM     14  H   UNL     1      -3.247   2.622   0.029  0.00  0.00    +0.163 HD
ATOM     15  H   UNL     1      -2.686   0.802   0.016  0.00  0.00    +0.163 HD
ENDBRANCH   5  13
BRANCH   4  16
ATOM     16  S   UNL     1      -1.642   5.027   0.045  0.00  0.00    -0.078 S 
BRANCH  16  17
ATOM     17  C   UNL     1      -0.331   6.276   0.040  0.00  0.00    +0.133 C 
BRANCH  17  18
ATOM     18  C   UNL     1      -0.947   7.651   0.053  0.00  0.00    +0.061 A 
ATOM     19  C   UNL     1      -1.236   8.293  -1.105  0.00  0.00    +0.072 A 
ATOM     20  S   UNL     1      -1.920   9.819  -0.477  0.00  0.00    -0.060 S 
ATOM     21  C   UNL     1      -1.750   9.464   1.214  0.00  0.00    +0.165 A 
ATOM     22  N   UNL     1      -1.212   8.260   1.192  0.00  0.00    -0.229 NA
ATOM     23  N   UNL     1      -2.092  10.248   2.310  0.00  0.00    -0.265 N 
ATOM     24  C   UNL     1      -2.639  11.466   2.123  0.00  0.00    +0.216 C 
ATOM     25  O   UNL     1      -2.831  11.878   0.998  0.00  0.00    -0.276 OA
ATOM     26  C   UNL     1      -3.010  12.316   3.311  0.00  0.00    +0.109 C 
ATOM     27  H   UNL     1      -1.918   9.874   3.329  0.00  0.00    +0.157 HD
ENDBRANCH  17  18
ENDBRANCH  16  17
ENDBRANCH   4  16
TORSDOF 5
