REMARK  Name = ZINC12386632
REMARK  5 active torsions:
REMARK  status: ('A' for Active; 'I' for Inactive)
REMARK    1  A    between atoms: C_1  and  C_2
REMARK    2  A    between atoms: C_11  and  C_13
REMARK    3  A    between atoms: C_13  and  C_14
REMARK    4  A    between atoms: C_21  and  C_22
REMARK    5  A    between atoms: C_21  and  N_61
REMARK                            x       y       z     vdW  Elec       q    Type
REMARK                         _______ _______ _______ _____ _____    ______ ____
ROOT
ATOM      1  C   UNL     1      -0.294   0.839   2.405  0.00  0.00    +0.028 C 
ATOM      2  C   UNL     1      -0.952   1.455   3.607  0.00  0.00    +0.200 C 
ATOM      3  O   UNL     1      -0.994   0.816   4.638  0.00  0.00    -0.278 OA
ATOM      4  N   UNL     1      -1.493   2.677   3.589  0.00  0.00    -0.318 N 
ATOM      5  C   UNL     1      -1.526   3.512   2.392  0.00  0.00    +0.085 C 
ATOM      6  C   UNL     1      -0.504   3.007   1.371  0.00  0.00    -0.059 C 
ATOM      7  H   UNL     1      -1.880   3.025   4.407  0.00  0.00    +0.149 HD
ATOM      8  N   UNL     1      -0.719   1.557   1.189  0.00  0.00    +0.389 N 
ATOM      9  H   UNL     1      -1.718   1.383   1.028  0.00  0.00    -0.081 HD
ENDROOT
BRANCH   1  10
ATOM     10  C   UNL     1      -0.717  -0.627   2.290  0.00  0.00    +0.090 C 
BRANCH  10  21
ATOM     11  C   UNL     1      -3.175  -3.078  -2.538  0.00  0.00    +0.109 C 
ATOM     12  C   UNL     1      -2.163  -3.146  -1.424  0.00  0.00    +0.213 C 
ATOM     13  O   UNL     1      -1.000  -2.877  -1.642  0.00  0.00    -0.276 OA
ATOM     14  N   UNL     1      -2.549  -3.506  -0.184  0.00  0.00    -0.300 N 
ATOM     15  C   UNL     1      -3.943  -3.724   0.073  0.00  0.00    +0.109 C 
ATOM     16  C   UNL     1      -4.577  -2.369   0.431  0.00  0.00    +0.038 C 
ATOM     17  C   UNL     1      -4.285  -1.978   1.819  0.00  0.00    +0.109 C 
ATOM     18  N   UNL     1      -2.821  -1.903   2.037  0.00  0.00    -0.300 N 
ATOM     19  C   UNL     1      -2.057  -3.107   2.208  0.00  0.00    +0.126 C 
ATOM     20  C   UNL     1      -1.515  -3.666   0.875  0.00  0.00    +0.126 C 
ATOM     21  C   UNL     1      -2.206  -0.704   2.069  0.00  0.00    +0.215 C 
ATOM     22  O   UNL     1      -2.850   0.312   1.919  0.00  0.00    -0.276 OA
ENDBRANCH  10  21
ENDBRANCH   1  10
BRANCH   8  23
ATOM     23  C   UNL     1       0.050   1.073   0.020  0.00  0.00    -0.074 C 
BRANCH  23  24
ATOM     24  C   UNL     1      -0.639   1.553  -1.259  0.00  0.00    -0.028 C 
ATOM     25  C   UNL     1      -2.024   0.911  -1.365  0.00  0.00    +0.002 C 
ATOM     26  C   UNL     1      -2.713   1.391  -2.643  0.00  0.00    +0.000 C 
ATOM     27  C   UNL     1      -1.871   0.992  -3.857  0.00  0.00    +0.000 C 
ATOM     28  C   UNL     1      -0.487   1.634  -3.751  0.00  0.00    +0.000 C 
ATOM     29  C   UNL     1       0.202   1.154  -2.473  0.00  0.00    +0.002 C 
ENDBRANCH  23  24
ENDBRANCH   8  23
TORSDOF 4
