REMARK  Name = ZINC13210876
REMARK  6 active torsions:
REMARK  status: ('A' for Active; 'I' for Inactive)
REMARK    1  A    between atoms: C_3  and  O_16
REMARK    2  A    between atoms: C_4  and  N_13
REMARK    3  A    between atoms: C_6  and  C_7
REMARK    4  A    between atoms: N_9  and  C_10
REMARK    5  A    between atoms: C_10  and  C_11
REMARK    6  A    between atoms: O_16  and  C_17
REMARK                            x       y       z     vdW  Elec       q    Type
REMARK                         _______ _______ _______ _____ _____    ______ ____
ROOT
ATOM      1  C   UNL     1       0.948   7.228  -0.178  0.00  0.00    +0.017 A 
ATOM      2  C   UNL     1       1.019   5.856  -0.080  0.00  0.00    +0.049 A 
ATOM      3  C   UNL     1       2.255   5.220  -0.096  0.00  0.00    +0.159 A 
ATOM      4  C   UNL     1       3.424   5.966  -0.206  0.00  0.00    +0.169 A 
ATOM      5  C   UNL     1       3.360   7.337  -0.310  0.00  0.00    +0.049 A 
ATOM      6  C   UNL     1       2.119   7.980  -0.293  0.00  0.00    +0.039 A 
ENDROOT
BRANCH   6   7
ATOM      7  C   UNL     1       2.047   9.451  -0.399  0.00  0.00    +0.245 C 
ATOM      8  O   UNL     1       3.067  10.104  -0.500  0.00  0.00    -0.270 OA
ATOM      9  N   UNL     1       0.849  10.069  -0.384  0.00  0.00    -0.301 N 
ATOM     10  H   UNL     1       0.035   9.548  -0.303  0.00  0.00    +0.150 HD
BRANCH   9  11
ATOM     11  C   UNL     1       0.777  11.529  -0.488  0.00  0.00    +0.229 C 
BRANCH  11  12
ATOM     12  C   UNL     1      -0.665  11.965  -0.447  0.00  0.00    +0.373 C 
ATOM     13  O   UNL     1      -1.542  11.141  -0.341  0.00  0.00    -0.245 OA
ATOM     14  O   UNL     1      -0.974  13.269  -0.528  0.00  0.00    -0.245 OA
ENDBRANCH  11  12
ENDBRANCH   9  11
ENDBRANCH   6   7
BRANCH   4  15
ATOM     15  N   UNL     1       4.737   5.284  -0.217  0.00  0.00    +0.060 N 
ATOM     16  O   UNL     1       5.761   5.936  -0.314  0.00  0.00    -0.126 OA
ATOM     17  O   UNL     1       4.794   4.070  -0.131  0.00  0.00    -0.126 OA
ENDBRANCH   4  15
BRANCH   3  18
ATOM     18  O   UNL     1       2.322   3.868   0.001  0.00  0.00    -0.453 OA
BRANCH  18  19
ATOM     19  C   UNL     1       1.156   3.170  -0.009  0.00  0.00    +0.142 A 
ATOM     20  C   UNL     1       0.591   2.744   1.184  0.00  0.00    +0.048 A 
ATOM     21  C   UNL     1      -0.594   2.034   1.172  0.00  0.00    +0.019 A 
ATOM     22  C   UNL     1      -1.220   1.751  -0.029  0.00  0.00    +0.019 A 
ATOM     23  C   UNL     1      -0.656   2.169  -1.221  0.00  0.00    +0.034 A 
ATOM     24  C   UNL     1       0.529   2.880  -1.214  0.00  0.00    +0.061 A 
ATOM     25 BR   UNL     1       1.296   3.459  -2.842  0.00  0.00    -0.046 Br
ATOM     26 BR   UNL     1      -2.846   0.785  -0.041  0.00  0.00    -0.050 Br
ENDBRANCH  18  19
ENDBRANCH   3  18
TORSDOF 6
