REMARK  Name = ZINC67621872
REMARK  13 active torsions:
REMARK  status: ('A' for Active; 'I' for Inactive)
REMARK    1  A    between atoms: C_1  and  C_2
REMARK    2  A    between atoms: N_5  and  C_8
REMARK    3  A    between atoms: C_8  and  C_9
REMARK    4  A    between atoms: C_9  and  C_11
REMARK    5  A    between atoms: C_9  and  O_28
REMARK    6  A    between atoms: C_11  and  N_12
REMARK    7  A    between atoms: N_15  and  C_16
REMARK    8  A    between atoms: C_16  and  C_17
REMARK    9  A    between atoms: C_20  and  C_23
REMARK   10  A    between atoms: C_23  and  O_24
REMARK   11  A    between atoms: O_24  and  C_25
REMARK   12  A    between atoms: C_25  and  C_26
REMARK   13  A    between atoms: C_25  and  C_27
REMARK                            x       y       z     vdW  Elec       q    Type
REMARK                         _______ _______ _______ _____ _____    ______ ____
ROOT
ATOM      1  N   UNL     1       3.964  -6.214   1.958  0.00  0.00    -0.297 N 
ATOM      2  C   UNL     1       4.412  -7.484   2.013  0.00  0.00    +0.300 C 
ATOM      3  O   UNL     1       4.039  -8.296   1.188  0.00  0.00    -0.253 OA
ATOM      4  N   UNL     1       5.272  -7.854   2.982  0.00  0.00    -0.295 N 
ATOM      5  H   UNL     1       4.261  -5.566   2.617  0.00  0.00    +0.150 HD
ATOM      6  H   UNL     1       5.570  -7.207   3.640  0.00  0.00    +0.151 HD
ENDROOT
BRANCH   1   7
ATOM      7  C   UNL     1       3.028  -5.812   0.905  0.00  0.00    +0.135 C 
BRANCH   7   8
ATOM      8  C   UNL     1       2.681  -4.331   1.070  0.00  0.00    +0.115 C 
BRANCH   8   9
ATOM      9  O   UNL     1       2.077  -4.123   2.349  0.00  0.00    -0.392 OA
ATOM     10  H   UNL     1       1.262  -4.624   2.485  0.00  0.00    +0.210 HD
ENDBRANCH   8   9
BRANCH   8  11
ATOM     11  C   UNL     1       1.704  -3.911  -0.029  0.00  0.00    -0.046 C 
BRANCH  11  16
ATOM     12  C   UNL     1       0.801   1.694  -0.579  0.00  0.00    +0.007 C 
ATOM     13  C   UNL     1       1.167   0.235  -0.859  0.00  0.00    -0.018 C 
ATOM     14  C   UNL     1       2.284  -0.205   0.093  0.00  0.00    -0.016 C 
ATOM     15  C   UNL     1       2.590  -1.686  -0.138  0.00  0.00    -0.078 C 
ATOM     16  N   UNL     1       1.385  -2.484   0.118  0.00  0.00    +0.381 N 
ATOM     17  C   UNL     1       0.333  -2.118  -0.839  0.00  0.00    -0.078 C 
ATOM     18  C   UNL     1      -0.060  -0.654  -0.635  0.00  0.00    -0.016 C 
ATOM     19  H   UNL     1       1.060  -2.309   1.057  0.00  0.00    -0.082 HD
ENDBRANCH  11  16
ENDBRANCH   8  11
ENDBRANCH   7   8
ENDBRANCH   1   7
BRANCH   4  20
ATOM     20  C   UNL     1       5.759  -9.235   3.041  0.00  0.00    +0.141 C 
BRANCH  20  21
ATOM     21  C   UNL     1       6.701  -9.386   4.207  0.00  0.00    -0.030 A 
ATOM     22  C   UNL     1       8.054  -9.155   4.038  0.00  0.00    +0.005 A 
ATOM     23  C   UNL     1       8.918  -9.293   5.108  0.00  0.00    +0.006 A 
ATOM     24  C   UNL     1       8.430  -9.662   6.348  0.00  0.00    -0.022 A 
ATOM     25  C   UNL     1       7.077  -9.892   6.517  0.00  0.00    +0.006 A 
ATOM     26  C   UNL     1       6.212  -9.749   5.448  0.00  0.00    +0.005 A 
BRANCH  24  27
ATOM     27  C   UNL     1       9.372  -9.814   7.514  0.00  0.00    +0.195 C 
BRANCH  27  28
ATOM     28  O   UNL     1       9.489  -8.565   8.197  0.00  0.00    -0.373 OA
BRANCH  28  29
ATOM     29  C   UNL     1      10.364  -8.599   9.326  0.00  0.00    +0.113 C 
ATOM     30  C   UNL     1      11.786  -8.251   8.880  0.00  0.00    +0.037 C 
ATOM     31  C   UNL     1       9.894  -7.583  10.368  0.00  0.00    +0.037 C 
ENDBRANCH  28  29
ENDBRANCH  27  28
ENDBRANCH  24  27
ENDBRANCH  20  21
ENDBRANCH   4  20
TORSDOF 10
