REMARK  Name = ZINC52872667
REMARK  5 active torsions:
REMARK  status: ('A' for Active; 'I' for Inactive)
REMARK    1  A    between atoms: C_1  and  C_2
REMARK    2  A    between atoms: C_4  and  C_26
REMARK    3  A    between atoms: C_6  and  N_13
REMARK    4  A    between atoms: C_14  and  C_16
REMARK    5  A    between atoms: C_16  and  N_17
REMARK                            x       y       z     vdW  Elec       q    Type
REMARK                         _______ _______ _______ _____ _____    ______ ____
ROOT
ATOM      1  N   UNL     1      -2.880  -4.005  -0.006  0.00  0.00    -0.254 N 
ATOM      2  C   UNL     1      -4.194  -4.305  -0.001  0.00  0.00    +0.237 C 
ATOM      3  O   UNL     1      -5.019  -3.416   0.008  0.00  0.00    -0.274 OA
ATOM      4  H   UNL     1      -2.220  -4.715  -0.013  0.00  0.00    +0.158 HD
ENDROOT
BRANCH   1  10
ATOM      5  C   UNL     1      -0.018   1.503   0.010  0.00  0.00    +0.068 C 
ATOM      6  C   UNL     1       0.002  -0.004   0.002  0.00  0.00    +0.070 A 
ATOM      7  C   UNL     1      -1.255  -0.757   0.004  0.00  0.00    +0.053 A 
ATOM      8  C   UNL     1      -2.573  -0.464   0.012  0.00  0.00    +0.114 A 
ATOM      9  O   UNL     1      -3.280  -1.609   0.009  0.00  0.00    -0.445 OA
ATOM     10  C   UNL     1      -2.473  -2.681  -0.001  0.00  0.00    +0.206 A 
ATOM     11  C   UNL     1      -1.172  -2.239  -0.005  0.00  0.00    +0.110 A 
ATOM     12  C   UNL     1       0.157  -2.841  -0.015  0.00  0.00    +0.277 A 
ATOM     13  O   UNL     1       0.291  -4.051  -0.023  0.00  0.00    -0.266 OA
ATOM     14  N   UNL     1       1.236  -2.029  -0.016  0.00  0.00    -0.242 N 
ATOM     15  H   UNL     1       2.119  -2.430  -0.023  0.00  0.00    +0.192 HD
ATOM     16  N   UNL     1       1.133  -0.640  -0.012  0.00  0.00    -0.175 NA
ATOM     17  C   UNL     1      -3.158   0.924   0.023  0.00  0.00    +0.087 C 
ENDBRANCH   1  10
BRANCH   2  18
ATOM     18  C   UNL     1      -4.638  -5.745  -0.007  0.00  0.00    +0.201 C 
BRANCH  18  19
ATOM     19  N   UNL     1      -6.101  -5.805   0.000  0.00  0.00    -0.321 N 
ATOM     20  C   UNL     1      -6.935  -5.840   1.205  0.00  0.00    +0.110 C 
ATOM     21  C   UNL     1      -8.383  -5.899   0.692  0.00  0.00    +0.056 C 
ATOM     22  C   UNL     1      -8.252  -5.893  -0.814  0.00  0.00    -0.025 A 
ATOM     23  C   UNL     1      -6.906  -5.832  -1.140  0.00  0.00    +0.033 A 
ATOM     24  C   UNL     1      -6.535  -5.809  -2.486  0.00  0.00    +0.023 A 
ATOM     25  C   UNL     1      -7.497  -5.842  -3.473  0.00  0.00    +0.002 A 
ATOM     26  C   UNL     1      -8.837  -5.899  -3.137  0.00  0.00    +0.000 A 
ATOM     27  C   UNL     1      -9.212  -5.931  -1.807  0.00  0.00    +0.005 A 
ENDBRANCH  18  19
ENDBRANCH   2  18
TORSDOF 3
