REMARK  Name = ZINC12127281
REMARK  5 active torsions:
REMARK  status: ('A' for Active; 'I' for Inactive)
REMARK    1  A    between atoms: C_1  and  C_2
REMARK    2  A    between atoms: C_3  and  C_26
REMARK    3  A    between atoms: C_11  and  N_18
REMARK    4  A    between atoms: C_13  and  C_15
REMARK    5  A    between atoms: C_19  and  C_21
REMARK                            x       y       z     vdW  Elec       q    Type
REMARK                         _______ _______ _______ _____ _____    ______ ____
ROOT
ATOM      1  C   UNL     1       3.646  -4.313  -0.021  0.00  0.00    +0.051 C 
ATOM      2  C   UNL     1       3.340  -2.837  -0.018  0.00  0.00    +0.035 A 
ATOM      3  C   UNL     1       2.050  -2.396  -0.009  0.00  0.00    +0.050 A 
ATOM      4  N   UNL     1       1.790  -1.090  -0.001  0.00  0.00    -0.217 NA
ATOM      5  C   UNL     1       2.758  -0.199  -0.013  0.00  0.00    +0.234 A 
ATOM      6  N   UNL     1       4.064  -0.578  -0.022  0.00  0.00    -0.291 N 
ATOM      7  H   UNL     1       4.764   0.093  -0.027  0.00  0.00    +0.172 HD
ATOM      8  C   UNL     1       4.381  -1.890  -0.025  0.00  0.00    +0.256 A 
ATOM      9  O   UNL     1       5.548  -2.248  -0.034  0.00  0.00    -0.267 OA
ATOM     10  N   UNL     1       2.442   1.147  -0.010  0.00  0.00    -0.185 N 
ATOM     11  C   UNL     1       1.185   1.678  -0.000  0.00  0.00    +0.132 A 
ATOM     12  C   UNL     1       1.316   3.032   0.006  0.00  0.00    +0.069 A 
ATOM     13  C   UNL     1       2.682   3.332  -0.005  0.00  0.00    +0.068 A 
ATOM     14  N   UNL     1       3.354   2.210  -0.018  0.00  0.00    -0.167 NA
ATOM     15  C   UNL     1       0.915  -3.389  -0.001  0.00  0.00    +0.066 C 
ENDROOT
BRANCH  11  16
ATOM     16  N   UNL     1      -0.011   0.966   0.007  0.00  0.00    -0.266 N 
ATOM     17  C   UNL     1      -1.187   1.624   0.017  0.00  0.00    +0.256 C 
ATOM     18  O   UNL     1      -1.204   2.841   0.023  0.00  0.00    -0.269 OA
ATOM     19  H   UNL     1       0.002  -0.004   0.002  0.00  0.00    +0.157 HD
BRANCH  17  20
ATOM     20  C   UNL     1      -2.446   0.874   0.018  0.00  0.00    +0.074 A 
ATOM     21  C   UNL     1      -3.748   1.351   0.027  0.00  0.00    +0.021 A 
ATOM     22  C   UNL     1      -4.755   0.419   0.027  0.00  0.00    +0.008 A 
ATOM     23  C   UNL     1      -4.437  -0.902   0.018  0.00  0.00    +0.046 A 
ATOM     24  S   UNL     1      -2.704  -0.891   0.002  0.00  0.00    -0.092 S 
ENDBRANCH  17  20
ENDBRANCH  11  16
BRANCH  13  25
ATOM     25  C   UNL     1       3.280   4.715  -0.003  0.00  0.00    +0.040 C 
ATOM     26  C   UNL     1       2.360   5.882  -0.367  0.00  0.00    +0.010 C 
ATOM     27  C   UNL     1       3.436   5.419  -1.353  0.00  0.00    +0.010 C 
ENDBRANCH  13  25
TORSDOF 3
