REMARK  Name = ZINC45329471
REMARK  12 active torsions:
REMARK  status: ('A' for Active; 'I' for Inactive)
REMARK    1  A    between atoms: C_1  and  C_2
REMARK    2  A    between atoms: C_2  and  C_3
REMARK    3  A    between atoms: C_10  and  C_12
REMARK    4  A    between atoms: C_12  and  C_14
REMARK    5  A    between atoms: C_12  and  O_15
REMARK    6  A    between atoms: O_15  and  C_16
REMARK    7  A    between atoms: C_16  and  C_18
REMARK    8  A    between atoms: C_18  and  N_19
REMARK    9  A    between atoms: C_25  and  C_28
REMARK   10  A    between atoms: C_28  and  C_29
REMARK   11  A    between atoms: C_28  and  C_30
REMARK   12  A    between atoms: C_28  and  C_31
REMARK                            x       y       z     vdW  Elec       q    Type
REMARK                         _______ _______ _______ _____ _____    ______ ____
ROOT
ATOM      1  N   UNL     1      -4.385   4.539   5.319  0.00  0.00    -0.213 N 
ATOM      2  C   UNL     1      -5.295   4.260   6.275  0.00  0.00    +0.247 C 
ATOM      3  O   UNL     1      -6.102   3.355   6.279  0.00  0.00    -0.273 OA
ATOM      4  C   UNL     1      -5.097   5.314   7.341  0.00  0.00    +0.113 C 
ATOM      5  C   UNL     1      -6.364   6.146   7.508  0.00  0.00    +0.035 C 
ATOM      6  C   UNL     1      -6.132   7.225   8.568  0.00  0.00    +0.006 C 
ATOM      7  C   UNL     1      -5.758   6.562   9.896  0.00  0.00    -0.005 C 
ATOM      8  C   UNL     1      -4.473   5.751   9.718  0.00  0.00    +0.006 C 
ATOM      9  C   UNL     1      -4.698   4.666   8.662  0.00  0.00    +0.035 C 
ATOM     10  N   UNL     1      -4.001   6.143   6.823  0.00  0.00    -0.285 N 
ATOM     11  C   UNL     1      -3.647   5.609   5.638  0.00  0.00    +0.310 C 
ATOM     12  O   UNL     1      -2.759   6.051   4.936  0.00  0.00    -0.252 OA
ATOM     13  H   UNL     1      -3.608   6.920   7.250  0.00  0.00    +0.151 HD
ENDROOT
BRANCH   7  14
ATOM     14  C   UNL     1      -5.537   7.640  10.959  0.00  0.00    -0.035 C 
ATOM     15  C   UNL     1      -6.822   8.450  11.138  0.00  0.00    +0.011 C 
ATOM     16  C   UNL     1      -5.163   6.977  12.287  0.00  0.00    +0.011 C 
ATOM     17  C   UNL     1      -4.405   8.569  10.517  0.00  0.00    +0.011 C 
ENDBRANCH   7  14
BRANCH   1  18
ATOM     18  C   UNL     1      -4.221   3.763   4.088  0.00  0.00    +0.238 C 
BRANCH  18  19
ATOM     19  C   UNL     1      -3.227   2.654   4.321  0.00  0.00    +0.326 C 
ATOM     20  O   UNL     1      -2.708   2.526   5.405  0.00  0.00    -0.249 OA
BRANCH  19  21
ATOM     21  O   UNL     1      -2.917   1.810   3.325  0.00  0.00    -0.451 OA
BRANCH  21  22
ATOM     22  C   UNL     1      -1.967   0.783   3.617  0.00  0.00    +0.259 C 
ATOM     23  C   UNL     1      -2.699  -0.459   4.130  0.00  0.00    +0.062 C 
BRANCH  22  30
ATOM     24  C   UNL     1       0.762  -0.511   1.253  0.00  0.00    +0.076 C 
ATOM     25  C   UNL     1       1.020  -2.016   1.129  0.00  0.00    +0.022 C 
ATOM     26  C   UNL     1       1.641  -2.531   2.430  0.00  0.00    +0.003 C 
ATOM     27  C   UNL     1       0.667  -2.302   3.588  0.00  0.00    +0.019 C 
ATOM     28  C   UNL     1       0.404  -0.800   3.739  0.00  0.00    +0.108 C 
ATOM     29  N   UNL     1      -0.054  -0.265   2.449  0.00  0.00    -0.295 N 
ATOM     30  C   UNL     1      -1.203   0.435   2.365  0.00  0.00    +0.256 C 
ATOM     31  O   UNL     1      -1.622   0.784   1.282  0.00  0.00    -0.272 OA
BRANCH  24  33
ATOM     32  C   UNL     1       0.869  -0.271  -1.232  0.00  0.00    +0.006 C 
ATOM     33  C   UNL     1       0.016  -0.016   0.012  0.00  0.00    +0.019 C 
ENDBRANCH  24  33
ENDBRANCH  22  30
ENDBRANCH  21  22
ENDBRANCH  19  21
ENDBRANCH  18  19
ENDBRANCH   1  18
TORSDOF 7
