REMARK  Name = ZINC39513577
REMARK  9 active torsions:
REMARK  status: ('A' for Active; 'I' for Inactive)
REMARK    1  A    between atoms: C_1  and  C_2
REMARK    2  A    between atoms: C_2  and  O_3
REMARK    3  A    between atoms: O_3  and  C_4
REMARK    4  A    between atoms: C_10  and  S_26
REMARK    5  A    between atoms: N_15  and  S_16
REMARK    6  A    between atoms: S_16  and  O_19
REMARK    7  A    between atoms: O_19  and  C_20
REMARK    8  A    between atoms: S_26  and  O_29
REMARK    9  A    between atoms: O_29  and  C_30
REMARK                            x       y       z     vdW  Elec       q    Type
REMARK                         _______ _______ _______ _____ _____    ______ ____
ROOT
ATOM      1  C   UNL     1      -0.259  -2.081   1.173  0.00  0.00    +0.120 C 
ATOM      2  C   UNL     1      -1.073  -2.898   2.208  0.00  0.00    +0.033 C 
ATOM      3  C   UNL     1      -0.116  -4.033   2.631  0.00  0.00    +0.029 C 
ATOM      4  C   UNL     1       1.307  -3.531   2.347  0.00  0.00    +0.074 C 
ATOM      5  C   UNL     1       1.177  -2.114   1.755  0.00  0.00    +0.057 C 
ATOM      6  C   UNL     1       2.118  -3.486   3.640  0.00  0.00    +0.193 C 
ATOM      7  C   UNL     1       3.565  -3.104   3.318  0.00  0.00    +0.033 C 
ATOM      8  C   UNL     1       4.174  -4.152   2.384  0.00  0.00    +0.019 C 
ATOM      9  C   UNL     1       3.386  -4.184   1.071  0.00  0.00    +0.113 C 
ATOM     10  N   UNL     1       1.966  -4.411   1.378  0.00  0.00    -0.139 NA
ENDROOT
BRANCH  10  11
ATOM     11  S   UNL     1       1.128  -5.636   0.644  0.00  0.00    +0.195 S 
ATOM     12  O   UNL     1      -0.207  -5.177   0.484  0.00  0.00    -0.119 OA
ATOM     13  O   UNL     1       1.921  -6.070  -0.453  0.00  0.00    -0.119 OA
BRANCH  11  14
ATOM     14  O   UNL     1       1.074  -6.796   1.627  0.00  0.00    -0.333 OA
BRANCH  14  15
ATOM     15  C   UNL     1       0.148  -6.645   2.611  0.00  0.00    +0.158 A 
ATOM     16  C   UNL     1       0.545  -6.271   3.886  0.00  0.00    +0.048 A 
ATOM     17  C   UNL     1      -0.398  -6.117   4.884  0.00  0.00    +0.004 A 
ATOM     18  C   UNL     1      -1.736  -6.335   4.612  0.00  0.00    +0.000 A 
ATOM     19  C   UNL     1      -2.134  -6.708   3.342  0.00  0.00    +0.004 A 
ATOM     20  C   UNL     1      -1.195  -6.858   2.339  0.00  0.00    +0.048 A 
ENDBRANCH  14  15
ENDBRANCH  11  14
ENDBRANCH  10  11
BRANCH   6  21
ATOM     21  S   UNL     1       1.401  -2.252   4.761  0.00  0.00    +0.125 S 
ATOM     22  O   UNL     1       1.703  -0.941   4.303  0.00  0.00    -0.136 OA
ATOM     23  O   UNL     1       0.068  -2.612   5.098  0.00  0.00    -0.136 OA
BRANCH  21  24
ATOM     24  O   UNL     1       2.183  -2.400   6.058  0.00  0.00    -0.346 OA
BRANCH  24  25
ATOM     25  C   UNL     1       1.854  -3.504   6.779  0.00  0.00    +0.156 A 
ATOM     26  C   UNL     1       0.776  -3.468   7.651  0.00  0.00    +0.048 A 
ATOM     27  C   UNL     1       0.444  -4.592   8.383  0.00  0.00    +0.004 A 
ATOM     28  C   UNL     1       1.184  -5.751   8.246  0.00  0.00    +0.000 A 
ATOM     29  C   UNL     1       2.259  -5.790   7.377  0.00  0.00    +0.004 A 
ATOM     30  C   UNL     1       2.592  -4.671   6.639  0.00  0.00    +0.048 A 
ENDBRANCH  24  25
ENDBRANCH  21  24
ENDBRANCH   6  21
BRANCH   1  31
ATOM     31  O   UNL     1      -0.743  -0.738   1.095  0.00  0.00    -0.377 OA
BRANCH  31  33
ATOM     32  C   UNL     1      -2.156   0.936   0.076  0.00  0.00    +0.034 C 
ATOM     33  C   UNL     1      -1.712  -0.528   0.067  0.00  0.00    +0.157 C 
ENDBRANCH  31  33
ENDBRANCH   1  31
TORSDOF 8
