REMARK  Name = ZINC09499365
REMARK  2 active torsions:
REMARK  status: ('A' for Active; 'I' for Inactive)
REMARK    1  A    between atoms: C_1  and  C_2
REMARK    2  A    between atoms: N_23  and  C_26
REMARK                            x       y       z     vdW  Elec       q    Type
REMARK                         _______ _______ _______ _____ _____    ______ ____
ROOT
ATOM      1  C   UNL     1      -7.243   4.062   2.479  0.00  0.00    +0.045 C 
ATOM      2  C   UNL     1      -6.057   4.206   1.561  0.00  0.00    -0.029 A 
ATOM      3  C   UNL     1      -6.170   4.946   0.402  0.00  0.00    +0.005 A 
ATOM      4  C   UNL     1      -5.088   5.083  -0.448  0.00  0.00    +0.001 A 
ATOM      5  C   UNL     1      -3.885   4.475  -0.134  0.00  0.00    +0.004 A 
ATOM      6  C   UNL     1      -3.768   3.735   1.021  0.00  0.00    -0.027 A 
ATOM      7  C   UNL     1      -4.850   3.591   1.884  0.00  0.00    +0.039 A 
ATOM      8  N   UNL     1      -4.492   2.804   2.981  0.00  0.00    -0.286 N 
ATOM      9  C   UNL     1      -3.209   2.398   2.917  0.00  0.00    +0.212 C 
ATOM     10  O   UNL     1      -2.627   1.710   3.729  0.00  0.00    -0.277 OA
ATOM     11  C   UNL     1      -2.638   2.964   1.645  0.00  0.00    +0.053 C 
ATOM     12  C   UNL     1      -1.432   3.868   1.927  0.00  0.00    +0.089 C 
ATOM     13  C   UNL     1      -0.196   2.965   1.664  0.00  0.00    +0.074 C 
ATOM     14  C   UNL     1      -0.772   1.601   1.244  0.00  0.00    -0.054 C 
ATOM     15  C   UNL     1      -1.959   2.434  -0.615  0.00  0.00    -0.076 C 
ATOM     16  C   UNL     1      -0.796   1.615  -1.209  0.00  0.00    -0.020 C 
ATOM     17  C   UNL     1      -0.013   1.086   0.008  0.00  0.00    -0.016 C 
ATOM     18  C   UNL     1       0.465   3.619   0.470  0.00  0.00    +0.228 C 
ATOM     19  O   UNL     1       1.477   3.229  -0.070  0.00  0.00    -0.275 OA
ATOM     20  N   UNL     1      -0.243   4.693   0.103  0.00  0.00    -0.209 N 
ATOM     21  C   UNL     1      -1.336   4.937   0.862  0.00  0.00    +0.229 C 
ATOM     22  O   UNL     1      -2.116   5.854   0.718  0.00  0.00    -0.275 OA
ATOM     23  H   UNL     1      -5.096   2.577   3.705  0.00  0.00    +0.155 HD
ATOM     24  N   UNL     1      -2.098   1.923   0.766  0.00  0.00    +0.395 N 
ATOM     25  H   UNL     1      -2.704   1.095   0.780  0.00  0.00    -0.079 HD
ENDROOT
BRANCH  20  26
ATOM     26  C   UNL     1       0.120   5.508  -0.979  0.00  0.00    +0.062 A 
ATOM     27  C   UNL     1      -0.352   5.223  -2.253  0.00  0.00    +0.027 A 
ATOM     28  C   UNL     1       0.002   6.030  -3.316  0.00  0.00    +0.022 A 
ATOM     29  C   UNL     1       0.837   7.115  -3.115  0.00  0.00    +0.042 A 
ATOM     30  C   UNL     1       1.314   7.398  -1.848  0.00  0.00    +0.042 A 
ATOM     31  C   UNL     1       0.958   6.597  -0.779  0.00  0.00    +0.064 A 
ATOM     32 CL   UNL     1       1.556   6.953   0.811  0.00  0.00    -0.082 Cl
ATOM     33 CL   UNL     1       1.286   8.123  -4.456  0.00  0.00    -0.083 Cl
ENDBRANCH  20  26
TORSDOF 1
