REMARK  Name = ZINC37365572
REMARK  2 active torsions:
REMARK  status: ('A' for Active; 'I' for Inactive)
REMARK    1  A    between atoms: C_6  and  C_7
REMARK    2  A    between atoms: C_7  and  C_9
REMARK                            x       y       z     vdW  Elec       q    Type
REMARK                         _______ _______ _______ _____ _____    ______ ____
ROOT
ATOM      1  C   UNL     1      -0.005   1.385   0.127  0.00  0.00    +0.014 A 
ATOM      2  C   UNL     1       1.176   2.083   0.239  0.00  0.00    +0.028 A 
ATOM      3  C   UNL     1       2.381   1.398   0.354  0.00  0.00    +0.067 A 
ATOM      4  C   UNL     1       2.395  -0.001   0.357  0.00  0.00    +0.067 A 
ATOM      5  C   UNL     1       1.212  -0.705   0.244  0.00  0.00    +0.039 A 
ATOM      6  C   UNL     1       0.003  -0.014   0.130  0.00  0.00    +0.024 A 
ATOM      7  N   UNL     1       3.728  -0.388   0.484  0.00  0.00    -0.306 N 
ATOM      8  H   UNL     1       4.054  -1.301   0.516  0.00  0.00    +0.170 HD
ATOM      9  C   UNL     1       4.485   0.723   0.555  0.00  0.00    +0.325 A 
ATOM     10  O   UNL     1       5.696   0.739   0.670  0.00  0.00    -0.247 OA
ATOM     11  N   UNL     1       3.700   1.813   0.479  0.00  0.00    -0.306 N 
ATOM     12  H   UNL     1       4.004   2.734   0.508  0.00  0.00    +0.170 HD
ENDROOT
BRANCH   6  13
ATOM     13  C   UNL     1      -1.265  -0.760   0.010  0.00  0.00    +0.195 C 
ATOM     14  O   UNL     1      -2.324  -0.162   0.010  0.00  0.00    -0.287 OA
BRANCH  13  15
ATOM     15  C   UNL     1      -1.248  -2.231  -0.109  0.00  0.00    +0.041 A 
ATOM     16  C   UNL     1      -1.591  -3.028   0.986  0.00  0.00    +0.014 A 
ATOM     17  C   UNL     1      -1.573  -4.401   0.868  0.00  0.00    +0.016 A 
ATOM     18  C   UNL     1      -1.216  -4.993  -0.333  0.00  0.00    +0.019 A 
ATOM     19  C   UNL     1      -0.875  -4.210  -1.423  0.00  0.00    +0.036 A 
ATOM     20  C   UNL     1      -0.894  -2.833  -1.321  0.00  0.00    +0.053 A 
ATOM     21 CL   UNL     1      -0.473  -1.853  -2.690  0.00  0.00    -0.083 Cl
ATOM     22 BR   UNL     1      -1.194  -6.878  -0.485  0.00  0.00    -0.050 Br
ENDBRANCH  13  15
ENDBRANCH   6  13
TORSDOF 2
