REMARK  Name = ZINC59471880
REMARK  4 active torsions:
REMARK  status: ('A' for Active; 'I' for Inactive)
REMARK    1  A    between atoms: C_1  and  C_2
REMARK    2  A    between atoms: C_2  and  C_4
REMARK    3  A    between atoms: C_2  and  N_7
REMARK    4  A    between atoms: C_11  and  C_13
REMARK                            x       y       z     vdW  Elec       q    Type
REMARK                         _______ _______ _______ _____ _____    ______ ____
ROOT
ATOM      1  N   UNL     1       0.918  -0.676   1.225  0.00  0.00    -0.290 NA
ATOM      2  C   UNL     1       1.244  -2.115   1.131  0.00  0.00    +0.085 C 
ATOM      3  C   UNL     1       2.576  -2.168   0.342  0.00  0.00    +0.017 C 
ATOM      4  C   UNL     1       3.312  -0.915   0.885  0.00  0.00    +0.020 C 
ATOM      5  C   UNL     1       2.166   0.098   1.093  0.00  0.00    +0.060 C 
ENDROOT
BRANCH   5   6
ATOM      6  C   UNL     1       2.413   0.908   2.368  0.00  0.00    +0.006 C 
ATOM      7  C   UNL     1       3.751   1.669   2.259  0.00  0.00    +0.005 C 
ATOM      8  C   UNL     1       4.339   1.608   3.691  0.00  0.00    +0.000 C 
ATOM      9  C   UNL     1       3.951   0.184   4.160  0.00  0.00    +0.000 C 
ATOM     10  C   UNL     1       2.541  -0.036   3.576  0.00  0.00    +0.005 C 
ENDBRANCH   5   6
BRANCH   1  12
ATOM     11  C   UNL     1      -0.361   1.205   0.318  0.00  0.00    +0.032 C 
ATOM     12  C   UNL     1      -0.053  -0.288   0.193  0.00  0.00    +0.115 C 
BRANCH  12  13
ATOM     13  C   UNL     1      -1.323  -1.079   0.376  0.00  0.00    +0.080 C 
ATOM     14  N   UNL     1      -1.684  -1.481   1.582  0.00  0.00    -0.389 N 
ATOM     15  N   UNL     1      -2.075  -1.373  -0.671  0.00  0.00    -0.347 N 
ATOM     16  H   UNL     1      -1.132  -1.266   2.350  0.00  0.00    +0.157 HD
ATOM     17  H   UNL     1      -1.810  -1.078  -1.557  0.00  0.00    +0.143 HD
ATOM     18  H   UNL     1      -2.892  -1.882  -0.554  0.00  0.00    +0.143 HD
ATOM     19  H   UNL     1      -2.501  -1.990   1.699  0.00  0.00    +0.157 HD
ENDBRANCH  12  13
ENDBRANCH   1  12
TORSDOF 3
