REMARK  Name = ZINC16531003
REMARK  8 active torsions:
REMARK  status: ('A' for Active; 'I' for Inactive)
REMARK    1  A    between atoms: C_1  and  C_2
REMARK    2  A    between atoms: C_7  and  C_8
REMARK    3  A    between atoms: C_18  and  C_20
REMARK    4  A    between atoms: C_20  and  N_21
REMARK    5  A    between atoms: N_21  and  C_22
REMARK    6  A    between atoms: N_21  and  S_29
REMARK    7  A    between atoms: C_22  and  C_23
REMARK    8  A    between atoms: S_29  and  C_32
REMARK                            x       y       z     vdW  Elec       q    Type
REMARK                         _______ _______ _______ _____ _____    ______ ____
ROOT
ATOM      1  C   UNL     1      -1.308  -0.774   0.013  0.00  0.00    +0.138 C 
ATOM      2  C   UNL     1      -1.915  -0.747   1.414  0.00  0.00    -0.012 A 
ATOM      3  C   UNL     1      -2.041   0.418   2.170  0.00  0.00    +0.013 A 
ATOM      4  C   UNL     1      -2.595   0.368   3.403  0.00  0.00    +0.046 A 
ATOM      5  S   UNL     1      -2.975  -1.370   3.565  0.00  0.00    -0.101 S 
ATOM      6  C   UNL     1      -2.368  -1.896   1.984  0.00  0.00    -0.003 A 
ATOM      7  C   UNL     1      -2.352  -3.275   1.408  0.00  0.00    +0.062 C 
ATOM      8  C   UNL     1      -2.114  -3.173  -0.106  0.00  0.00    +0.114 C 
ATOM      9  N   UNL     1      -1.057  -2.177  -0.341  0.00  0.00    -0.289 N 
ATOM     10  C   UNL     1       0.124  -2.547  -0.873  0.00  0.00    +0.232 C 
ATOM     11  O   UNL     1       1.022  -1.738  -0.980  0.00  0.00    -0.274 OA
ENDROOT
BRANCH   1  18
ATOM     12  C   UNL     1      -0.885   1.325  -1.928  0.00  0.00    +0.044 C 
ATOM     13  C   UNL     1       0.190   1.000  -0.923  0.00  0.00    -0.045 A 
ATOM     14  C   UNL     1       1.379   1.705  -0.931  0.00  0.00    +0.004 A 
ATOM     15  C   UNL     1       2.368   1.403  -0.013  0.00  0.00    +0.000 A 
ATOM     16  C   UNL     1       2.167   0.397   0.914  0.00  0.00    +0.000 A 
ATOM     17  C   UNL     1       0.977  -0.307   0.922  0.00  0.00    +0.006 A 
ATOM     18  C   UNL     1      -0.011  -0.006   0.004  0.00  0.00    -0.020 A 
ENDBRANCH   1  18
BRANCH  10  19
ATOM     19  C   UNL     1       0.331  -3.967  -1.336  0.00  0.00    +0.205 C 
BRANCH  19  20
ATOM     20  N   UNL     1       1.687  -4.114  -1.871  0.00  0.00    -0.165 NA
BRANCH  20  21
ATOM     21  S   UNL     1       1.956  -3.963  -3.498  0.00  0.00    +0.061 S 
ATOM     22  O   UNL     1       3.152  -4.676  -3.779  0.00  0.00    -0.153 OA
ATOM     23  O   UNL     1       0.724  -4.257  -4.142  0.00  0.00    -0.153 OA
BRANCH  21  24
ATOM     24  C   UNL     1       2.297  -2.263  -3.814  0.00  0.00    +0.105 A 
ATOM     25  C   UNL     1       1.264  -1.396  -4.118  0.00  0.00    +0.028 A 
ATOM     26  C   UNL     1       1.531  -0.062  -4.362  0.00  0.00    +0.002 A 
ATOM     27  C   UNL     1       2.832   0.403  -4.311  0.00  0.00    +0.000 A 
ATOM     28  C   UNL     1       3.865  -0.465  -4.011  0.00  0.00    +0.002 A 
ATOM     29  C   UNL     1       3.598  -1.798  -3.763  0.00  0.00    +0.028 A 
ENDBRANCH  21  24
ENDBRANCH  20  21
BRANCH  20  30
ATOM     30  C   UNL     1       2.805  -4.394  -0.966  0.00  0.00    +0.141 C 
BRANCH  30  31
ATOM     31  C   UNL     1       2.896  -5.902  -0.720  0.00  0.00    +0.134 C 
ATOM     32  C   UNL     1       3.998  -6.197   0.321  0.00  0.00    +0.035 C 
ATOM     33  C   UNL     1       4.650  -7.487  -0.246  0.00  0.00    +0.031 C 
ATOM     34  C   UNL     1       4.519  -7.237  -1.770  0.00  0.00    +0.160 C 
ATOM     35  O   UNL     1       3.258  -6.571  -1.934  0.00  0.00    -0.375 OA
ENDBRANCH  30  31
ENDBRANCH  20  30
ENDBRANCH  19  20
ENDBRANCH  10  19
TORSDOF 7
