REMARK  Name = ZINC62201010
REMARK  6 active torsions:
REMARK  status: ('A' for Active; 'I' for Inactive)
REMARK    1  A    between atoms: C_1  and  C_2
REMARK    2  A    between atoms: C_6  and  C_9
REMARK    3  A    between atoms: C_9  and  C_10
REMARK    4  A    between atoms: C_10  and  C_12
REMARK    5  A    between atoms: C_10  and  N_13
REMARK    6  A    between atoms: C_14  and  C_19
REMARK                            x       y       z     vdW  Elec       q    Type
REMARK                         _______ _______ _______ _____ _____    ______ ____
ROOT
ATOM      1  C   UNL     1      -0.018   1.503   0.010  0.00  0.00    +0.047 C 
ATOM      2  C   UNL     1       0.002  -0.004   0.002  0.00  0.00    -0.010 A 
ATOM      3  C   UNL     1       0.006  -0.693  -1.209  0.00  0.00    +0.042 A 
ATOM      4  C   UNL     1       0.025  -2.082  -1.193  0.00  0.00    -0.014 A 
ATOM      5  C   UNL     1       0.039  -2.773  -0.003  0.00  0.00    +0.011 A 
ATOM      6  C   UNL     1       0.035  -2.084   1.197  0.00  0.00    -0.030 A 
ATOM      7  C   UNL     1       0.023  -0.699   1.194  0.00  0.00    +0.049 A 
ATOM      8 CL   UNL     1       0.026   0.167   2.699  0.00  0.00    -0.083 Cl
ATOM      9  C   UNL     1       0.024  -2.524  -2.639  0.00  0.00    +0.104 C 
ATOM     10  C   UNL     1       0.003  -1.227  -3.420  0.00  0.00    +0.224 C 
ATOM     11  O   UNL     1      -0.004  -1.114  -4.627  0.00  0.00    -0.275 OA
ATOM     12  N   UNL     1      -0.006  -0.226  -2.524  0.00  0.00    -0.284 N 
ATOM     13  C   UNL     1       1.290  -3.323  -2.955  0.00  0.00    +0.022 C 
ATOM     14  H   UNL     1      -0.021   0.714  -2.764  0.00  0.00    +0.155 HD
ENDROOT
BRANCH   6  15
ATOM     15  C   UNL     1       0.051  -2.837   2.502  0.00  0.00    +0.020 C 
BRANCH  15  16
ATOM     16  C   UNL     1       1.474  -2.856   3.063  0.00  0.00    -0.074 C 
ATOM     17  C   UNL     1       1.514  -3.725   4.322  0.00  0.00    -0.014 C 
BRANCH  16  18
ATOM     18  N   UNL     1       1.886  -1.487   3.400  0.00  0.00    +0.380 N 
ATOM     19  H   UNL     1       1.257  -1.107   4.091  0.00  0.00    -0.090 HD
ATOM     20  H   UNL     1       2.825  -1.500   3.769  0.00  0.00    -0.090 HD
ATOM     21  H   UNL     1       1.859  -0.914   2.570  0.00  0.00    -0.090 HD
ENDBRANCH  16  18
ENDBRANCH  15  16
ENDBRANCH   6  15
TORSDOF 3
