REMARK  Name = ZINC39546887
REMARK  6 active torsions:
REMARK  status: ('A' for Active; 'I' for Inactive)
REMARK    1  A    between atoms: C_4  and  N_7
REMARK    2  A    between atoms: C_12  and  S_16
REMARK    3  A    between atoms: S_16  and  C_17
REMARK    4  A    between atoms: C_17  and  C_18
REMARK    5  A    between atoms: N_20  and  N_21
REMARK    6  A    between atoms: C_22  and  C_24
REMARK                            x       y       z     vdW  Elec       q    Type
REMARK                         _______ _______ _______ _____ _____    ______ ____
ROOT
ATOM      1  S   UNL     1       7.438  -3.796   0.520  0.00  0.00    -0.096 S 
ENDROOT
BRANCH   1   7
ATOM      2  N   UNL     1       3.623  -0.651  -0.037  0.00  0.00    -0.214 N 
ATOM      3  C   UNL     1       3.885  -1.839   0.584  0.00  0.00    +0.167 A 
ATOM      4  C   UNL     1       5.230  -2.150   0.302  0.00  0.00    +0.071 A 
ATOM      5  C   UNL     1       5.737  -1.105  -0.501  0.00  0.00    +0.147 A 
ATOM      6  N   UNL     1       4.786  -0.236  -0.698  0.00  0.00    -0.172 NA
ATOM      7  C   UNL     1       5.764  -3.341   0.831  0.00  0.00    +0.111 A 
ATOM      8  N   UNL     1       4.974  -4.114   1.570  0.00  0.00    -0.228 NA
ATOM      9  C   UNL     1       3.719  -3.780   1.807  0.00  0.00    +0.224 A 
ATOM     10  N   UNL     1       3.176  -2.679   1.335  0.00  0.00    -0.216 NA
BRANCH   2  14
ATOM     11  C   UNL     1      -0.017   1.379   0.010  0.00  0.00    +0.000 A 
ATOM     12  C   UNL     1       1.170   2.089   0.002  0.00  0.00    +0.002 A 
ATOM     13  C   UNL     1       2.377   1.419  -0.013  0.00  0.00    +0.028 A 
ATOM     14  C   UNL     1       2.400   0.031  -0.021  0.00  0.00    +0.068 A 
ATOM     15  C   UNL     1       1.206  -0.680  -0.013  0.00  0.00    +0.028 A 
ATOM     16  C   UNL     1       0.002  -0.004   0.002  0.00  0.00    +0.002 A 
ENDBRANCH   2  14
ENDBRANCH   1   7
BRANCH   1  17
ATOM     17  C   UNL     1       7.635  -5.372   1.397  0.00  0.00    +0.173 C 
BRANCH  17  18
ATOM     18  C   UNL     1       9.042  -5.878   1.210  0.00  0.00    +0.239 C 
ATOM     19  O   UNL     1       9.834  -5.239   0.550  0.00  0.00    -0.273 OA
ATOM     20  N   UNL     1       9.420  -7.041   1.776  0.00  0.00    -0.233 N 
ATOM     21  H   UNL     1       8.787  -7.552   2.304  0.00  0.00    +0.173 HD
BRANCH  20  22
ATOM     22  N   UNL     1      10.728  -7.512   1.603  0.00  0.00    -0.230 N 
ATOM     23  C   UNL     1      11.106  -8.675   2.169  0.00  0.00    +0.262 C 
ATOM     24  O   UNL     1      10.312  -9.316   2.830  0.00  0.00    -0.269 OA
ATOM     25  H   UNL     1      11.361  -7.001   1.075  0.00  0.00    +0.173 HD
BRANCH  23  26
ATOM     26  C   UNL     1      12.486  -9.172   1.986  0.00  0.00    +0.056 A 
ATOM     27  C   UNL     1      13.402  -8.436   1.232  0.00  0.00    +0.014 A 
ATOM     28  C   UNL     1      14.688  -8.906   1.065  0.00  0.00    +0.001 A 
ATOM     29  C   UNL     1      15.072 -10.103   1.643  0.00  0.00    +0.001 A 
ATOM     30  C   UNL     1      14.171 -10.838   2.391  0.00  0.00    +0.021 A 
ATOM     31  C   UNL     1      12.881 -10.377   2.571  0.00  0.00    +0.053 A 
ATOM     32 CL   UNL     1      11.753 -11.297   3.518  0.00  0.00    -0.083 Cl
ENDBRANCH  23  26
ENDBRANCH  20  22
ENDBRANCH  17  18
ENDBRANCH   1  17
TORSDOF 6
