REMARK  Name = ZINC39522039
REMARK  8 active torsions:
REMARK  status: ('A' for Active; 'I' for Inactive)
REMARK    1  A    between atoms: C_1  and  C_2
REMARK    2  A    between atoms: C_2  and  C_3
REMARK    3  A    between atoms: C_2  and  S_4
REMARK    4  A    between atoms: S_4  and  C_7
REMARK    5  A    between atoms: N_13  and  O_14
REMARK    6  A    between atoms: O_14  and  C_15
REMARK    7  A    between atoms: C_19  and  C_22
REMARK    8  A    between atoms: C_27  and  O_28
REMARK                            x       y       z     vdW  Elec       q    Type
REMARK                         _______ _______ _______ _____ _____    ______ ____
ROOT
ATOM      1  C   UNL     1      -1.372  -2.315   0.150  0.00  0.00    +0.225 C 
ATOM      2  C   UNL     1      -2.632  -3.177   0.041  0.00  0.00    +0.044 C 
ATOM      3  C   UNL     1      -2.229  -4.647  -0.098  0.00  0.00    +0.005 C 
ATOM      4  C   UNL     1      -1.372  -5.049   1.106  0.00  0.00    +0.025 C 
ATOM      5  C   UNL     1      -0.148  -4.133   1.184  0.00  0.00    +0.050 C 
ATOM      6  N   UNL     1      -0.587  -2.738   1.317  0.00  0.00    -0.158 NA
ATOM      7  C   UNL     1       0.686  -4.289  -0.088  0.00  0.00    +0.025 C 
ATOM      8  C   UNL     1       1.913  -3.377  -0.009  0.00  0.00    +0.002 C 
ATOM      9  C   UNL     1       2.759  -3.765   1.205  0.00  0.00    +0.008 C 
ATOM     10  C   UNL     1       1.924  -3.608   2.478  0.00  0.00    +0.024 C 
ATOM     11  C   UNL     1       0.698  -4.520   2.399  0.00  0.00    +0.033 C 
ENDROOT
BRANCH  10  12
ATOM     12  C   UNL     1       2.757  -3.989   3.675  0.00  0.00    -0.003 A 
ATOM     13  C   UNL     1       3.286  -5.261   3.773  0.00  0.00    +0.007 A 
ATOM     14  C   UNL     1       4.050  -5.611   4.871  0.00  0.00    +0.001 A 
ATOM     15  C   UNL     1       4.286  -4.689   5.874  0.00  0.00    +0.004 A 
ATOM     16  C   UNL     1       3.760  -3.415   5.781  0.00  0.00    +0.046 A 
ATOM     17  C   UNL     1       2.997  -3.060   4.677  0.00  0.00    +0.120 A 
BRANCH  17  18
ATOM     18  O   UNL     1       2.482  -1.806   4.580  0.00  0.00    -0.506 OA
ATOM     19  H   UNL     1       1.605  -1.710   4.975  0.00  0.00    +0.292 HD
ENDBRANCH  17  18
ENDBRANCH  10  12
BRANCH   1  20
ATOM     20  S   UNL     1      -1.845  -0.574   0.339  0.00  0.00    -0.011 S 
ATOM     21  O   UNL     1      -0.661   0.211   0.380  0.00  0.00    -0.173 OA
ATOM     22  O   UNL     1      -2.777  -0.475   1.407  0.00  0.00    -0.173 OA
BRANCH  20  24
ATOM     23  C   UNL     1      -3.095   1.257  -1.263  0.00  0.00    +0.031 C 
ATOM     24  C   UNL     1      -2.712  -0.223  -1.215  0.00  0.00    +0.126 C 
ATOM     25  C   UNL     1      -1.797  -0.552  -2.396  0.00  0.00    +0.031 C 
ENDBRANCH  20  24
ENDBRANCH   1  20
BRANCH   6  26
ATOM     26  O   UNL     1       0.553  -1.848   1.532  0.00  0.00    -0.298 OA
ATOM     27  C   UNL     1       0.411  -0.983   2.661  0.00  0.00    +0.221 C 
ENDBRANCH   6  26
TORSDOF 5
