REMARK  Name = ZINC56370579
REMARK  4 active torsions:
REMARK  status: ('A' for Active; 'I' for Inactive)
REMARK    1  A    between atoms: C_1  and  N_2
REMARK    2  A    between atoms: N_5  and  N_6
REMARK    3  A    between atoms: C_7  and  C_9
REMARK    4  A    between atoms: C_10  and  C_11
REMARK                            x       y       z     vdW  Elec       q    Type
REMARK                         _______ _______ _______ _____ _____    ______ ____
ROOT
ATOM      1  N   UNL     1       0.016  -2.726   0.027  0.00  0.00    -0.230 N 
ATOM      2  C   UNL     1       0.035  -4.074   0.020  0.00  0.00    +0.253 C 
ATOM      3  O   UNL     1       0.561  -4.670  -0.901  0.00  0.00    -0.269 OA
ATOM      4  H   UNL     1      -0.403  -2.251   0.761  0.00  0.00    +0.173 HD
ENDROOT
BRANCH   1   9
ATOM      5  C   UNL     1      -0.018   1.461   0.010  0.00  0.00    +0.129 C 
ATOM      6  N   UNL     1       0.002  -0.004   0.002  0.00  0.00    -0.301 N 
ATOM      7  C   UNL     1       0.585  -0.664  -1.018  0.00  0.00    +0.316 C 
ATOM      8  O   UNL     1       1.095  -0.045  -1.931  0.00  0.00    -0.251 OA
ATOM      9  N   UNL     1       0.603  -2.012  -1.025  0.00  0.00    -0.218 N 
ATOM     10  H   UNL     1      -0.404  -0.499   0.731  0.00  0.00    +0.150 HD
ATOM     11  H   UNL     1       1.023  -2.487  -1.760  0.00  0.00    +0.174 HD
ENDBRANCH   1   9
BRANCH   2  12
ATOM     12  C   UNL     1      -0.578  -4.820   1.119  0.00  0.00    +0.069 C 
ATOM     13  C   UNL     1      -0.560  -6.170   1.111  0.00  0.00    +0.013 C 
BRANCH  13  14
ATOM     14  C   UNL     1      -1.176  -6.919   2.216  0.00  0.00    -0.021 A 
ATOM     15  C   UNL     1      -1.787  -6.236   3.273  0.00  0.00    +0.012 A 
ATOM     16  C   UNL     1      -2.364  -6.940   4.306  0.00  0.00    +0.050 A 
ATOM     17  C   UNL     1      -2.341  -8.329   4.304  0.00  0.00    +0.166 A 
ATOM     18  C   UNL     1      -1.734  -9.018   3.253  0.00  0.00    +0.167 A 
ATOM     19  C   UNL     1      -1.158  -8.318   2.210  0.00  0.00    +0.057 A 
ATOM     20  O   UNL     1      -1.846 -10.358   3.487  0.00  0.00    -0.453 OA
ATOM     21  C   UNL     1      -2.164 -10.477   4.887  0.00  0.00    +0.466 C 
ATOM     22  O   UNL     1      -2.833  -9.239   5.193  0.00  0.00    -0.453 OA
ENDBRANCH  13  14
ENDBRANCH   2  12
TORSDOF 3
