REMARK  Name = ZINC35405772
REMARK  9 active torsions:
REMARK  status: ('A' for Active; 'I' for Inactive)
REMARK    1  A    between atoms: C_1  and  C_2
REMARK    2  A    between atoms: C_7  and  C_8
REMARK    3  A    between atoms: C_18  and  C_20
REMARK    4  A    between atoms: C_20  and  N_21
REMARK    5  A    between atoms: N_21  and  C_22
REMARK    6  A    between atoms: N_21  and  S_25
REMARK    7  A    between atoms: C_22  and  C_23
REMARK    8  A    between atoms: C_22  and  C_24
REMARK    9  A    between atoms: S_25  and  C_28
REMARK                            x       y       z     vdW  Elec       q    Type
REMARK                         _______ _______ _______ _____ _____    ______ ____
ROOT
ATOM      1  C   UNL     1       0.184   0.170   2.423  0.00  0.00    +0.138 C 
ATOM      2  C   UNL     1       1.580   0.776   2.556  0.00  0.00    -0.012 A 
ATOM      3  C   UNL     1       2.028   1.841   1.777  0.00  0.00    +0.013 A 
ATOM      4  C   UNL     1       3.280   2.325   1.947  0.00  0.00    +0.046 A 
ATOM      5  S   UNL     1       3.906   1.274   3.249  0.00  0.00    -0.101 S 
ATOM      6  C   UNL     1       2.457   0.276   3.470  0.00  0.00    -0.003 A 
ATOM      7  C   UNL     1       2.240  -0.846   4.431  0.00  0.00    +0.062 C 
ATOM      8  C   UNL     1       1.008  -1.648   3.984  0.00  0.00    +0.114 C 
ATOM      9  N   UNL     1      -0.043  -0.697   3.586  0.00  0.00    -0.289 N 
ATOM     10  C   UNL     1      -1.196  -0.623   4.280  0.00  0.00    +0.232 C 
ATOM     11  O   UNL     1      -2.055   0.165   3.945  0.00  0.00    -0.274 OA
ENDROOT
BRANCH   1  18
ATOM     12  C   UNL     1      -1.931   0.678   0.521  0.00  0.00    +0.044 C 
ATOM     13  C   UNL     1      -0.913  -0.399   0.246  0.00  0.00    -0.045 A 
ATOM     14  C   UNL     1      -0.988  -1.139  -0.918  0.00  0.00    +0.004 A 
ATOM     15  C   UNL     1      -0.054  -2.127  -1.171  0.00  0.00    +0.000 A 
ATOM     16  C   UNL     1       0.955  -2.373  -0.258  0.00  0.00    +0.000 A 
ATOM     17  C   UNL     1       1.030  -1.632   0.906  0.00  0.00    +0.006 A 
ATOM     18  C   UNL     1       0.099  -0.641   1.156  0.00  0.00    -0.020 A 
ENDBRANCH   1  18
BRANCH  10  19
ATOM     19  C   UNL     1      -1.419  -1.518   5.472  0.00  0.00    +0.205 C 
BRANCH  19  20
ATOM     20  N   UNL     1      -2.738  -1.246   6.048  0.00  0.00    -0.165 NA
BRANCH  20  21
ATOM     21  C   UNL     1      -3.925  -1.909   5.505  0.00  0.00    +0.074 C 
ATOM     22  C   UNL     1      -4.084  -1.542   4.028  0.00  0.00    +0.025 C 
ATOM     23  C   UNL     1      -3.769  -3.425   5.640  0.00  0.00    +0.025 C 
ENDBRANCH  20  21
BRANCH  20  24
ATOM     24  S   UNL     1      -2.886  -0.187   7.313  0.00  0.00    +0.064 S 
ATOM     25  O   UNL     1      -4.083  -0.535   7.995  0.00  0.00    -0.153 OA
ATOM     26  O   UNL     1      -1.623  -0.151   7.962  0.00  0.00    -0.153 OA
BRANCH  24  27
ATOM     27  C   UNL     1      -3.145   1.414   6.625  0.00  0.00    +0.131 A 
ATOM     28  C   UNL     1      -4.322   2.065   6.835  0.00  0.00    +0.031 A 
ATOM     29  C   UNL     1      -4.548   3.332   6.301  0.00  0.00    +0.003 A 
ATOM     30  C   UNL     1      -3.595   3.954   5.552  0.00  0.00    +0.010 A 
ATOM     31  C   UNL     1      -2.370   3.312   5.315  0.00  0.00    +0.002 A 
ATOM     32  C   UNL     1      -2.136   2.026   5.862  0.00  0.00    +0.097 A 
ATOM     33  N   UNL     1      -0.969   1.412   5.644  0.00  0.00    -0.253 NA
ATOM     34  C   UNL     1      -0.024   1.978   4.933  0.00  0.00    +0.111 A 
ATOM     35  C   UNL     1      -0.187   3.243   4.371  0.00  0.00    +0.020 A 
ATOM     36  C   UNL     1      -1.360   3.921   4.547  0.00  0.00    +0.011 A 
ENDBRANCH  24  27
ENDBRANCH  20  24
ENDBRANCH  19  20
ENDBRANCH  10  19
TORSDOF 6
