REMARK  Name = ZINC39287077
REMARK  4 active torsions:
REMARK  status: ('A' for Active; 'I' for Inactive)
REMARK    1  A    between atoms: C_7  and  N_9
REMARK    2  A    between atoms: N_9  and  C_10
REMARK    3  A    between atoms: C_10  and  N_12
REMARK    4  A    between atoms: N_12  and  C_13
REMARK                            x       y       z     vdW  Elec       q    Type
REMARK                         _______ _______ _______ _____ _____    ______ ____
ROOT
ATOM      1  C   UNL     1      -1.709  -1.735  -0.118  0.00  0.00    +0.133 C 
ATOM      2  S   UNL     1      -0.613  -2.698  -1.013  0.00  0.00    -0.019 S 
ENDROOT
BRANCH   1   3
ATOM      3  N   UNL     1      -1.339  -0.510   0.307  0.00  0.00    -0.322 N 
ATOM      4  H   UNL     1      -1.960   0.036   0.814  0.00  0.00    +0.148 HD
BRANCH   3  11
ATOM      5  C   UNL     1      -0.019   1.534   0.011  0.00  0.00    +0.046 C 
ATOM      6  C   UNL     1       1.453   2.038  -0.001  0.00  0.00    +0.168 C 
ATOM      7  S   UNL     1       2.228   0.842   1.167  0.00  0.00    -0.029 S 
ATOM      8  O   UNL     1       2.198   1.391   2.478  0.00  0.00    -0.174 OA
ATOM      9  O   UNL     1       3.463   0.399   0.623  0.00  0.00    -0.174 OA
ATOM     10  C   UNL     1       1.001  -0.524   1.063  0.00  0.00    +0.188 C 
ATOM     11  C   UNL     1       0.002  -0.004   0.002  0.00  0.00    +0.094 C 
ENDBRANCH   3  11
ENDBRANCH   1   3
BRANCH   1  12
ATOM     12  N   UNL     1      -2.942  -2.200   0.163  0.00  0.00    -0.289 N 
ATOM     13  H   UNL     1      -3.563  -1.655   0.670  0.00  0.00    +0.151 HD
BRANCH  12  14
ATOM     14  C   UNL     1      -3.345  -3.531  -0.299  0.00  0.00    +0.302 C 
ATOM     15  N   UNL     1      -4.802  -3.712  -0.154  0.00  0.00    -0.286 N 
ATOM     16  C   UNL     1      -4.927  -4.746   0.707  0.00  0.00    +0.177 C 
ATOM     17  N   UNL     1      -3.722  -5.191   1.083  0.00  0.00    -0.097 NA
ATOM     18  N   UNL     1      -2.779  -4.575   0.571  0.00  0.00    -0.153 NA
ATOM     19  S   UNL     1      -6.418  -5.396   1.242  0.00  0.00    -0.015 S 
ATOM     20  H   UNL     1      -5.510  -3.204  -0.581  0.00  0.00    +0.151 HD
ENDBRANCH  12  14
ENDBRANCH   1  12
TORSDOF 4
