REMARK  Name = ZINC45068043
REMARK  5 active torsions:
REMARK  status: ('A' for Active; 'I' for Inactive)
REMARK    1  A    between atoms: C_1  and  C_2
REMARK    2  A    between atoms: C_8  and  C_10
REMARK    3  A    between atoms: C_10  and  S_11
REMARK    4  A    between atoms: S_11  and  C_12
REMARK    5  A    between atoms: C_18  and  N_22
REMARK                            x       y       z     vdW  Elec       q    Type
REMARK                         _______ _______ _______ _____ _____    ______ ____
ROOT
ATOM      1  C   UNL     1       0.131  -7.856   4.002  0.00  0.00    +0.168 A 
ATOM      2  N   UNL     1       0.156  -9.222   4.036  0.00  0.00    -0.333 N 
ATOM      3  H   UNL     1       0.164  -9.817   3.270  0.00  0.00    +0.168 HD
ATOM      4  C   UNL     1       0.166  -9.599   5.369  0.00  0.00    +0.067 A 
ATOM      5  C   UNL     1       0.190 -10.821   6.022  0.00  0.00    +0.030 A 
ATOM      6  C   UNL     1       0.194 -10.864   7.401  0.00  0.00    +0.035 A 
ATOM      7  C   UNL     1       0.175  -9.690   8.140  0.00  0.00    +0.128 A 
ATOM      8  C   UNL     1       0.151  -8.467   7.508  0.00  0.00    +0.062 A 
ATOM      9  C   UNL     1       0.147  -8.407   6.112  0.00  0.00    +0.092 A 
ATOM     10  N   UNL     1       0.131  -7.380   5.223  0.00  0.00    -0.222 NA
ENDROOT
BRANCH   7  11
ATOM     11  N   UNL     1       0.180  -9.753   9.619  0.00  0.00    +0.056 N 
ATOM     12  O   UNL     1       0.201 -10.824  10.178  0.00  0.00    -0.126 OA
ATOM     13  O   UNL     1       0.164  -8.732  10.268  0.00  0.00    -0.126 OA
ENDBRANCH   7  11
BRANCH   1  14
ATOM     14  S   UNL     1       0.110  -6.881   2.534  0.00  0.00    -0.079 S 
BRANCH  14  15
ATOM     15  C   UNL     1       0.089  -5.172   3.144  0.00  0.00    +0.173 C 
BRANCH  15  23
ATOM     16  C   UNL     1      -0.018   1.503   0.010  0.00  0.00    +0.066 C 
ATOM     17  C   UNL     1       0.002  -0.004   0.002  0.00  0.00    +0.047 A 
ATOM     18  C   UNL     1       0.006  -0.706  -1.158  0.00  0.00    +0.071 A 
ATOM     19  S   UNL     1       0.032  -2.379  -0.535  0.00  0.00    -0.060 S 
ATOM     20  C   UNL     1       0.036  -2.015   1.108  0.00  0.00    +0.165 A 
ATOM     21  N   UNL     1       0.023  -0.700   1.124  0.00  0.00    -0.230 NA
ATOM     22  N   UNL     1       0.053  -2.891   2.187  0.00  0.00    -0.264 N 
ATOM     23  C   UNL     1       0.071  -4.222   1.974  0.00  0.00    +0.229 C 
ATOM     24  O   UNL     1       0.071  -4.655   0.841  0.00  0.00    -0.275 OA
ATOM     25  H   UNL     1       0.053  -2.545   3.093  0.00  0.00    +0.157 HD
ENDBRANCH  15  23
ENDBRANCH  14  15
ENDBRANCH   1  14
TORSDOF 4
