REMARK  Name = ZINC63625401
REMARK  10 active torsions:
REMARK  status: ('A' for Active; 'I' for Inactive)
REMARK    1  A    between atoms: C_1  and  C_2
REMARK    2  A    between atoms: C_2  and  O_3
REMARK    3  A    between atoms: O_3  and  C_4
REMARK    4  A    between atoms: C_4  and  C_6
REMARK    5  A    between atoms: C_7  and  C_36
REMARK    6  A    between atoms: C_8  and  C_13
REMARK    7  A    between atoms: C_10  and  C_12
REMARK    8  A    between atoms: C_18  and  C_21
REMARK    9  A    between atoms: C_21  and  C_22
REMARK   10  A    between atoms: N_27  and  C_30
REMARK                            x       y       z     vdW  Elec       q    Type
REMARK                         _______ _______ _______ _____ _____    ______ ____
ROOT
ATOM      1  C   UNL     1      -5.114  -4.565  -1.202  0.00  0.00    +0.228 C 
ATOM      2  O   UNL     1      -4.332  -4.876  -2.076  0.00  0.00    -0.275 OA
ATOM      3  N   UNL     1      -6.423  -4.857  -1.333  0.00  0.00    -0.301 N 
ATOM      4  C   UNL     1      -7.398  -4.386  -0.341  0.00  0.00    +0.108 C 
ATOM      5  C   UNL     1      -8.514  -3.628  -1.067  0.00  0.00    +0.023 C 
ATOM      6  C   UNL     1      -9.109  -4.525  -2.155  0.00  0.00    +0.001 C 
ATOM      7  C   UNL     1      -8.024  -4.881  -3.175  0.00  0.00    +0.023 C 
ATOM      8  C   UNL     1      -6.903  -5.647  -2.475  0.00  0.00    +0.108 C 
ENDROOT
BRANCH   1  11
ATOM      9  C   UNL     1      -3.037  -4.719   1.414  0.00  0.00    +0.148 C 
ATOM     10  C   UNL     1      -4.350  -4.843   1.150  0.00  0.00    -0.023 C 
ATOM     11  C   UNL     1      -4.620  -3.853   0.032  0.00  0.00    +0.147 C 
ATOM     12  C   UNL     1      -3.260  -3.231  -0.213  0.00  0.00    +0.033 C 
ATOM     13  N   UNL     1      -2.447  -3.784   0.618  0.00  0.00    -0.249 NA
ATOM     14  C   UNL     1      -2.926  -2.168  -1.227  0.00  0.00    +0.062 C 
ATOM     15  C   UNL     1      -5.337  -5.764   1.819  0.00  0.00    +0.042 C 
BRANCH   9  16
ATOM     16  C   UNL     1      -2.323  -5.498   2.445  0.00  0.00    +0.358 C 
ATOM     17  O   UNL     1      -2.924  -6.315   3.114  0.00  0.00    -0.243 OA
BRANCH  16  18
ATOM     18  O   UNL     1      -1.004  -5.303   2.644  0.00  0.00    -0.460 OA
BRANCH  18  20
ATOM     19  C   UNL     1       1.107  -5.733   3.738  0.00  0.00    +0.048 C 
ATOM     20  C   UNL     1      -0.378  -6.092   3.658  0.00  0.00    +0.229 C 
ENDBRANCH  18  20
ENDBRANCH  16  18
ENDBRANCH   9  16
ENDBRANCH   1  11
BRANCH   6  21
ATOM     21  C   UNL     1     -10.247  -3.785  -2.860  0.00  0.00    +0.099 C 
BRANCH  21  22
ATOM     22  C   UNL     1     -10.913  -4.709  -3.847  0.00  0.00    +0.216 C 
ATOM     23  O   UNL     1     -10.515  -5.848  -3.974  0.00  0.00    -0.276 OA
ATOM     24  N   UNL     1     -11.949  -4.271  -4.588  0.00  0.00    -0.305 N 
ATOM     25  C   UNL     1     -12.444  -2.892  -4.455  0.00  0.00    +0.089 C 
ATOM     26  C   UNL     1     -12.539  -2.273  -5.854  0.00  0.00    -0.059 C 
ATOM     27  N   UNL     1     -13.363  -3.132  -6.714  0.00  0.00    +0.384 N 
ATOM     28  C   UNL     1     -12.704  -4.431  -6.900  0.00  0.00    -0.059 C 
ATOM     29  C   UNL     1     -12.614  -5.155  -5.558  0.00  0.00    +0.089 C 
ATOM     30  H   UNL     1     -14.264  -3.272  -6.282  0.00  0.00    -0.081 HD
BRANCH  27  31
ATOM     31  C   UNL     1     -13.544  -2.485  -8.020  0.00  0.00    -0.068 C 
ATOM     32  C   UNL     1     -14.240  -1.136  -7.828  0.00  0.00    -0.015 C 
ATOM     33  C   UNL     1     -14.430  -0.462  -9.189  0.00  0.00    -0.002 C 
ATOM     34  C   UNL     1     -15.288  -1.356 -10.086  0.00  0.00    -0.000 C 
ATOM     35  C   UNL     1     -14.592  -2.705 -10.277  0.00  0.00    -0.002 C 
ATOM     36  C   UNL     1     -14.402  -3.379  -8.917  0.00  0.00    -0.015 C 
ENDBRANCH  27  31
ENDBRANCH  21  22
ENDBRANCH   6  21
TORSDOF 7
