REMARK  Name = ZINC60722328
REMARK  3 active torsions:
REMARK  status: ('A' for Active; 'I' for Inactive)
REMARK    1  A    between atoms: C_3  and  N_20
REMARK    2  A    between atoms: C_4  and  C_8
REMARK    3  A    between atoms: N_10  and  C_11
REMARK                            x       y       z     vdW  Elec       q    Type
REMARK                         _______ _______ _______ _____ _____    ______ ____
ROOT
ATOM      1  C   UNL     1       3.896  -0.227   0.142  0.00  0.00    +0.246 C 
ATOM      2  O   UNL     1       4.815   0.568   0.151  0.00  0.00    -0.270 OA
ATOM      3  N   UNL     1       4.150  -1.550   0.203  0.00  0.00    -0.310 N 
ATOM      4  H   UNL     1       3.416  -2.185   0.196  0.00  0.00    +0.149 HD
ENDROOT
BRANCH   3   5
ATOM      5  C   UNL     1       5.532  -2.028   0.278  0.00  0.00    +0.058 C 
ATOM      6  C   UNL     1       5.976  -2.213   1.755  0.00  0.00    +0.002 C 
ATOM      7  C   UNL     1       6.818  -3.513   1.760  0.00  0.00    -0.077 C 
ATOM      8  N   UNL     1       6.905  -3.939   0.363  0.00  0.00    +0.383 N 
ATOM      9  C   UNL     1       5.649  -3.460  -0.272  0.00  0.00    -0.048 C 
ATOM     10  C   UNL     1       5.849  -3.521  -1.780  0.00  0.00    -0.014 C 
ATOM     11  C   UNL     1       6.050  -4.997  -2.160  0.00  0.00    -0.003 C 
ATOM     12  C   UNL     1       7.207  -5.603  -1.367  0.00  0.00    -0.019 C 
ATOM     13  C   UNL     1       7.013  -5.374   0.140  0.00  0.00    -0.078 C 
ATOM     14  H   UNL     1       7.685  -3.475  -0.078  0.00  0.00    -0.081 HD
ENDBRANCH   3   5
BRANCH   1  18
ATOM     15  C   UNL     1      -0.113   1.160  -0.078  0.00  0.00    +0.022 A 
ATOM     16  C   UNL     1       0.804   1.549  -1.038  0.00  0.00    +0.035 A 
ATOM     17  C   UNL     1       2.108   1.102  -0.972  0.00  0.00    +0.138 A 
ATOM     18  C   UNL     1       2.501   0.256   0.067  0.00  0.00    +0.068 A 
ATOM     19  C   UNL     1       1.572  -0.133   1.032  0.00  0.00    +0.035 A 
ATOM     20  C   UNL     1       0.270   0.321   0.955  0.00  0.00    +0.042 A 
ATOM     21 CL   UNL     1      -0.888  -0.161   2.155  0.00  0.00    -0.084 Cl
BRANCH  17  22
ATOM     22  N   UNL     1       3.087   1.518  -2.000  0.00  0.00    +0.057 N 
ATOM     23  O   UNL     1       2.780   2.344  -2.829  0.00  0.00    -0.126 OA
ATOM     24  O   UNL     1       4.195   1.034  -2.012  0.00  0.00    -0.126 OA
ENDBRANCH  17  22
ENDBRANCH   1  18
TORSDOF 3
