REMARK  Name = ZINC40011312
REMARK  8 active torsions:
REMARK  status: ('A' for Active; 'I' for Inactive)
REMARK    1  A    between atoms: C_1  and  C_2
REMARK    2  A    between atoms: C_14  and  S_16
REMARK    3  A    between atoms: S_16  and  C_17
REMARK    4  A    between atoms: C_17  and  C_18
REMARK    5  A    between atoms: N_20  and  C_21
REMARK    6  A    between atoms: C_21  and  C_22
REMARK    7  A    between atoms: C_26  and  O_28
REMARK    8  A    between atoms: O_28  and  C_29
REMARK                            x       y       z     vdW  Elec       q    Type
REMARK                         _______ _______ _______ _____ _____    ______ ____
ROOT
ATOM      1  C   UNL     1      -0.018   1.503   0.010  0.00  0.00    +0.044 C 
ATOM      2  C   UNL     1       0.002  -0.004   0.002  0.00  0.00    -0.050 A 
ATOM      3  C   UNL     1       0.005  -0.672  -1.230  0.00  0.00    +0.005 A 
ATOM      4  C   UNL     1       0.029  -2.022  -1.308  0.00  0.00    +0.026 A 
ATOM      5  C   UNL     1       0.053  -2.812  -0.071  0.00  0.00    +0.046 A 
ATOM      6  N   UNL     1       0.046  -4.107   0.139  0.00  0.00    -0.358 N 
ATOM      7  C   UNL     1       0.204  -4.351   1.563  0.00  0.00    +0.252 C 
ATOM      8  C   UNL     1       0.043  -2.999   2.235  0.00  0.00    +0.117 C 
ATOM      9  C   UNL     1       0.037  -2.075   1.218  0.00  0.00    +0.025 A 
ATOM     10  C   UNL     1       0.022  -0.662   1.184  0.00  0.00    +0.015 A 
ATOM     11  N   UNL     1      -0.184  -2.888   3.546  0.00  0.00    -0.147 NA
ATOM     12  N   UNL     1      -0.780  -3.902   4.098  0.00  0.00    -0.122 NA
ATOM     13  C   UNL     1      -1.202  -4.969   3.376  0.00  0.00    +0.208 C 
ATOM     14  N   UNL     1      -0.804  -5.231   2.152  0.00  0.00    -0.227 NA
ATOM     15  H   UNL     1      -0.050  -4.789  -0.543  0.00  0.00    +0.162 HD
ENDROOT
BRANCH  13  16
ATOM     16  S   UNL     1      -2.349  -6.076   4.127  0.00  0.00    -0.075 S 
BRANCH  16  17
ATOM     17  C   UNL     1      -2.645  -7.333   2.852  0.00  0.00    +0.173 C 
BRANCH  17  18
ATOM     18  C   UNL     1      -3.623  -8.355   3.372  0.00  0.00    +0.224 C 
ATOM     19  O   UNL     1      -4.075  -8.247   4.492  0.00  0.00    -0.275 OA
ATOM     20  N   UNL     1      -3.994  -9.390   2.592  0.00  0.00    -0.311 N 
ATOM     21  H   UNL     1      -3.632  -9.476   1.697  0.00  0.00    +0.149 HD
BRANCH  20  22
ATOM     22  C   UNL     1      -4.944 -10.383   3.098  0.00  0.00    +0.139 C 
BRANCH  22  23
ATOM     23  C   UNL     1      -5.190 -11.427   2.039  0.00  0.00    -0.027 A 
ATOM     24  C   UNL     1      -6.208 -11.253   1.120  0.00  0.00    +0.005 A 
ATOM     25  C   UNL     1      -6.436 -12.208   0.147  0.00  0.00    +0.004 A 
ATOM     26  C   UNL     1      -5.647 -13.341   0.092  0.00  0.00    +0.045 A 
ATOM     27  C   UNL     1      -4.625 -13.519   1.013  0.00  0.00    +0.120 A 
ATOM     28  C   UNL     1      -4.394 -12.555   1.984  0.00  0.00    +0.050 A 
BRANCH  27  29
ATOM     29  O   UNL     1      -3.848 -14.632   0.960  0.00  0.00    -0.495 OA
ATOM     30  C   UNL     1      -4.139 -15.579  -0.070  0.00  0.00    +0.277 C 
ENDBRANCH  27  29
ENDBRANCH  22  23
ENDBRANCH  20  22
ENDBRANCH  17  18
ENDBRANCH  16  17
ENDBRANCH  13  16
TORSDOF 6
