REMARK  Name = ZINC12354701
REMARK  8 active torsions:
REMARK  status: ('A' for Active; 'I' for Inactive)
REMARK    1  A    between atoms: C_1  and  O_2
REMARK    2  A    between atoms: O_2  and  C_3
REMARK    3  A    between atoms: C_3  and  C_4
REMARK    4  A    between atoms: C_4  and  N_5
REMARK    5  A    between atoms: N_14  and  C_15
REMARK    6  A    between atoms: C_15  and  C_17
REMARK    7  A    between atoms: N_22  and  S_23
REMARK    8  A    between atoms: S_23  and  C_26
REMARK                            x       y       z     vdW  Elec       q    Type
REMARK                         _______ _______ _______ _____ _____    ______ ____
ROOT
ATOM      1  N   UNL     1      -0.067   1.120  -2.437  0.00  0.00    -0.317 N 
ATOM      2  C   UNL     1      -0.422  -0.091  -3.005  0.00  0.00    +0.093 A 
ATOM      3  C   UNL     1      -1.405  -1.001  -2.575  0.00  0.00    +0.151 A 
ATOM      4  C   UNL     1      -1.630  -2.171  -3.264  0.00  0.00    +0.078 A 
ATOM      5  C   UNL     1      -0.898  -2.488  -4.398  0.00  0.00    +0.127 A 
ATOM      6  C   UNL     1       0.076  -1.609  -4.842  0.00  0.00    +0.055 A 
ATOM      7  C   UNL     1       0.301  -0.439  -4.154  0.00  0.00    +0.044 A 
ATOM      8  S   UNL     1       1.414   0.928  -4.363  0.00  0.00    -0.052 S 
ATOM      9  C   UNL     1       0.913   1.874  -2.999  0.00  0.00    +0.167 A 
ATOM     10  N   UNL     1       1.379   3.055  -2.598  0.00  0.00    -0.155 NA
ATOM     11  F   UNL     1      -1.132  -3.641  -5.063  0.00  0.00    -0.205 F 
ATOM     12  F   UNL     1      -2.136  -0.723  -1.474  0.00  0.00    -0.203 F 
ENDROOT
BRANCH  10  13
ATOM     13  C   UNL     1       2.351   3.652  -3.280  0.00  0.00    +0.257 C 
ATOM     14  O   UNL     1       2.816   3.119  -4.269  0.00  0.00    -0.272 OA
BRANCH  13  15
ATOM     15  C   UNL     1       2.879   4.989  -2.826  0.00  0.00    +0.168 C 
ATOM     16  C   UNL     1       3.491   4.860  -1.415  0.00  0.00    +0.031 C 
ATOM     17  C   UNL     1       5.009   4.697  -1.712  0.00  0.00    +0.019 C 
ATOM     18  C   UNL     1       5.184   5.616  -2.947  0.00  0.00    +0.110 C 
ATOM     19  N   UNL     1       3.948   5.438  -3.729  0.00  0.00    -0.164 NA
BRANCH  19  20
ATOM     20  S   UNL     1       3.789   5.698  -5.357  0.00  0.00    +0.068 S 
ATOM     21  O   UNL     1       5.088   5.565  -5.918  0.00  0.00    -0.152 OA
ATOM     22  O   UNL     1       2.688   4.911  -5.789  0.00  0.00    -0.152 OA
BRANCH  20  23
ATOM     23  C   UNL     1       3.319   7.383  -5.572  0.00  0.00    +0.143 A 
ATOM     24  C   UNL     1       4.105   8.476  -5.724  0.00  0.00    +0.036 A 
ATOM     25  C   UNL     1       3.510   9.713  -5.882  0.00  0.00    +0.010 A 
ATOM     26  C   UNL     1       2.157   9.798  -5.869  0.00  0.00    +0.047 A 
ATOM     27  S   UNL     1       1.682   8.093  -5.636  0.00  0.00    -0.077 S 
ENDBRANCH  20  23
ENDBRANCH  19  20
ENDBRANCH  13  15
ENDBRANCH  10  13
BRANCH   1  28
ATOM     28  C   UNL     1      -0.753   1.593  -1.232  0.00  0.00    +0.152 C 
BRANCH  28  29
ATOM     29  C   UNL     1      -0.013   1.086   0.008  0.00  0.00    +0.181 C 
BRANCH  29  31
ATOM     30  C   UNL     1      -0.068   1.127   2.404  0.00  0.00    +0.194 C 
ATOM     31  O   UNL     1      -0.682   1.547   1.184  0.00  0.00    -0.381 OA
ENDBRANCH  29  31
ENDBRANCH  28  29
ENDBRANCH   1  28
TORSDOF 7
