REMARK  Name = ZINC05283045
REMARK  6 active torsions:
REMARK  status: ('A' for Active; 'I' for Inactive)
REMARK    1  A    between atoms: C_2  and  C_3
REMARK    2  A    between atoms: C_3  and  C_4
REMARK    3  A    between atoms: C_4  and  N_63
REMARK    4  A    between atoms: C_21  and  C_22
REMARK    5  A    between atoms: C_21  and  N_65
REMARK    6  A    between atoms: C_22  and  C_23
REMARK                            x       y       z     vdW  Elec       q    Type
REMARK                         _______ _______ _______ _____ _____    ______ ____
ROOT
ATOM      1  C   UNL     1      -5.387   1.006  -0.025  0.00  0.00    -0.050 C 
ATOM      2  C   UNL     1      -5.139   1.847   1.229  0.00  0.00    +0.141 C 
ATOM      3  O   UNL     1      -6.319   2.588   1.546  0.00  0.00    -0.379 OA
ATOM      4  C   UNL     1      -6.108   3.638   2.492  0.00  0.00    +0.187 C 
ATOM      5  C   UNL     1      -7.220   4.680   2.354  0.00  0.00    +0.187 C 
ATOM      6  O   UNL     1      -6.696   5.857   1.735  0.00  0.00    -0.379 OA
ATOM      7  C   UNL     1      -7.667   6.884   1.525  0.00  0.00    +0.141 C 
ATOM      8  C   UNL     1      -7.101   7.930   0.562  0.00  0.00    -0.050 C 
ATOM      9  C   UNL     1      -6.796   8.298  -1.812  0.00  0.00    -0.050 C 
ATOM     10  C   UNL     1      -6.921   7.483  -3.100  0.00  0.00    +0.141 C 
ATOM     11  O   UNL     1      -5.850   6.539  -3.173  0.00  0.00    -0.379 OA
ATOM     12  C   UNL     1      -6.012   5.554  -4.195  0.00  0.00    +0.187 C 
ATOM     13  C   UNL     1      -4.847   4.563  -4.138  0.00  0.00    +0.187 C 
ATOM     14  O   UNL     1      -5.335   3.276  -3.756  0.00  0.00    -0.379 OA
ATOM     15  C   UNL     1      -4.326   2.397  -3.255  0.00  0.00    +0.141 C 
ATOM     16  C   UNL     1      -4.976   1.314  -2.391  0.00  0.00    -0.050 C 
ATOM     17  N   UNL     1      -4.376   1.368  -1.041  0.00  0.00    +0.383 N 
ATOM     18  H   UNL     1      -4.049   2.324  -0.860  0.00  0.00    -0.082 HD
ATOM     19  N   UNL     1      -7.665   7.688  -0.783  0.00  0.00    +0.383 N 
ATOM     20  H   UNL     1      -7.715   6.675  -0.946  0.00  0.00    -0.082 HD
ENDROOT
BRANCH  17  21
ATOM     21  C   UNL     1      -3.226   0.443  -0.962  0.00  0.00    -0.075 C 
BRANCH  21  22
ATOM     22  C   UNL     1      -2.492   0.681   0.360  0.00  0.00    +0.008 C 
BRANCH  22  24
ATOM     23  C   UNL     1      -0.106   0.253   0.651  0.00  0.00    +0.004 C 
ATOM     24  C   UNL     1      -1.302  -0.240   0.446  0.00  0.00    -0.036 C 
ENDBRANCH  22  24
ENDBRANCH  21  22
ENDBRANCH  17  21
BRANCH  19  25
ATOM     25  C   UNL     1      -9.026   8.256  -0.870  0.00  0.00    -0.075 C 
BRANCH  25  26
ATOM     26  C   UNL     1      -9.752   7.610  -2.052  0.00  0.00    +0.008 C 
BRANCH  26  27
ATOM     27  C   UNL     1     -11.193   8.053  -2.060  0.00  0.00    -0.036 C 
ATOM     28  C   UNL     1     -11.700   8.612  -3.131  0.00  0.00    +0.004 C 
ENDBRANCH  26  27
ENDBRANCH  25  26
ENDBRANCH  19  25
TORSDOF 6
