REMARK  Name = ZINC65119805
REMARK  6 active torsions:
REMARK  status: ('A' for Active; 'I' for Inactive)
REMARK    1  A    between atoms: C_1  and  C_2
REMARK    2  A    between atoms: C_3  and  C_26
REMARK    3  A    between atoms: C_9  and  C_12
REMARK    4  A    between atoms: C_12  and  N_13
REMARK    5  A    between atoms: C_14  and  C_16
REMARK    6  A    between atoms: C_21  and  N_22
REMARK                            x       y       z     vdW  Elec       q    Type
REMARK                         _______ _______ _______ _____ _____    ______ ____
ROOT
ATOM      1  N   UNL     1      -0.998  -0.771   5.867  0.00  0.00    -0.307 N 
ATOM      2  C   UNL     1      -1.432  -0.952   7.130  0.00  0.00    +0.247 C 
ATOM      3  O   UNL     1      -0.631  -1.053   8.039  0.00  0.00    -0.270 OA
ATOM      4  H   UNL     1      -1.637  -0.690   5.141  0.00  0.00    +0.149 HD
ENDROOT
BRANCH   2   5
ATOM      5  C   UNL     1      -2.881  -1.027   7.410  0.00  0.00    +0.067 A 
ATOM      6  C   UNL     1      -3.729   0.002   6.996  0.00  0.00    +0.017 A 
ATOM      7  C   UNL     1      -5.080  -0.074   7.260  0.00  0.00    +0.021 A 
ATOM      8  C   UNL     1      -5.597  -1.169   7.934  0.00  0.00    +0.043 A 
ATOM      9  C   UNL     1      -4.760  -2.192   8.347  0.00  0.00    +0.053 A 
ATOM     10  C   UNL     1      -3.408  -2.131   8.083  0.00  0.00    +0.140 A 
ATOM     11 CL   UNL     1      -7.299  -1.257   8.263  0.00  0.00    -0.083 Cl
BRANCH  10  12
ATOM     12  N   UNL     1      -2.516  -3.229   8.519  0.00  0.00    +0.057 N 
ATOM     13  O   UNL     1      -2.950  -4.122   9.208  0.00  0.00    -0.126 OA
ATOM     14  O   UNL     1      -1.354  -3.232   8.186  0.00  0.00    -0.126 OA
ENDBRANCH  10  12
ENDBRANCH   2   5
BRANCH   1  15
ATOM     15  C   UNL     1       0.439  -0.696   5.589  0.00  0.00    +0.139 C 
BRANCH  15  24
ATOM     16  C   UNL     1       0.966   3.587   1.822  0.00  0.00    +0.046 C 
ATOM     17  C   UNL     1       1.040   2.148   1.380  0.00  0.00    -0.022 A 
ATOM     18  C   UNL     1       1.234   1.706   0.127  0.00  0.00    +0.017 A 
ATOM     19  N   UNL     1       1.243   0.338   0.111  0.00  0.00    -0.358 N 
ATOM     20  H   UNL     1       1.366  -0.209  -0.680  0.00  0.00    +0.166 HD
ATOM     21  C   UNL     1       1.051  -0.146   1.385  0.00  0.00    +0.047 A 
ATOM     22  C   UNL     1       0.922   0.966   2.237  0.00  0.00    +0.003 A 
ATOM     23  C   UNL     1       0.722   0.776   3.606  0.00  0.00    +0.015 A 
ATOM     24  C   UNL     1       0.655  -0.491   4.112  0.00  0.00    -0.030 A 
ATOM     25  C   UNL     1       0.785  -1.592   3.277  0.00  0.00    +0.007 A 
ATOM     26  C   UNL     1       0.975  -1.427   1.922  0.00  0.00    +0.026 A 
ATOM     27  C   UNL     1       1.413   2.587  -1.083  0.00  0.00    +0.063 C 
ENDBRANCH  15  24
ENDBRANCH   1  15
TORSDOF 4
