REMARK  Name = ZINC08862105
REMARK  7 active torsions:
REMARK  status: ('A' for Active; 'I' for Inactive)
REMARK    1  A    between atoms: C_1  and  O_2
REMARK    2  A    between atoms: O_2  and  C_3
REMARK    3  A    between atoms: C_8  and  O_9
REMARK    4  A    between atoms: O_9  and  C_10
REMARK    5  A    between atoms: C_11  and  C_29
REMARK    6  A    between atoms: C_15  and  N_16
REMARK    7  A    between atoms: C_15  and  N_67
REMARK                            x       y       z     vdW  Elec       q    Type
REMARK                         _______ _______ _______ _____ _____    ______ ____
ROOT
ATOM      1  C   UNL     1      -0.787   2.893   1.346  0.00  0.00    +0.162 A 
ATOM      2  C   UNL     1      -0.256   3.751   0.400  0.00  0.00    +0.053 A 
ATOM      3  C   UNL     1      -0.365   5.125   0.559  0.00  0.00    -0.044 A 
ATOM      4  C   UNL     1      -1.001   5.641   1.668  0.00  0.00    -0.050 A 
ATOM      5  C   UNL     1      -1.530   4.784   2.623  0.00  0.00    +0.052 A 
ATOM      6  C   UNL     1      -1.426   3.413   2.468  0.00  0.00    +0.162 A 
ATOM      7  C   UNL     1      -1.150   7.125   1.879  0.00  0.00    -0.004 C 
ATOM      8  C   UNL     1      -0.340   7.431  -0.370  0.00  0.00    -0.071 C 
ATOM      9  C   UNL     1       0.230   6.018  -0.499  0.00  0.00    +0.017 C 
ATOM     10  N   UNL     1      -0.187   7.853   1.037  0.00  0.00    +0.398 N 
ATOM     11  H   UNL     1       0.766   7.634   1.350  0.00  0.00    -0.078 HD
ENDROOT
BRANCH   7  12
ATOM     12  C   UNL     1      -0.877   7.452   3.325  0.00  0.00    -0.057 A 
ATOM     13  C   UNL     1       0.426   7.545   3.778  0.00  0.00    +0.002 A 
ATOM     14  C   UNL     1       0.677   7.848   5.103  0.00  0.00    +0.000 A 
ATOM     15  C   UNL     1      -0.375   8.051   5.977  0.00  0.00    +0.000 A 
ATOM     16  C   UNL     1      -1.678   7.953   5.525  0.00  0.00    +0.000 A 
ATOM     17  C   UNL     1      -1.929   7.653   4.199  0.00  0.00    +0.002 A 
ENDBRANCH   7  12
BRANCH   1  19
ATOM     18  C   UNL     1      -0.013   1.086   0.008  0.00  0.00    +0.277 C 
ATOM     19  O   UNL     1      -0.682   1.547   1.184  0.00  0.00    -0.491 OA
ENDBRANCH   1  19
BRANCH   6  20
ATOM     20  O   UNL     1      -1.947   2.579   3.406  0.00  0.00    -0.491 OA
ATOM     21  C   UNL     1      -2.588   3.185   4.530  0.00  0.00    +0.277 C 
ENDBRANCH   6  20
BRANCH  10  22
ATOM     22  C   UNL     1      -0.409   9.312   1.156  0.00  0.00    +0.044 C 
BRANCH  22  23
ATOM     23  N   UNL     1       0.829  10.009   0.798  0.00  0.00    -0.241 N 
ATOM     24  C   UNL     1       1.134  10.415  -0.449  0.00  0.00    +0.245 C 
ATOM     25  O   UNL     1       0.462  10.275  -1.448  0.00  0.00    -0.273 OA
ATOM     26  C   UNL     1       2.494  11.084  -0.345  0.00  0.00    +0.112 C 
ATOM     27  C   UNL     1       2.306  12.587  -0.657  0.00  0.00    +0.035 C 
ATOM     28  C   UNL     1       3.431  13.358  -0.025  0.00  0.00    +0.003 C 
ATOM     29  C   UNL     1       4.605  13.598  -0.994  0.00  0.00    +0.000 C 
ATOM     30  C   UNL     1       4.938  12.360  -1.847  0.00  0.00    +0.000 C 
ATOM     31  C   UNL     1       4.889  11.085  -1.048  0.00  0.00    +0.003 C 
ATOM     32  C   UNL     1       3.490  10.463  -1.210  0.00  0.00    +0.035 C 
ATOM     33  N   UNL     1       2.825  10.958   1.088  0.00  0.00    -0.285 N 
ATOM     34  C   UNL     1       1.792  10.326   1.671  0.00  0.00    +0.308 C 
ATOM     35  O   UNL     1       1.739  10.068   2.857  0.00  0.00    -0.252 OA
ATOM     36  H   UNL     1       3.631  11.274   1.526  0.00  0.00    +0.151 HD
ENDBRANCH  22  23
ENDBRANCH  10  22
TORSDOF 5
