REMARK  Name = ZINC39467544
REMARK  8 active torsions:
REMARK  status: ('A' for Active; 'I' for Inactive)
REMARK    1  A    between atoms: C_1  and  C_2
REMARK    2  A    between atoms: C_2  and  O_3
REMARK    3  A    between atoms: O_3  and  C_4
REMARK    4  A    between atoms: P_13  and  C_32
REMARK    5  A    between atoms: C_21  and  S_22
REMARK    6  A    between atoms: S_22  and  O_25
REMARK    7  A    between atoms: O_25  and  C_26
REMARK    8  A    between atoms: C_37  and  O_38
REMARK                            x       y       z     vdW  Elec       q    Type
REMARK                         _______ _______ _______ _____ _____    ______ ____
ROOT
ATOM      1  C   UNL     1       0.539  -2.132  -1.741  0.00  0.00    +0.145 C 
ATOM      2  C   UNL     1      -0.073  -3.092  -1.043  0.00  0.00    +0.024 C 
ATOM      3  C   UNL     1       0.019  -4.523  -1.499  0.00  0.00    +0.019 C 
ATOM      4  C   UNL     1      -1.174  -5.319  -0.990  0.00  0.00    -0.002 C 
ATOM      5  C   UNL     1      -1.479  -6.509  -1.911  0.00  0.00    -0.020 C 
ATOM      6  C   UNL     1      -2.134  -7.570  -1.015  0.00  0.00    +0.157 C 
ATOM      7  O   UNL     1      -2.491  -8.727  -1.788  0.00  0.00    -0.316 OA
ATOM      8  P   UNL     1      -1.335  -9.377  -2.732  0.00  0.00    +0.291 P 
ATOM      9  O   UNL     1      -1.945 -10.194  -3.805  0.00  0.00    -0.269 OA
ATOM     10  N   UNL     1      -0.540  -8.085  -3.376  0.00  0.00    -0.288 NA
ATOM     11  N   UNL     1      -0.270  -7.011  -2.552  0.00  0.00    +0.398 N 
ATOM     12  C   UNL     1       0.332  -6.021  -3.459  0.00  0.00    -0.046 C 
ATOM     13  C   UNL     1       0.025  -4.579  -3.026  0.00  0.00    +0.006 C 
ATOM     14  C   UNL     1       1.070  -3.640  -3.566  0.00  0.00    +0.009 C 
ATOM     15  C   UNL     1       1.304  -2.487  -2.952  0.00  0.00    +0.165 C 
ATOM     16  H   UNL     1      -0.266  -8.087  -4.306  0.00  0.00    +0.111 HD
ATOM     17  H   UNL     1       0.401  -7.275  -1.846  0.00  0.00    -0.055 HD
ENDROOT
BRANCH   8  18
ATOM     18  C   UNL     1      -0.203 -10.388  -1.738  0.00  0.00    +0.091 A 
ATOM     19  C   UNL     1       0.917  -9.814  -1.167  0.00  0.00    +0.018 A 
ATOM     20  C   UNL     1       1.780 -10.584  -0.410  0.00  0.00    +0.001 A 
ATOM     21  C   UNL     1       1.525 -11.930  -0.221  0.00  0.00    +0.004 A 
ATOM     22  C   UNL     1       0.407 -12.508  -0.788  0.00  0.00    +0.046 A 
ATOM     23  C   UNL     1      -0.464 -11.737  -1.545  0.00  0.00    +0.131 A 
BRANCH  23  24
ATOM     24  O   UNL     1      -1.568 -12.302  -2.099  0.00  0.00    -0.506 OA
ATOM     25  H   UNL     1      -1.423 -12.660  -2.986  0.00  0.00    +0.292 HD
ENDBRANCH  23  24
ENDBRANCH   8  18
BRANCH  15  26
ATOM     26  S   UNL     1       2.530  -1.387  -3.579  0.00  0.00    +0.154 S 
ATOM     27  O   UNL     1       3.034  -1.978  -4.769  0.00  0.00    -0.131 OA
ATOM     28  O   UNL     1       1.958  -0.087  -3.558  0.00  0.00    -0.131 OA
BRANCH  26  29
ATOM     29  O   UNL     1       3.677  -1.375  -2.579  0.00  0.00    -0.342 OA
BRANCH  29  30
ATOM     30  C   UNL     1       4.445  -2.495  -2.605  0.00  0.00    +0.157 A 
ATOM     31  C   UNL     1       4.128  -3.575  -1.794  0.00  0.00    +0.048 A 
ATOM     32  C   UNL     1       4.910  -4.713  -1.822  0.00  0.00    +0.004 A 
ATOM     33  C   UNL     1       6.009  -4.777  -2.659  0.00  0.00    +0.000 A 
ATOM     34  C   UNL     1       6.328  -3.702  -3.468  0.00  0.00    +0.004 A 
ATOM     35  C   UNL     1       5.545  -2.564  -3.448  0.00  0.00    +0.048 A 
ENDBRANCH  29  30
ENDBRANCH  26  29
ENDBRANCH  15  26
BRANCH   1  36
ATOM     36  O   UNL     1       0.453  -0.836  -1.343  0.00  0.00    -0.491 OA
BRANCH  36  38
ATOM     37  C   UNL     1      -0.188   0.921   0.189  0.00  0.00    +0.048 C 
ATOM     38  C   UNL     1      -0.210  -0.581  -0.102  0.00  0.00    +0.226 C 
ENDBRANCH  36  38
ENDBRANCH   1  36
TORSDOF 7
