REMARK  Name = ZINC39769366
REMARK  11 active torsions:
REMARK  status: ('A' for Active; 'I' for Inactive)
REMARK    1  A    between atoms: C_1  and  C_2
REMARK    2  A    between atoms: C_2  and  N_3
REMARK    3  A    between atoms: C_4  and  N_30
REMARK    4  A    between atoms: C_5  and  C_13
REMARK    5  A    between atoms: C_6  and  C_12
REMARK    6  A    between atoms: C_7  and  C_10
REMARK    7  A    between atoms: N_17  and  C_21
REMARK    8  A    between atoms: C_21  and  C_23
REMARK    9  A    between atoms: C_21  and  C_24
REMARK   10  A    between atoms: C_32  and  C_39
REMARK   11  A    between atoms: C_35  and  C_38
REMARK                            x       y       z     vdW  Elec       q    Type
REMARK                         _______ _______ _______ _____ _____    ______ ____
ROOT
ATOM      1  N   UNL     1       0.734  -1.232   1.828  0.00  0.00    -0.295 N 
ATOM      2  C   UNL     1       2.067  -1.216   1.569  0.00  0.00    +0.112 A 
ATOM      3  C   UNL     1       2.967  -1.873   2.424  0.00  0.00    +0.019 A 
ATOM      4  C   UNL     1       2.479  -2.548   3.555  0.00  0.00    -0.017 A 
ATOM      5  C   UNL     1       1.108  -2.549   3.799  0.00  0.00    +0.120 A 
ATOM      6  C   UNL     1       0.242  -1.867   2.907  0.00  0.00    +0.270 A 
ATOM      7  O   UNL     1      -0.958  -1.860   3.117  0.00  0.00    -0.266 OA
ATOM      8  C   UNL     1       3.423  -3.261   4.489  0.00  0.00    +0.046 C 
ENDROOT
BRANCH   3   9
ATOM      9  C   UNL     1       4.403  -1.853   2.139  0.00  0.00    +0.032 C 
ATOM     10  C   UNL     1       5.256  -1.213   2.984  0.00  0.00    +0.077 C 
ATOM     11  C   UNL     1       4.968  -0.402   4.124  0.00  0.00    +0.259 C 
ATOM     12  O   UNL     1       3.819  -0.192   4.470  0.00  0.00    -0.269 OA
ATOM     13  N   UNL     1       5.985   0.115   4.791  0.00  0.00    -0.248 N 
ATOM     14  C   UNL     1       7.259  -0.118   4.407  0.00  0.00    +0.121 C 
ATOM     15  S   UNL     1       8.713   0.444   5.115  0.00  0.00    -0.027 S 
ATOM     16  S   UNL     1       7.043  -1.166   2.976  0.00  0.00    -0.061 S 
BRANCH  13  17
ATOM     17  C   UNL     1       5.727   0.952   5.965  0.00  0.00    +0.110 C 
ATOM     18  C   UNL     1       4.227   1.238   6.068  0.00  0.00    +0.033 C 
BRANCH  17  19
ATOM     19  C   UNL     1       6.187   0.233   7.207  0.00  0.00    -0.027 A 
ATOM     20  C   UNL     1       6.034  -1.137   7.308  0.00  0.00    +0.005 A 
ATOM     21  C   UNL     1       6.457  -1.797   8.447  0.00  0.00    +0.000 A 
ATOM     22  C   UNL     1       7.032  -1.087   9.484  0.00  0.00    +0.000 A 
ATOM     23  C   UNL     1       7.186   0.283   9.382  0.00  0.00    +0.000 A 
ATOM     24  C   UNL     1       6.768   0.942   8.241  0.00  0.00    +0.005 A 
ENDBRANCH  17  19
ENDBRANCH  13  17
ENDBRANCH   3   9
BRANCH   2  25
ATOM     25  N   UNL     1       2.535  -0.558   0.469  0.00  0.00    -0.315 N 
ATOM     26  C   UNL     1       3.006   0.829   0.571  0.00  0.00    +0.109 C 
ATOM     27  C   UNL     1       4.423   0.912  -0.006  0.00  0.00    +0.004 C 
ATOM     28  C   UNL     1       4.422   0.352  -1.431  0.00  0.00    +0.009 C 
ATOM     29  C   UNL     1       3.998  -1.118  -1.402  0.00  0.00    +0.004 C 
ATOM     30  C   UNL     1       2.582  -1.226  -0.839  0.00  0.00    +0.109 C 
ATOM     31  C   UNL     1       4.030  -1.687  -2.822  0.00  0.00    +0.009 C 
ATOM     32  C   UNL     1       4.879   2.373  -0.032  0.00  0.00    +0.009 C 
ENDBRANCH   2  25
BRANCH   1  34
ATOM     33  C   UNL     1      -0.461   0.869   1.450  0.00  0.00    +0.027 C 
ATOM     34  C   UNL     1      -0.184  -0.540   0.919  0.00  0.00    +0.123 C 
ENDBRANCH   1  34
BRANCH   5  35
ATOM     35  C   UNL     1       0.579  -3.229   4.942  0.00  0.00    +0.105 C 
ATOM     36  N   UNL     1       0.158  -3.768   5.849  0.00  0.00    -0.191 NA
ENDBRANCH   5  35
TORSDOF 6
