REMARK  Name = ZINC63761352
REMARK  12 active torsions:
REMARK  status: ('A' for Active; 'I' for Inactive)
REMARK    1  A    between atoms: C_1  and  C_2
REMARK    2  A    between atoms: C_2  and  C_3
REMARK    3  A    between atoms: C_2  and  C_4
REMARK    4  A    between atoms: C_4  and  C_6
REMARK    5  A    between atoms: C_4  and  N_10
REMARK    6  A    between atoms: C_6  and  O_8
REMARK    7  A    between atoms: O_8  and  C_9
REMARK    8  A    between atoms: C_11  and  C_13
REMARK    9  A    between atoms: C_13  and  C_15
REMARK   10  A    between atoms: C_13  and  N_25
REMARK   11  A    between atoms: C_15  and  C_16
REMARK   12  A    between atoms: C_26  and  C_28
REMARK                            x       y       z     vdW  Elec       q    Type
REMARK                         _______ _______ _______ _____ _____    ______ ____
ROOT
ATOM      1  C   UNL     1      -2.661  -0.514  -3.613  0.00  0.00    +0.163 C 
ENDROOT
BRANCH   1   3
ATOM      2  N   UNL     1      -2.105  -0.148  -1.230  0.00  0.00    -0.301 N 
ATOM      3  C   UNL     1      -1.970  -0.910  -2.334  0.00  0.00    +0.234 C 
ATOM      4  O   UNL     1      -1.291  -1.915  -2.297  0.00  0.00    -0.274 OA
ATOM      5  H   UNL     1      -2.648   0.655  -1.260  0.00  0.00    +0.150 HD
BRANCH   2   6
ATOM      6  C   UNL     1      -1.433  -0.534   0.013  0.00  0.00    +0.184 C 
BRANCH   6   8
ATOM      7  C   UNL     1      -0.019   1.526   0.010  0.00  0.00    +0.009 C 
ATOM      8  C   UNL     1       0.002  -0.004   0.002  0.00  0.00    +0.014 C 
ATOM      9  C   UNL     1       0.742  -0.511   1.242  0.00  0.00    +0.009 C 
ENDBRANCH   6   8
BRANCH   6  10
ATOM     10  C   UNL     1      -2.175   0.051   1.187  0.00  0.00    +0.328 C 
ATOM     11  O   UNL     1      -3.164   0.721   1.004  0.00  0.00    -0.249 OA
BRANCH  10  12
ATOM     12  O   UNL     1      -1.738  -0.173   2.436  0.00  0.00    -0.467 OA
ATOM     13  C   UNL     1      -2.490   0.412   3.501  0.00  0.00    +0.280 C 
ENDBRANCH  10  12
ENDBRANCH   6  10
ENDBRANCH   2   6
ENDBRANCH   1   3
BRANCH   1  14
ATOM     14  N   UNL     1      -2.359  -1.497  -4.656  0.00  0.00    -0.303 N 
ATOM     15  C   UNL     1      -1.230  -1.383  -5.383  0.00  0.00    +0.220 C 
ATOM     16  O   UNL     1      -0.464  -0.466  -5.173  0.00  0.00    -0.275 OA
ATOM     17  H   UNL     1      -2.972  -2.230  -4.824  0.00  0.00    +0.149 HD
BRANCH  15  18
ATOM     18  C   UNL     1      -0.919  -2.394  -6.456  0.00  0.00    +0.048 C 
ATOM     19  C   UNL     1      -2.034  -2.386  -7.503  0.00  0.00    +0.019 C 
ATOM     20  C   UNL     1      -1.719  -3.412  -8.593  0.00  0.00    -0.009 C 
ATOM     21  C   UNL     1      -0.390  -3.054  -9.261  0.00  0.00    +0.007 C 
ATOM     22  C   UNL     1       0.726  -3.063  -8.214  0.00  0.00    -0.009 C 
ATOM     23  C   UNL     1       0.410  -2.036  -7.125  0.00  0.00    +0.019 C 
ATOM     24  C   UNL     1       0.828  -4.455  -7.589  0.00  0.00    +0.007 C 
ATOM     25  C   UNL     1      -0.501  -4.813  -6.920  0.00  0.00    -0.009 C 
ATOM     26  C   UNL     1      -1.617  -4.805  -7.967  0.00  0.00    +0.007 C 
ATOM     27  C   UNL     1      -0.817  -3.786  -5.831  0.00  0.00    +0.019 C 
ENDBRANCH  15  18
ENDBRANCH   1  14
BRANCH   1  28
ATOM     28  C   UNL     1      -4.173  -0.464  -3.381  0.00  0.00    +0.065 C 
BRANCH  28  29
ATOM     29  C   UNL     1      -4.855   0.050  -4.623  0.00  0.00    -0.039 C 
ATOM     30  C   UNL     1      -5.400  -0.689  -5.616  0.00  0.00    -0.001 A 
ATOM     31  C   UNL     1      -5.517  -2.136  -5.830  0.00  0.00    +0.010 A 
ATOM     32  C   UNL     1      -6.131  -2.587  -6.948  0.00  0.00    +0.001 A 
ATOM     33  C   UNL     1      -6.656  -1.708  -7.905  0.00  0.00    +0.002 A 
ATOM     34  C   UNL     1      -6.587  -0.366  -7.779  0.00  0.00    +0.026 A 
ATOM     35  C   UNL     1      -5.964   0.218  -6.642  0.00  0.00    +0.043 A 
ATOM     36  N   UNL     1      -5.774   1.468  -6.296  0.00  0.00    -0.380 N 
ATOM     37  C   UNL     1      -5.073   1.496  -5.008  0.00  0.00    +0.144 C 
ATOM     38  H   UNL     1      -6.054   2.245  -6.806  0.00  0.00    +0.160 HD
ENDBRANCH  28  29
ENDBRANCH   1  28
TORSDOF 9
