REMARK  Name = ZINC13565138
REMARK  11 active torsions:
REMARK  status: ('A' for Active; 'I' for Inactive)
REMARK    1  A    between atoms: C_1  and  C_2
REMARK    2  A    between atoms: C_2  and  C_3
REMARK    3  A    between atoms: C_2  and  N_4
REMARK    4  A    between atoms: C_5  and  C_11
REMARK    5  A    between atoms: C_8  and  S_9
REMARK    6  A    between atoms: S_9  and  C_10
REMARK    7  A    between atoms: C_17  and  C_18
REMARK    8  A    between atoms: C_17  and  N_57
REMARK    9  A    between atoms: N_20  and  C_21
REMARK   10  A    between atoms: C_26  and  O_27
REMARK   11  A    between atoms: O_27  and  C_28
REMARK                            x       y       z     vdW  Elec       q    Type
REMARK                         _______ _______ _______ _____ _____    ______ ____
ROOT
ATOM      1  C   UNL     1      -1.413   5.081   0.110  0.00  0.00    +0.040 C 
ATOM      2  C   UNL     1      -1.134   5.896  -1.156  0.00  0.00    +0.007 C 
ATOM      3  C   UNL     1      -2.019   7.145  -1.156  0.00  0.00    -0.018 C 
ATOM      4  C   UNL     1      -1.747   7.958   0.111  0.00  0.00    -0.078 C 
ATOM      5  C   UNL     1      -1.158   5.954   1.340  0.00  0.00    -0.067 C 
ATOM      6  N   UNL     1      -2.059   7.125   1.292  0.00  0.00    +0.386 N 
ATOM      7  H   UNL     1      -3.029   6.797   1.221  0.00  0.00    -0.081 HD
ENDROOT
BRANCH   1   9
ATOM      8  N   UNL     1      -0.891   2.569   0.168  0.00  0.00    -0.303 N 
ATOM      9  C   UNL     1      -0.503   3.880   0.146  0.00  0.00    +0.136 A 
ATOM     10  N   UNL     1       0.800   3.900   0.158  0.00  0.00    -0.133 NA
ATOM     11  N   UNL     1       1.259   2.700   0.191  0.00  0.00    -0.122 NA
ATOM     12  C   UNL     1       0.264   1.842   0.202  0.00  0.00    +0.192 A 
BRANCH   8  14
ATOM     13  C   UNL     1      -2.466   1.168  -1.073  0.00  0.00    +0.030 C 
ATOM     14  C   UNL     1      -2.262   2.052   0.160  0.00  0.00    +0.085 C 
ATOM     15  C   UNL     1      -2.503   1.227   1.425  0.00  0.00    +0.030 C 
ENDBRANCH   8  14
BRANCH  12  16
ATOM     16  S   UNL     1       0.396   0.086   0.245  0.00  0.00    -0.089 S 
ATOM     17  C   UNL     1       2.197  -0.094   0.267  0.00  0.00    +0.093 C 
ENDBRANCH  12  16
ENDBRANCH   1   9
BRANCH   6  18
ATOM     18  C   UNL     1      -1.913   7.925   2.526  0.00  0.00    +0.019 C 
BRANCH  18  19
ATOM     19  C   UNL     1      -2.460   7.132   3.685  0.00  0.00    +0.201 C 
ATOM     20  O   UNL     1      -3.000   6.064   3.489  0.00  0.00    -0.278 OA
ATOM     21  N   UNL     1      -2.349   7.610   4.941  0.00  0.00    -0.284 N 
ATOM     22  H   UNL     1      -1.988   8.498   5.092  0.00  0.00    +0.155 HD
BRANCH  21  23
ATOM     23  C   UNL     1      -2.753   6.824   6.028  0.00  0.00    +0.077 A 
ATOM     24  C   UNL     1      -3.747   5.869   5.864  0.00  0.00    +0.047 A 
ATOM     25  C   UNL     1      -4.141   5.091   6.937  0.00  0.00    +0.043 A 
ATOM     26  C   UNL     1      -3.554   5.270   8.178  0.00  0.00    +0.024 A 
ATOM     27  C   UNL     1      -2.567   6.224   8.349  0.00  0.00    +0.049 A 
ATOM     28  C   UNL     1      -2.164   7.003   7.277  0.00  0.00    +0.141 A 
ATOM     29 CL   UNL     1      -5.379   3.892   6.730  0.00  0.00    -0.083 Cl
BRANCH  28  30
ATOM     30  O   UNL     1      -1.194   7.942   7.444  0.00  0.00    -0.493 OA
ATOM     31  C   UNL     1      -0.634   8.070   8.753  0.00  0.00    +0.277 C 
ENDBRANCH  28  30
ENDBRANCH  21  23
ENDBRANCH  18  19
ENDBRANCH   6  18
TORSDOF 7
