REMARK  Name = ZINC59879056
REMARK  7 active torsions:
REMARK  status: ('A' for Active; 'I' for Inactive)
REMARK    1  A    between atoms: C_1  and  C_2
REMARK    2  A    between atoms: C_5  and  C_7
REMARK    3  A    between atoms: C_7  and  C_9
REMARK    4  A    between atoms: C_7  and  S_10
REMARK    5  A    between atoms: S_10  and  C_11
REMARK    6  A    between atoms: N_16  and  N_17
REMARK    7  A    between atoms: C_18  and  C_19
REMARK                            x       y       z     vdW  Elec       q    Type
REMARK                         _______ _______ _______ _____ _____    ______ ____
ROOT
ATOM      1  C   UNL     1      -1.104  -5.846   1.927  0.00  0.00    +0.211 A 
ATOM      2  N   UNL     1      -1.829  -6.966   1.840  0.00  0.00    -0.186 NA
ATOM      3  C   UNL     1      -1.559  -7.749   2.863  0.00  0.00    +0.232 A 
ATOM      4  N   UNL     1      -0.640  -7.128   3.632  0.00  0.00    -0.245 N 
ATOM      5  N   UNL     1      -0.358  -5.904   3.005  0.00  0.00    -0.144 NA
ATOM      6  N   UNL     1      -2.118  -8.990   3.107  0.00  0.00    -0.205 N 
ATOM      7  H   UNL     1      -1.854  -9.495   3.892  0.00  0.00    +0.177 HD
ATOM      8  H   UNL     1      -0.248  -7.462   4.454  0.00  0.00    +0.192 HD
ENDROOT
BRANCH   6   9
ATOM      9  N   UNL     1      -3.066  -9.518   2.221  0.00  0.00    -0.187 NA
ATOM     10  C   UNL     1      -3.591 -10.683   2.450  0.00  0.00    +0.141 C 
BRANCH  10  11
ATOM     11  C   UNL     1      -4.588 -11.238   1.517  0.00  0.00    +0.030 A 
ATOM     12  C   UNL     1      -5.160 -12.489   1.763  0.00  0.00    +0.012 A 
ATOM     13  C   UNL     1      -6.092 -13.002   0.886  0.00  0.00    +0.001 A 
ATOM     14  C   UNL     1      -6.464 -12.282  -0.236  0.00  0.00    +0.003 A 
ATOM     15  C   UNL     1      -5.903 -11.043  -0.488  0.00  0.00    +0.039 A 
ATOM     16  C   UNL     1      -4.971 -10.513   0.384  0.00  0.00    +0.132 A 
ATOM     17  F   UNL     1      -4.428  -9.300   0.140  0.00  0.00    -0.205 F 
ENDBRANCH  10  11
ENDBRANCH   6   9
BRANCH   1  18
ATOM     18  S   UNL     1      -1.140  -4.511   0.777  0.00  0.00    -0.072 S 
BRANCH  18  19
ATOM     19  C   UNL     1       0.055  -3.322   1.448  0.00  0.00    +0.139 C 
ATOM     20  C   UNL     1       1.457  -3.934   1.412  0.00  0.00    +0.029 C 
BRANCH  19  25
ATOM     21  C   UNL     1      -0.018   1.503   0.010  0.00  0.00    +0.111 C 
ATOM     22  C   UNL     1       0.002  -0.004   0.002  0.00  0.00    +0.214 A 
ATOM     23  N   UNL     1       0.008  -0.769  -1.052  0.00  0.00    -0.113 NA
ATOM     24  N   UNL     1       0.027  -2.002  -0.685  0.00  0.00    -0.111 NA
ATOM     25  C   UNL     1       0.034  -2.066   0.616  0.00  0.00    +0.230 A 
ATOM     26  O   UNL     1       0.023  -0.805   1.081  0.00  0.00    -0.424 OA
ENDBRANCH  19  25
ENDBRANCH  18  19
ENDBRANCH   1  18
TORSDOF 5
