REMARK  Name = ZINC58918729
REMARK  9 active torsions:
REMARK  status: ('A' for Active; 'I' for Inactive)
REMARK    1  A    between atoms: C_1  and  C_2
REMARK    2  A    between atoms: C_2  and  C_3
REMARK    3  A    between atoms: C_2  and  C_4
REMARK    4  A    between atoms: C_4  and  C_5
REMARK    5  A    between atoms: C_4  and  C_6
REMARK    6  A    between atoms: C_4  and  N_8
REMARK    7  A    between atoms: C_9  and  C_11
REMARK    8  A    between atoms: C_11  and  N_12
REMARK    9  A    between atoms: C_16  and  C_19
REMARK                            x       y       z     vdW  Elec       q    Type
REMARK                         _______ _______ _______ _____ _____    ______ ____
ROOT
ATOM      1  N   UNL     1      -3.936  -4.691  -0.251  0.00  0.00    +0.386 N 
ATOM      2  C   UNL     1      -4.548  -4.415   1.054  0.00  0.00    -0.078 C 
ATOM      3  C   UNL     1      -6.009  -4.870   1.043  0.00  0.00    -0.018 C 
ATOM      4  C   UNL     1      -6.067  -6.373   0.758  0.00  0.00    +0.007 C 
ATOM      5  C   UNL     1      -5.361  -6.659  -0.570  0.00  0.00    +0.040 C 
ATOM      6  C   UNL     1      -3.924  -6.138  -0.499  0.00  0.00    -0.067 C 
ATOM      7  H   UNL     1      -4.468  -4.231  -0.974  0.00  0.00    -0.081 HD
ENDROOT
BRANCH   5   8
ATOM      8  C   UNL     1      -5.346  -8.144  -0.823  0.00  0.00    +0.135 A 
ATOM      9  N   UNL     1      -4.804  -9.056  -0.060  0.00  0.00    -0.134 NA
ATOM     10  N   UNL     1      -4.988 -10.221  -0.578  0.00  0.00    -0.134 NA
ATOM     11  C   UNL     1      -5.658 -10.103  -1.689  0.00  0.00    +0.133 A 
ATOM     12  N   UNL     1      -5.897  -8.784  -1.879  0.00  0.00    -0.315 N 
ATOM     13  C   UNL     1      -6.598  -8.180  -3.012  0.00  0.00    +0.125 C 
ATOM     14  C   UNL     1      -7.606  -9.183  -3.579  0.00  0.00    +0.022 C 
ATOM     15  C   UNL     1      -6.933 -10.041  -4.649  0.00  0.00    +0.002 C 
ATOM     16  C   UNL     1      -5.777 -10.835  -4.049  0.00  0.00    +0.008 C 
ATOM     17  C   UNL     1      -6.105 -11.212  -2.606  0.00  0.00    +0.076 C 
ENDBRANCH   5   8
BRANCH   1  18
ATOM     18  C   UNL     1      -2.558  -4.183  -0.262  0.00  0.00    +0.019 C 
BRANCH  18  20
ATOM     19  N   UNL     1      -1.416  -1.993  -0.116  0.00  0.00    -0.299 N 
ATOM     20  C   UNL     1      -2.575  -2.682  -0.130  0.00  0.00    +0.198 C 
ATOM     21  O   UNL     1      -3.631  -2.093  -0.036  0.00  0.00    -0.278 OA
ATOM     22  H   UNL     1      -0.572  -2.463  -0.190  0.00  0.00    +0.150 HD
BRANCH  19  23
ATOM     23  C   UNL     1      -1.433  -0.534   0.013  0.00  0.00    +0.121 C 
ATOM     24  C   UNL     1      -2.209   0.072  -1.158  0.00  0.00    +0.048 C 
BRANCH  23  26
ATOM     25  C   UNL     1      -0.019   1.526   0.010  0.00  0.00    +0.010 C 
ATOM     26  C   UNL     1       0.002  -0.004   0.002  0.00  0.00    +0.020 C 
ATOM     27  C   UNL     1       0.742  -0.511   1.242  0.00  0.00    +0.010 C 
ENDBRANCH  23  26
BRANCH  23  28
ATOM     28  C   UNL     1      -2.085  -0.160   1.279  0.00  0.00    +0.088 C 
ATOM     29  N   UNL     1      -2.587   0.128   2.256  0.00  0.00    -0.194 NA
ENDBRANCH  23  28
ENDBRANCH  19  23
ENDBRANCH  18  20
ENDBRANCH   1  18
TORSDOF 6
