REMARK  Name = ZINC09265841
REMARK  7 active torsions:
REMARK  status: ('A' for Active; 'I' for Inactive)
REMARK    1  A    between atoms: C_1  and  C_2
REMARK    2  A    between atoms: C_2  and  C_3
REMARK    3  A    between atoms: C_8  and  N_9
REMARK    4  A    between atoms: C_10  and  C_12
REMARK    5  A    between atoms: N_17  and  S_18
REMARK    6  A    between atoms: S_18  and  C_21
REMARK    7  A    between atoms: C_24  and  C_26
REMARK                            x       y       z     vdW  Elec       q    Type
REMARK                         _______ _______ _______ _____ _____    ______ ____
ROOT
ATOM      1  C   UNL     1      -1.451  -0.272  -4.864  0.00  0.00    +0.166 C 
ATOM      2  C   UNL     1      -1.089   1.224  -4.969  0.00  0.00    +0.031 C 
ATOM      3  C   UNL     1      -1.355   1.542  -6.464  0.00  0.00    +0.019 C 
ATOM      4  C   UNL     1      -2.587   0.650  -6.757  0.00  0.00    +0.110 C 
ATOM      5  N   UNL     1      -2.352  -0.586  -5.983  0.00  0.00    -0.164 NA
ENDROOT
BRANCH   1   7
ATOM      6  N   UNL     1      -1.505  -0.315  -2.391  0.00  0.00    -0.284 N 
ATOM      7  C   UNL     1      -2.147  -0.541  -3.555  0.00  0.00    +0.236 C 
ATOM      8  O   UNL     1      -3.285  -0.961  -3.548  0.00  0.00    -0.274 OA
ATOM      9  H   UNL     1      -0.620   0.082  -2.395  0.00  0.00    +0.155 HD
BRANCH   6  15
ATOM     10  C   UNL     1      -1.349  -1.120  -0.120  0.00  0.00    -0.026 A 
ATOM     11  C   UNL     1      -1.954  -1.446   1.078  0.00  0.00    +0.005 A 
ATOM     12  C   UNL     1      -3.322  -1.314   1.222  0.00  0.00    +0.000 A 
ATOM     13  C   UNL     1      -4.090  -0.853   0.168  0.00  0.00    +0.002 A 
ATOM     14  C   UNL     1      -3.491  -0.524  -1.032  0.00  0.00    +0.023 A 
ATOM     15  C   UNL     1      -2.116  -0.652  -1.178  0.00  0.00    +0.037 A 
BRANCH  10  17
ATOM     16  C   UNL     1       0.820   0.076   0.019  0.00  0.00    +0.009 C 
ATOM     17  C   UNL     1       0.143  -1.265  -0.276  0.00  0.00    +0.033 C 
ENDBRANCH  10  17
ENDBRANCH   6  15
ENDBRANCH   1   7
BRANCH   5  18
ATOM     18  S   UNL     1      -2.993  -2.076  -6.316  0.00  0.00    +0.068 S 
ATOM     19  O   UNL     1      -3.308  -2.082  -7.702  0.00  0.00    -0.152 OA
ATOM     20  O   UNL     1      -2.123  -3.034  -5.729  0.00  0.00    -0.152 OA
BRANCH  18  21
ATOM     21  C   UNL     1      -4.524  -2.190  -5.451  0.00  0.00    +0.143 A 
ATOM     22  C   UNL     1      -5.769  -1.846  -5.870  0.00  0.00    +0.037 A 
ATOM     23  C   UNL     1      -6.836  -2.022  -5.018  0.00  0.00    +0.020 A 
ATOM     24  C   UNL     1      -6.605  -2.540  -3.772  0.00  0.00    +0.041 A 
ATOM     25  S   UNL     1      -4.838  -2.794  -3.801  0.00  0.00    -0.067 S 
BRANCH  24  26
ATOM     26  C   UNL     1      -7.568  -2.821  -2.687  0.00  0.00    +0.098 A 
ATOM     27  C   UNL     1      -7.111  -3.358  -1.458  0.00  0.00    +0.036 A 
ATOM     28  C   UNL     1      -8.028  -3.605  -0.481  0.00  0.00    +0.073 A 
ATOM     29  C   UNL     1      -9.383  -3.308  -0.754  0.00  0.00    +0.265 A 
ATOM     30  O   UNL     1     -10.239  -3.513   0.091  0.00  0.00    -0.266 OA
ATOM     31  N   UNL     1      -9.722  -2.799  -1.954  0.00  0.00    -0.243 N 
ATOM     32  H   UNL     1     -10.653  -2.598  -2.134  0.00  0.00    +0.192 HD
ATOM     33  N   UNL     1      -8.845  -2.567  -2.863  0.00  0.00    -0.170 NA
ENDBRANCH  24  26
ENDBRANCH  18  21
ENDBRANCH   5  18
TORSDOF 6
