REMARK  Name = ZINC20208607
REMARK  9 active torsions:
REMARK  status: ('A' for Active; 'I' for Inactive)
REMARK    1  A    between atoms: C_1  and  C_2
REMARK    2  A    between atoms: C_2  and  S_3
REMARK    3  A    between atoms: S_3  and  C_6
REMARK    4  A    between atoms: C_12  and  C_13
REMARK    5  A    between atoms: C_15  and  C_27
REMARK    6  A    between atoms: N_16  and  C_19
REMARK    7  A    between atoms: C_17  and  C_18
REMARK    8  A    between atoms: C_23  and  O_25
REMARK    9  A    between atoms: O_25  and  C_26
REMARK                            x       y       z     vdW  Elec       q    Type
REMARK                         _______ _______ _______ _____ _____    ______ ____
ROOT
ATOM      1  C   UNL     1      -4.821  -4.357   0.913  0.00  0.00    +0.235 C 
ATOM      2  N   UNL     1      -4.175  -5.100   1.766  0.00  0.00    -0.145 NA
ATOM      3  N   UNL     1      -3.237  -6.020   1.347  0.00  0.00    -0.150 N 
ATOM      4  C   UNL     1      -2.548  -6.932   2.175  0.00  0.00    +0.153 C 
ATOM      5  N   UNL     1      -2.990  -7.316   3.344  0.00  0.00    -0.283 NA
ATOM      6  C   UNL     1      -1.269  -7.415   1.585  0.00  0.00    +0.081 C 
ATOM      7  C   UNL     1      -0.176  -7.720   2.371  0.00  0.00    +0.026 C 
ATOM      8  C   UNL     1      -1.231  -7.550   0.109  0.00  0.00    +0.273 C 
ATOM      9  O   UNL     1      -0.460  -8.328  -0.430  0.00  0.00    -0.268 OA
ATOM     10  N   UNL     1      -2.074  -6.791  -0.619  0.00  0.00    -0.152 NA
ATOM     11  C   UNL     1      -2.974  -6.065  -0.006  0.00  0.00    +0.182 C 
ATOM     12  S   UNL     1      -4.144  -4.899  -0.650  0.00  0.00    -0.015 S 
ATOM     13  H   UNL     1      -3.811  -6.940   3.699  0.00  0.00    +0.188 HD
ENDROOT
BRANCH   7  14
ATOM     14  C   UNL     1      -0.196  -7.426   3.758  0.00  0.00    -0.003 A 
ATOM     15  C   UNL     1      -0.920  -6.332   4.422  0.00  0.00    +0.031 A 
ATOM     16  C   UNL     1      -0.651  -6.439   5.733  0.00  0.00    +0.022 A 
ATOM     17  N   UNL     1       0.179  -7.506   5.937  0.00  0.00    -0.317 N 
ATOM     18  C   UNL     1       0.458  -8.114   4.767  0.00  0.00    +0.028 A 
ATOM     19  C   UNL     1       1.333  -9.328   4.587  0.00  0.00    +0.064 C 
ATOM     20  C   UNL     1      -1.180  -5.526   6.809  0.00  0.00    +0.064 C 
BRANCH  17  21
ATOM     21  C   UNL     1       0.665  -7.914   7.186  0.00  0.00    +0.050 A 
ATOM     22  C   UNL     1       2.025  -7.841   7.460  0.00  0.00    +0.026 A 
ATOM     23  C   UNL     1       2.505  -8.242   8.692  0.00  0.00    +0.006 A 
ATOM     24  C   UNL     1       1.634  -8.717   9.655  0.00  0.00    +0.046 A 
ATOM     25  C   UNL     1       0.275  -8.792   9.386  0.00  0.00    +0.122 A 
ATOM     26  C   UNL     1      -0.211  -8.385   8.153  0.00  0.00    +0.071 A 
BRANCH  25  27
ATOM     27  O   UNL     1      -0.581  -9.259  10.334  0.00  0.00    -0.495 OA
ATOM     28  C   UNL     1      -0.011  -9.656  11.583  0.00  0.00    +0.277 C 
ENDBRANCH  25  27
ENDBRANCH  17  21
ENDBRANCH   7  14
BRANCH   1  29
ATOM     29  S   UNL     1      -6.053  -3.136   1.222  0.00  0.00    +0.022 S 
ATOM     30  O   UNL     1      -6.557  -3.448   2.513  0.00  0.00    -0.167 OA
ATOM     31  O   UNL     1      -6.901  -3.181   0.082  0.00  0.00    -0.167 OA
BRANCH  29  33
ATOM     32  C   UNL     1      -6.130  -0.420   1.532  0.00  0.00    +0.028 C 
ATOM     33  C   UNL     1      -5.149  -1.564   1.267  0.00  0.00    +0.171 C 
ENDBRANCH  29  33
ENDBRANCH   1  29
TORSDOF 5
