REMARK  Name = ZINC49430969
REMARK  6 active torsions:
REMARK  status: ('A' for Active; 'I' for Inactive)
REMARK    1  A    between atoms: C_1  and  C_2
REMARK    2  A    between atoms: C_3  and  C_9
REMARK    3  A    between atoms: C_4  and  C_8
REMARK    4  A    between atoms: N_5  and  C_7
REMARK    5  A    between atoms: N_11  and  N_12
REMARK    6  A    between atoms: N_15  and  C_16
REMARK                            x       y       z     vdW  Elec       q    Type
REMARK                         _______ _______ _______ _____ _____    ______ ____
ROOT
ATOM      1  C   UNL     1      -0.005  -0.375  -2.549  0.00  0.00    +0.264 C 
ATOM      2  O   UNL     1       1.042  -0.173  -3.132  0.00  0.00    -0.269 OA
ATOM      3  N   UNL     1      -1.178  -0.183  -3.184  0.00  0.00    -0.229 N 
ATOM      4  H   UNL     1      -2.014  -0.344  -2.718  0.00  0.00    +0.173 HD
ENDROOT
BRANCH   1   7
ATOM      5  C   UNL     1      -0.018   1.503   0.010  0.00  0.00    +0.068 C 
ATOM      6  C   UNL     1       0.002  -0.004   0.002  0.00  0.00    +0.072 A 
ATOM      7  C   UNL     1       0.008  -0.828  -1.146  0.00  0.00    +0.081 A 
ATOM      8  C   UNL     1       0.028  -2.137  -0.708  0.00  0.00    +0.048 A 
ATOM      9  N   UNL     1       0.034  -2.111   0.635  0.00  0.00    -0.271 N 
ATOM     10  N   UNL     1       0.023  -0.776   1.053  0.00  0.00    -0.176 NA
ATOM     11  C   UNL     1       0.053  -3.284   1.513  0.00  0.00    +0.172 C 
ATOM     12  C   UNL     1       0.040  -3.368  -1.577  0.00  0.00    +0.066 C 
ENDBRANCH   1   7
BRANCH   3  13
ATOM     13  N   UNL     1      -1.191   0.247  -4.517  0.00  0.00    -0.218 N 
ATOM     14  C   UNL     1      -2.364   0.439  -5.152  0.00  0.00    +0.316 C 
ATOM     15  O   UNL     1      -2.375   0.812  -6.309  0.00  0.00    -0.251 OA
ATOM     16  N   UNL     1      -3.525   0.215  -4.505  0.00  0.00    -0.295 N 
ATOM     17  H   UNL     1      -0.355   0.408  -4.983  0.00  0.00    +0.174 HD
ATOM     18  H   UNL     1      -3.516  -0.083  -3.582  0.00  0.00    +0.151 HD
BRANCH  16  19
ATOM     19  C   UNL     1      -4.800   0.423  -5.196  0.00  0.00    +0.074 C 
ATOM     20  C   UNL     1      -5.250   1.891  -5.045  0.00  0.00    +0.022 C 
ATOM     21  C   UNL     1      -6.789   1.803  -4.893  0.00  0.00    +0.002 C 
ATOM     22  C   UNL     1      -6.974   0.532  -4.028  0.00  0.00    +0.002 C 
ATOM     23  C   UNL     1      -5.897  -0.441  -4.549  0.00  0.00    +0.022 C 
ENDBRANCH  16  19
ENDBRANCH   3  13
TORSDOF 3
