REMARK  Name = ZINC08812536
REMARK  8 active torsions:
REMARK  status: ('A' for Active; 'I' for Inactive)
REMARK    1  A    between atoms: C_1  and  C_2
REMARK    2  A    between atoms: N_7  and  C_9
REMARK    3  A    between atoms: C_9  and  C_10
REMARK    4  A    between atoms: C_10  and  C_11
REMARK    5  A    between atoms: C_11  and  N_12
REMARK    6  A    between atoms: C_13  and  C_15
REMARK    7  A    between atoms: N_18  and  S_21
REMARK    8  A    between atoms: S_21  and  N_24
REMARK                            x       y       z     vdW  Elec       q    Type
REMARK                         _______ _______ _______ _____ _____    ______ ____
ROOT
ATOM      1  C   UNL     1       2.337  -8.125   4.956  0.00  0.00    +0.077 C 
ATOM      2  C   UNL     1       3.041  -8.726   3.738  0.00  0.00    +0.030 C 
ATOM      3  C   UNL     1       2.915 -10.252   3.781  0.00  0.00    +0.111 C 
ATOM      4  N   UNL     1       3.428 -10.732   5.072  0.00  0.00    -0.166 NA
ATOM      5  C   UNL     1       2.883 -10.154   6.308  0.00  0.00    +0.111 C 
ATOM      6  C   UNL     1       3.009  -8.629   6.236  0.00  0.00    +0.030 C 
ENDROOT
BRANCH   1   8
ATOM      7  N   UNL     1       1.902  -5.954   3.854  0.00  0.00    -0.315 N 
ATOM      8  C   UNL     1       2.430  -6.622   4.899  0.00  0.00    +0.216 C 
ATOM      9  O   UNL     1       2.979  -6.014   5.793  0.00  0.00    -0.276 OA
ATOM     10  H   UNL     1       1.463  -6.441   3.139  0.00  0.00    +0.149 HD
BRANCH   7  11
ATOM     11  C   UNL     1       1.992  -4.493   3.798  0.00  0.00    +0.102 C 
BRANCH  11  12
ATOM     12  C   UNL     1       1.320  -3.989   2.519  0.00  0.00    +0.000 C 
BRANCH  12  13
ATOM     13  C   UNL     1       1.413  -2.463   2.461  0.00  0.00    -0.077 C 
BRANCH  13  19
ATOM     14  C   UNL     1      -0.019   1.526   0.010  0.00  0.00    +0.005 C 
ATOM     15  C   UNL     1       0.002  -0.004   0.002  0.00  0.00    -0.031 C 
ATOM     16  C   UNL     1       0.721  -0.499  -1.257  0.00  0.00    -0.001 C 
ATOM     17  C   UNL     1       0.805  -2.027  -1.217  0.00  0.00    -0.018 C 
ATOM     18  C   UNL     1       1.518  -2.460   0.066  0.00  0.00    -0.079 C 
ATOM     19  N   UNL     1       0.768  -1.979   1.233  0.00  0.00    +0.380 N 
ATOM     20  C   UNL     1       0.744  -0.512   1.240  0.00  0.00    -0.076 C 
ATOM     21  H   UNL     1      -0.177  -2.330   1.192  0.00  0.00    -0.082 HD
ENDBRANCH  13  19
ENDBRANCH  12  13
ENDBRANCH  11  12
ENDBRANCH   7  11
ENDBRANCH   1   8
BRANCH   4  22
ATOM     22  S   UNL     1       4.597 -11.903   5.133  0.00  0.00    +0.100 S 
ATOM     23  O   UNL     1       4.478 -12.531   6.402  0.00  0.00    -0.141 OA
ATOM     24  O   UNL     1       4.510 -12.628   3.913  0.00  0.00    -0.141 OA
BRANCH  22  25
ATOM     25  N   UNL     1       6.063 -11.133   5.121  0.00  0.00    -0.166 NA
ATOM     26  C   UNL     1       6.739 -10.829   3.852  0.00  0.00    +0.116 C 
ATOM     27  C   UNL     1       8.158 -11.405   3.899  0.00  0.00    +0.082 C 
ATOM     28  C   UNL     1       8.878 -10.878   5.141  0.00  0.00    +0.173 C 
ATOM     29  C   UNL     1       8.132 -11.318   6.402  0.00  0.00    +0.082 C 
ATOM     30  C   UNL     1       6.710 -10.735   6.379  0.00  0.00    +0.116 C 
ATOM     31  O   UNL     1      10.217 -11.387   5.172  0.00  0.00    -0.346 OA
ATOM     32  C   UNL     1      11.107 -10.253   5.156  0.00  0.00    +0.191 C 
ATOM     33  C   UNL     1      10.211  -9.097   5.667  0.00  0.00    +0.191 C 
ATOM     34  O   UNL     1       8.928  -9.443   5.091  0.00  0.00    -0.346 OA
ENDBRANCH  22  25
ENDBRANCH   4  22
TORSDOF 7
