REMARK  Name = ZINC00418557
REMARK  7 active torsions:
REMARK  status: ('A' for Active; 'I' for Inactive)
REMARK    1  A    between atoms: C_1  and  O_2
REMARK    2  A    between atoms: O_2  and  C_3
REMARK    3  A    between atoms: C_6  and  N_11
REMARK    4  A    between atoms: C_7  and  O_9
REMARK    5  A    between atoms: O_9  and  C_10
REMARK    6  A    between atoms: C_13  and  C_23
REMARK    7  A    between atoms: C_18  and  O_22
REMARK                            x       y       z     vdW  Elec       q    Type
REMARK                         _______ _______ _______ _____ _____    ______ ____
ROOT
ATOM      1  N   UNL     1      -1.107   6.995   1.833  0.00  0.00    -0.209 NA
ATOM      2  C   UNL     1      -0.520   7.806   0.980  0.00  0.00    +0.233 A 
ATOM      3  C   UNL     1      -0.524   9.268   1.188  0.00  0.00    +0.099 A 
ATOM      4  C   UNL     1       0.507   9.996   0.615  0.00  0.00    +0.030 A 
ATOM      5  C   UNL     1       1.475   9.298  -0.153  0.00  0.00    +0.018 A 
ATOM      6  C   UNL     1       2.634   9.951  -0.598  0.00  0.00    +0.015 A 
ATOM      7  C   UNL     1       3.572   9.262  -1.309  0.00  0.00    +0.046 A 
ATOM      8  C   UNL     1       3.383   7.914  -1.608  0.00  0.00    +0.120 A 
ATOM      9  C   UNL     1       2.231   7.259  -1.200  0.00  0.00    +0.092 A 
ATOM     10  C   UNL     1       1.265   7.946  -0.485  0.00  0.00    +0.141 A 
ATOM     11  O   UNL     1       0.117   7.327  -0.120  0.00  0.00    -0.437 OA
ENDROOT
BRANCH   1  15
ATOM     12  C   UNL     1      -0.774   2.892   1.355  0.00  0.00    +0.124 A 
ATOM     13  C   UNL     1       0.212   3.594   2.035  0.00  0.00    +0.048 A 
ATOM     14  C   UNL     1       0.108   4.961   2.192  0.00  0.00    +0.035 A 
ATOM     15  C   UNL     1      -0.997   5.639   1.675  0.00  0.00    +0.109 A 
ATOM     16  C   UNL     1      -1.994   4.928   0.994  0.00  0.00    +0.149 A 
ATOM     17  C   UNL     1      -1.876   3.559   0.838  0.00  0.00    +0.093 A 
BRANCH  12  19
ATOM     18  C   UNL     1       0.498   0.923   1.755  0.00  0.00    +0.277 C 
ATOM     19  O   UNL     1      -0.662   1.546   1.199  0.00  0.00    -0.495 OA
ENDBRANCH  12  19
BRANCH  16  20
ATOM     20  O   UNL     1      -3.072   5.582   0.487  0.00  0.00    -0.493 OA
ATOM     21  C   UNL     1      -4.048   4.792  -0.195  0.00  0.00    +0.277 C 
ENDBRANCH  16  20
ENDBRANCH   1  15
BRANCH   3  22
ATOM     22  C   UNL     1      -1.581   9.926   1.973  0.00  0.00    +0.247 C 
ATOM     23  O   UNL     1      -2.475   9.263   2.466  0.00  0.00    -0.270 OA
ATOM     24  N   UNL     1      -1.559  11.262   2.146  0.00  0.00    -0.325 N 
ATOM     25  H   UNL     1      -0.847  11.790   1.753  0.00  0.00    +0.145 HD
ATOM     26  H   UNL     1      -2.256  11.696   2.663  0.00  0.00    +0.145 HD
ENDBRANCH   3  22
BRANCH   8  27
ATOM     27  O   UNL     1       4.332   7.238  -2.304  0.00  0.00    -0.507 OA
ATOM     28  H   UNL     1       5.003   6.819  -1.748  0.00  0.00    +0.292 HD
ENDBRANCH   8  27
TORSDOF 5
