REMARK  Name = ZINC64104170
REMARK  7 active torsions:
REMARK  status: ('A' for Active; 'I' for Inactive)
REMARK    1  A    between atoms: C_1  and  C_2
REMARK    2  A    between atoms: C_2  and  C_4
REMARK    3  A    between atoms: C_2  and  N_14
REMARK    4  A    between atoms: N_14  and  C_15
REMARK    5  A    between atoms: C_18  and  C_24
REMARK    6  A    between atoms: C_20  and  N_21
REMARK    7  A    between atoms: N_26  and  C_27
REMARK                            x       y       z     vdW  Elec       q    Type
REMARK                         _______ _______ _______ _____ _____    ______ ____
ROOT
ATOM      1  C   UNL     1      -2.229  -0.395  -1.097  0.00  0.00    +0.058 A 
ATOM      2  C   UNL     1      -1.546  -0.003  -2.245  0.00  0.00    +0.026 A 
ATOM      3  C   UNL     1      -2.042  -0.325  -3.487  0.00  0.00    +0.015 A 
ATOM      4  C   UNL     1      -3.235  -1.047  -3.596  0.00  0.00    +0.039 A 
ATOM      5  C   UNL     1      -3.919  -1.439  -2.441  0.00  0.00    +0.047 A 
ATOM      6  C   UNL     1      -3.414  -1.118  -1.202  0.00  0.00    +0.148 A 
ENDROOT
BRANCH   4   7
ATOM      7  C   UNL     1      -3.770  -1.394  -4.926  0.00  0.00    +0.248 C 
ATOM      8  O   UNL     1      -4.807  -2.022  -5.019  0.00  0.00    -0.270 OA
ATOM      9  N   UNL     1      -3.109  -1.016  -6.038  0.00  0.00    -0.281 N 
ATOM     10  H   UNL     1      -2.249  -0.573  -5.964  0.00  0.00    +0.155 HD
BRANCH   9  11
ATOM     11  C   UNL     1      -3.664  -1.261  -7.297  0.00  0.00    +0.034 A 
ATOM     12  C   UNL     1      -4.346  -2.461  -7.533  0.00  0.00    +0.024 A 
ATOM     13  C   UNL     1      -4.894  -2.726  -8.748  0.00  0.00    +0.010 A 
ATOM     14  C   UNL     1      -4.779  -1.787  -9.788  0.00  0.00    -0.018 A 
ATOM     15  C   UNL     1      -5.337  -2.034 -11.054  0.00  0.00    +0.008 A 
ATOM     16  C   UNL     1      -5.209  -1.105 -12.040  0.00  0.00    +0.001 A 
ATOM     17  C   UNL     1      -4.532   0.092 -11.815  0.00  0.00    +0.001 A 
ATOM     18  C   UNL     1      -3.978   0.366 -10.602  0.00  0.00    +0.008 A 
ATOM     19  C   UNL     1      -4.091  -0.570  -9.559  0.00  0.00    -0.016 A 
ATOM     20  C   UNL     1      -3.538  -0.317  -8.293  0.00  0.00    +0.031 A 
ENDBRANCH   9  11
ENDBRANCH   4   7
BRANCH   6  21
ATOM     21  N   UNL     1      -4.134  -1.538   0.021  0.00  0.00    +0.058 N 
ATOM     22  O   UNL     1      -3.514  -1.902   0.993  0.00  0.00    -0.126 OA
ATOM     23  O   UNL     1      -5.343  -1.517   0.048  0.00  0.00    -0.126 OA
ENDBRANCH   6  21
BRANCH   1  24
ATOM     24  N   UNL     1      -1.725  -0.067   0.157  0.00  0.00    -0.336 N 
ATOM     25  H   UNL     1      -2.249  -0.248   0.953  0.00  0.00    +0.147 HD
BRANCH  24  27
ATOM     26  C   UNL     1      -0.530   2.066   0.093  0.00  0.00    +0.033 C 
ATOM     27  C   UNL     1      -0.403   0.552   0.275  0.00  0.00    +0.098 C 
BRANCH  27  28
ATOM     28  C   UNL     1       0.170   0.256   1.637  0.00  0.00    -0.026 A 
ATOM     29  C   UNL     1      -0.713   0.289   2.798  0.00  0.00    +0.007 A 
ATOM     30  C   UNL     1      -0.264   0.034   4.046  0.00  0.00    +0.025 A 
ATOM     31  C   UNL     1       1.147  -0.287   4.253  0.00  0.00    +0.056 A 
ATOM     32  N   UNL     1       1.885  -0.575   5.296  0.00  0.00    -0.268 N 
ATOM     33  C   UNL     1       3.174  -0.788   4.869  0.00  0.00    +0.308 C 
ATOM     34  O   UNL     1       4.108  -1.075   5.588  0.00  0.00    -0.252 OA
ATOM     35  N   UNL     1       3.247  -0.626   3.506  0.00  0.00    -0.268 N 
ATOM     36  C   UNL     1       2.053  -0.321   3.062  0.00  0.00    +0.056 A 
ATOM     37  C   UNL     1       1.484  -0.036   1.746  0.00  0.00    +0.030 A 
ATOM     38  H   UNL     1       1.574  -0.630   6.213  0.00  0.00    +0.156 HD
ATOM     39  H   UNL     1       4.046  -0.722   2.965  0.00  0.00    +0.156 HD
ENDBRANCH  27  28
ENDBRANCH  24  27
ENDBRANCH   1  24
TORSDOF 6
