REMARK  Name = ZINC05362435
REMARK  6 active torsions:
REMARK  status: ('A' for Active; 'I' for Inactive)
REMARK    1  A    between atoms: C_3  and  N_24
REMARK    2  A    between atoms: C_6  and  N_7
REMARK    3  A    between atoms: C_8  and  C_10
REMARK    4  A    between atoms: C_10  and  O_11
REMARK    5  A    between atoms: O_11  and  C_12
REMARK    6  A    between atoms: C_12  and  C_14
REMARK                            x       y       z     vdW  Elec       q    Type
REMARK                         _______ _______ _______ _____ _____    ______ ____
ROOT
ATOM      1  C   UNL     1      -6.122   0.193  -0.120  0.00  0.00    +0.328 C 
ENDROOT
BRANCH   1   3
ATOM      2  N   UNL     1      -8.397   1.165  -0.133  0.00  0.00    -0.283 N 
ATOM      3  C   UNL     1      -7.065   1.369  -0.102  0.00  0.00    +0.255 C 
ATOM      4  O   UNL     1      -6.625   2.498  -0.059  0.00  0.00    -0.272 OA
ATOM      5  H   UNL     1      -8.748   0.267  -0.234  0.00  0.00    +0.155 HD
BRANCH   2  11
ATOM      6  C   UNL     1     -10.482   2.101   0.647  0.00  0.00    +0.025 A 
ATOM      7  C   UNL     1     -11.343   3.175   0.763  0.00  0.00    +0.034 A 
ATOM      8  C   UNL     1     -11.006   4.396   0.207  0.00  0.00    +0.126 A 
ATOM      9  C   UNL     1      -9.805   4.546  -0.462  0.00  0.00    +0.034 A 
ATOM     10  C   UNL     1      -8.938   3.477  -0.576  0.00  0.00    +0.025 A 
ATOM     11  C   UNL     1      -9.273   2.250  -0.019  0.00  0.00    +0.034 A 
BRANCH   8  12
ATOM     12  N   UNL     1     -11.933   5.543   0.328  0.00  0.00    +0.056 N 
ATOM     13  O   UNL     1     -11.637   6.619  -0.161  0.00  0.00    -0.126 OA
ATOM     14  O   UNL     1     -12.991   5.412   0.917  0.00  0.00    -0.126 OA
ENDBRANCH   8  12
ENDBRANCH   2  11
ENDBRANCH   1   3
BRANCH   1  15
ATOM     15  O   UNL     1      -4.752   0.671  -0.080  0.00  0.00    -0.451 OA
BRANCH  15  16
ATOM     16  C   UNL     1      -3.777  -0.262  -0.090  0.00  0.00    +0.346 C 
ATOM     17  O   UNL     1      -4.067  -1.443  -0.131  0.00  0.00    -0.244 OA
BRANCH  16  18
ATOM     18  C   UNL     1      -2.372   0.146  -0.051  0.00  0.00    +0.097 A 
ATOM     19  C   UNL     1      -1.233  -0.640  -0.053  0.00  0.00    +0.026 A 
ATOM     20  C   UNL     1       0.002  -0.005  -0.005  0.00  0.00    -0.036 A 
ATOM     21  C   UNL     1      -0.016   1.348   0.012  0.00  0.00    -0.006 A 
ATOM     22  S   UNL     1      -1.678   1.791   0.011  0.00  0.00    -0.086 S 
ATOM     23  C   UNL     1       1.189   2.262   0.013  0.00  0.00    +0.043 C 
ATOM     24  C   UNL     1       1.900   2.076   1.363  0.00  0.00    +0.005 C 
ATOM     25  C   UNL     1       2.734   0.816   1.350  0.00  0.00    +0.001 C 
ATOM     26  C   UNL     1       1.980  -0.489   1.389  0.00  0.00    +0.005 C 
ATOM     27  C   UNL     1       1.309  -0.802   0.051  0.00  0.00    +0.036 C 
ENDBRANCH  16  18
ENDBRANCH  15  16
ENDBRANCH   1  15
TORSDOF 6
