REMARK  Name = ZINC47152225
REMARK  8 active torsions:
REMARK  status: ('A' for Active; 'I' for Inactive)
REMARK    1  A    between atoms: C_3  and  C_10
REMARK    2  A    between atoms: C_5  and  N_7
REMARK    3  A    between atoms: N_14  and  C_18
REMARK    4  A    between atoms: C_18  and  C_19
REMARK    5  A    between atoms: C_19  and  C_20
REMARK    6  A    between atoms: C_20  and  C_21
REMARK    7  A    between atoms: N_23  and  C_24
REMARK    8  A    between atoms: C_27  and  O_30
REMARK                            x       y       z     vdW  Elec       q    Type
REMARK                         _______ _______ _______ _____ _____    ______ ____
ROOT
ATOM      1  C   UNL     1       4.692   1.583  -0.013  0.00  0.00    +0.028 C 
ATOM      2  C   UNL     1       4.468   2.915  -0.136  0.00  0.00    +0.077 C 
ATOM      3  C   UNL     1       5.436   4.026  -0.256  0.00  0.00    +0.258 C 
ATOM      4  O   UNL     1       6.637   3.831  -0.255  0.00  0.00    -0.269 OA
ATOM      5  N   UNL     1       4.929   5.243  -0.364  0.00  0.00    -0.255 N 
ATOM      6  C   UNL     1       3.598   5.455  -0.364  0.00  0.00    +0.121 C 
ATOM      7  S   UNL     1       2.758   6.941  -0.493  0.00  0.00    -0.027 S 
ATOM      8  S   UNL     1       2.922   3.809  -0.205  0.00  0.00    -0.061 S 
ENDROOT
BRANCH   1  11
ATOM      9  C   UNL     1       2.657  -1.549   0.316  0.00  0.00    +0.003 A 
ATOM     10  C   UNL     1       3.712  -0.702   0.049  0.00  0.00    +0.008 A 
ATOM     11  C   UNL     1       3.572   0.673   0.268  0.00  0.00    -0.022 A 
ATOM     12  C   UNL     1       2.361   1.177   0.756  0.00  0.00    +0.040 A 
ATOM     13  C   UNL     1       1.317   0.316   1.018  0.00  0.00    +0.127 A 
ATOM     14  C   UNL     1       1.463  -1.043   0.799  0.00  0.00    +0.033 A 
BRANCH  13  15
ATOM     15  N   UNL     1       0.035   0.847   1.535  0.00  0.00    +0.056 N 
ATOM     16  O   UNL     1      -0.094   2.033   1.727  0.00  0.00    -0.126 OA
ATOM     17  O   UNL     1      -0.882   0.093   1.765  0.00  0.00    -0.126 OA
ENDBRANCH  13  15
ENDBRANCH   1  11
BRANCH   5  18
ATOM     18  C   UNL     1       5.836   6.388  -0.486  0.00  0.00    +0.115 C 
BRANCH  18  19
ATOM     19  C   UNL     1       6.130   6.649  -1.964  0.00  0.00    +0.029 C 
BRANCH  19  20
ATOM     20  C   UNL     1       7.077   7.845  -2.092  0.00  0.00    +0.097 C 
BRANCH  20  21
ATOM     21  C   UNL     1       7.367   8.102  -3.548  0.00  0.00    +0.217 C 
ATOM     22  O   UNL     1       6.866   7.400  -4.400  0.00  0.00    -0.275 OA
ATOM     23  N   UNL     1       8.183   9.114  -3.904  0.00  0.00    -0.285 N 
ATOM     24  H   UNL     1       8.636   9.635  -3.222  0.00  0.00    +0.155 HD
BRANCH  23  25
ATOM     25  C   UNL     1       8.378   9.414  -5.258  0.00  0.00    +0.034 A 
ATOM     26  C   UNL     1       9.617   9.861  -5.699  0.00  0.00    +0.027 A 
ATOM     27  C   UNL     1       9.809  10.155  -7.035  0.00  0.00    +0.047 A 
ATOM     28  C   UNL     1       8.764  10.006  -7.936  0.00  0.00    +0.117 A 
ATOM     29  C   UNL     1       7.526   9.560  -7.495  0.00  0.00    +0.047 A 
ATOM     30  C   UNL     1       7.335   9.259  -6.161  0.00  0.00    +0.027 A 
BRANCH  28  31
ATOM     31  O   UNL     1       8.954  10.296  -9.250  0.00  0.00    -0.507 OA
ATOM     32  H   UNL     1       9.256   9.546  -9.779  0.00  0.00    +0.292 HD
ENDBRANCH  28  31
ENDBRANCH  23  25
ENDBRANCH  20  21
ENDBRANCH  19  20
ENDBRANCH  18  19
ENDBRANCH   5  18
TORSDOF 8
