REMARK  Name = ZINC04223454
REMARK  7 active torsions:
REMARK  status: ('A' for Active; 'I' for Inactive)
REMARK    1  A    between atoms: C_1  and  C_2
REMARK    2  A    between atoms: C_2  and  O_3
REMARK    3  A    between atoms: O_3  and  C_4
REMARK    4  A    between atoms: C_4  and  C_6
REMARK    5  A    between atoms: C_10  and  N_11
REMARK    6  A    between atoms: C_12  and  C_14
REMARK    7  A    between atoms: C_28  and  N_49
REMARK                            x       y       z     vdW  Elec       q    Type
REMARK                         _______ _______ _______ _____ _____    ______ ____
ROOT
ATOM      1  C   UNL     1      -7.441   4.970   0.096  0.00  0.00    +0.091 A 
ATOM      2  C   UNL     1      -8.611   5.826   0.112  0.00  0.00    -0.025 A 
ATOM      3  C   UNL     1      -8.355   7.154   0.115  0.00  0.00    -0.021 A 
ATOM      4  S   UNL     1      -6.591   7.275   0.107  0.00  0.00    -0.079 S 
ATOM      5  C   UNL     1      -6.195   5.588   0.088  0.00  0.00    +0.087 A 
ATOM      6  C   UNL     1      -9.370   8.255   0.128  0.00  0.00    -0.036 C 
ATOM      7  C   UNL     1     -10.953   6.476   0.580  0.00  0.00    -0.074 C 
ATOM      8  C   UNL     1     -10.050   5.324   0.127  0.00  0.00    +0.018 C 
ATOM      9  C   UNL     1     -11.753   8.668  -0.067  0.00  0.00    -0.096 C 
ATOM     10  N   UNL     1     -10.680   7.668  -0.249  0.00  0.00    +0.381 N 
ATOM     11  H   UNL     1     -10.649   7.388  -1.237  0.00  0.00    -0.082 HD
ENDROOT
BRANCH   5  12
ATOM     12  N   UNL     1      -4.943   4.998   0.073  0.00  0.00    -0.273 N 
ATOM     13  C   UNL     1      -3.836   5.768   0.067  0.00  0.00    +0.284 C 
ATOM     14  O   UNL     1      -3.938   6.979   0.073  0.00  0.00    -0.266 OA
ATOM     15  H   UNL     1      -4.862   4.032   0.067  0.00  0.00    +0.156 HD
BRANCH  13  16
ATOM     16  C   UNL     1      -2.496   5.137   0.051  0.00  0.00    +0.194 A 
ATOM     17  C   UNL     1      -1.401   5.935   0.044  0.00  0.00    +0.103 A 
ATOM     18  C   UNL     1      -0.070   5.311   0.029  0.00  0.00    +0.193 A 
ATOM     19  O   UNL     1       0.949   5.979   0.024  0.00  0.00    -0.287 OA
ATOM     20  C   UNL     1      -0.027   3.836   0.022  0.00  0.00    +0.064 A 
ATOM     21  C   UNL     1       1.184   3.146   0.007  0.00  0.00    +0.015 A 
ATOM     22  C   UNL     1       1.184   1.778   0.000  0.00  0.00    +0.001 A 
ATOM     23  C   UNL     1      -0.013   1.076   0.008  0.00  0.00    +0.004 A 
ATOM     24  C   UNL     1      -1.220   1.741   0.017  0.00  0.00    +0.047 A 
ATOM     25  C   UNL     1      -1.244   3.132   0.030  0.00  0.00    +0.139 A 
ATOM     26  O   UNL     1      -2.414   3.799   0.044  0.00  0.00    -0.450 OA
ENDBRANCH  13  16
ENDBRANCH   5  12
BRANCH   1  27
ATOM     27  C   UNL     1      -7.566   3.510   0.090  0.00  0.00    +0.342 C 
ATOM     28  O   UNL     1      -7.607   2.899   1.141  0.00  0.00    -0.245 OA
BRANCH  27  29
ATOM     29  O   UNL     1      -7.635   2.844  -1.080  0.00  0.00    -0.461 OA
BRANCH  29  31
ATOM     30  C   UNL     1      -7.822   0.823  -2.426  0.00  0.00    +0.048 C 
ATOM     31  C   UNL     1      -7.758   1.399  -1.010  0.00  0.00    +0.229 C 
ENDBRANCH  29  31
ENDBRANCH  27  29
ENDBRANCH   1  27
TORSDOF 5
