REMARK  Name = ZINC08952323
REMARK  10 active torsions:
REMARK  status: ('A' for Active; 'I' for Inactive)
REMARK    1  A    between atoms: C_1  and  C_2
REMARK    2  A    between atoms: C_18  and  C_20
REMARK    3  A    between atoms: C_20  and  N_72
REMARK    4  A    between atoms: C_21  and  N_72
REMARK    5  A    between atoms: C_22  and  C_23
REMARK    6  A    between atoms: C_22  and  N_72
REMARK    7  A    between atoms: C_23  and  C_25
REMARK    8  A    between atoms: C_23  and  O_37
REMARK    9  A    between atoms: C_25  and  O_26
REMARK   10  A    between atoms: O_26  and  C_27
REMARK                            x       y       z     vdW  Elec       q    Type
REMARK                         _______ _______ _______ _____ _____    ______ ____
ROOT
ATOM      1  C   UNL     1       4.497   9.667   0.957  0.00  0.00    -0.096 C 
ATOM      2  N   UNL     1       3.720   9.975  -0.262  0.00  0.00    +0.380 N 
ATOM      3  H   UNL     1       4.145   9.490  -1.061  0.00  0.00    -0.082 HD
ENDROOT
BRANCH   2   4
ATOM      4  C   UNL     1       3.739  11.431  -0.519  0.00  0.00    -0.064 C 
BRANCH   4  19
ATOM      5  C   UNL     1       7.980  13.919  -3.221  0.00  0.00    +0.011 C 
ATOM      6  C   UNL     1       7.026  15.041  -2.807  0.00  0.00    -0.023 C 
ATOM      7  C   UNL     1       7.482  16.361  -3.427  0.00  0.00    +0.007 C 
ATOM      8  C   UNL     1       8.912  16.675  -2.983  0.00  0.00    +0.003 C 
ATOM      9  C   UNL     1       8.944  16.866  -1.463  0.00  0.00    +0.037 C 
ATOM     10  C   UNL     1       8.380  15.611  -0.793  0.00  0.00    +0.096 C 
ATOM     11  C   UNL     1       6.995  15.180  -1.279  0.00  0.00    +0.030 C 
ATOM     12  C   UNL     1       6.637  13.820  -0.684  0.00  0.00    +0.014 C 
ATOM     13  C   UNL     1       5.239  13.386  -1.124  0.00  0.00    +0.042 C 
ATOM     14  C   UNL     1       5.108  13.428  -2.662  0.00  0.00    +0.181 C 
ATOM     15  C   UNL     1       5.609  14.711  -3.278  0.00  0.00    +0.052 C 
ATOM     16  O   UNL     1       5.847  12.252  -3.100  0.00  0.00    -0.461 OA
ATOM     17  C   UNL     1       5.548  11.252  -2.241  0.00  0.00    +0.309 C 
ATOM     18  O   UNL     1       5.583  10.072  -2.501  0.00  0.00    -0.251 OA
ATOM     19  C   UNL     1       5.162  11.845  -0.899  0.00  0.00    +0.088 C 
ATOM     20  C   UNL     1       9.364  14.520  -0.376  0.00  0.00    +0.196 C 
ATOM     21  O   UNL     1       8.717  15.371   0.571  0.00  0.00    -0.368 OA
ENDBRANCH   4  19
ENDBRANCH   2   4
BRANCH   2  22
ATOM     22  C   UNL     1       2.326   9.509  -0.104  0.00  0.00    -0.044 C 
BRANCH  22  23
ATOM     23  C   UNL     1       1.686   9.399  -1.489  0.00  0.00    +0.135 C 
BRANCH  23  24
ATOM     24  O   UNL     1       2.425   8.470  -2.284  0.00  0.00    -0.390 OA
ATOM     25  H   UNL     1       2.461   7.577  -1.914  0.00  0.00    +0.210 HD
ENDBRANCH  23  24
BRANCH  23  26
ATOM     26  C   UNL     1       0.242   8.912  -1.346  0.00  0.00    +0.258 C 
BRANCH  26  27
ATOM     27  O   UNL     1      -0.392   8.921  -2.627  0.00  0.00    -0.489 OA
BRANCH  27  28
ATOM     28  C   UNL     1      -1.687   8.514  -2.676  0.00  0.00    +0.128 A 
ATOM     29  C   UNL     1      -2.328   8.120  -1.535  0.00  0.00    +0.046 A 
ATOM     30  C   UNL     1      -3.655   7.699  -1.569  0.00  0.00    +0.004 A 
ATOM     31  C   UNL     1      -4.352   7.669  -2.738  0.00  0.00    +0.009 A 
ATOM     32  C   UNL     1      -3.729   8.067  -3.933  0.00  0.00    -0.014 A 
ATOM     33  C   UNL     1      -2.379   8.496  -3.904  0.00  0.00    +0.024 A 
ATOM     34  C   UNL     1      -1.756   8.894  -5.098  0.00  0.00    +0.012 A 
ATOM     35  C   UNL     1      -2.456   8.864  -6.265  0.00  0.00    +0.001 A 
ATOM     36  C   UNL     1      -3.784   8.442  -6.295  0.00  0.00    +0.001 A 
ATOM     37  C   UNL     1      -4.421   8.054  -5.157  0.00  0.00    +0.008 A 
ENDBRANCH  27  28
ENDBRANCH  26  27
ENDBRANCH  23  26
ENDBRANCH  22  23
ENDBRANCH   2  22
TORSDOF 8
