REMARK  Name = ZINC14033817
REMARK  7 active torsions:
REMARK  status: ('A' for Active; 'I' for Inactive)
REMARK    1  A    between atoms: C_1  and  C_2
REMARK    2  A    between atoms: C_2  and  C_4
REMARK    3  A    between atoms: C_2  and  O_17
REMARK    4  A    between atoms: N_6  and  N_7
REMARK    5  A    between atoms: C_8  and  C_10
REMARK    6  A    between atoms: O_17  and  C_18
REMARK    7  A    between atoms: C_23  and  N_24
REMARK                            x       y       z     vdW  Elec       q    Type
REMARK                         _______ _______ _______ _____ _____    ______ ____
ROOT
ATOM      1  C   UNL     1      -0.686   2.240   1.292  0.00  0.00    +0.270 C 
ATOM      2  O   UNL     1       0.028   2.686   2.165  0.00  0.00    -0.270 OA
ATOM      3  N   UNL     1      -2.020   2.183   1.475  0.00  0.00    -0.231 N 
ATOM      4  H   UNL     1      -2.591   1.826   0.777  0.00  0.00    +0.173 HD
ENDROOT
BRANCH   3   5
ATOM      5  N   UNL     1      -2.582   2.639   2.675  0.00  0.00    -0.230 N 
ATOM      6  C   UNL     1      -3.916   2.581   2.858  0.00  0.00    +0.262 C 
ATOM      7  O   UNL     1      -4.632   2.134   1.983  0.00  0.00    -0.269 OA
ATOM      8  H   UNL     1      -2.012   2.995   3.373  0.00  0.00    +0.173 HD
BRANCH   6   9
ATOM      9  C   UNL     1      -4.510   3.062   4.123  0.00  0.00    +0.056 A 
ATOM     10  C   UNL     1      -3.691   3.571   5.133  0.00  0.00    +0.014 A 
ATOM     11  C   UNL     1      -4.251   4.024   6.309  0.00  0.00    +0.001 A 
ATOM     12  C   UNL     1      -5.621   3.964   6.495  0.00  0.00    +0.001 A 
ATOM     13  C   UNL     1      -6.439   3.456   5.503  0.00  0.00    +0.021 A 
ATOM     14  C   UNL     1      -5.892   3.004   4.317  0.00  0.00    +0.053 A 
ATOM     15 CL   UNL     1      -6.919   2.366   3.072  0.00  0.00    -0.083 Cl
ENDBRANCH   6   9
ENDBRANCH   3   5
BRANCH   1  17
ATOM     16  C   UNL     1      -0.310   0.243  -0.129  0.00  0.00    +0.062 C 
ATOM     17  C   UNL     1      -0.081   1.750   0.002  0.00  0.00    +0.257 C 
BRANCH  17  18
ATOM     18  O   UNL     1       1.322   2.020   0.000  0.00  0.00    -0.478 OA
BRANCH  18  19
ATOM     19  C   UNL     1       1.926   2.141  -1.211  0.00  0.00    +0.152 A 
ATOM     20  C   UNL     1       1.210   1.891  -2.373  0.00  0.00    +0.048 A 
ATOM     21  C   UNL     1       1.825   2.015  -3.603  0.00  0.00    +0.004 A 
ATOM     22  C   UNL     1       3.155   2.389  -3.677  0.00  0.00    +0.002 A 
ATOM     23  C   UNL     1       3.870   2.639  -2.521  0.00  0.00    +0.036 A 
ATOM     24  C   UNL     1       3.258   2.521  -1.289  0.00  0.00    +0.168 A 
BRANCH  24  25
ATOM     25  N   UNL     1       4.023   2.795  -0.052  0.00  0.00    +0.060 N 
ATOM     26  O   UNL     1       5.192   3.129  -0.121  0.00  0.00    -0.126 OA
ATOM     27  O   UNL     1       3.483   2.687   1.035  0.00  0.00    -0.126 OA
ENDBRANCH  24  25
ENDBRANCH  18  19
ENDBRANCH  17  18
ENDBRANCH   1  17
TORSDOF 6
