REMARK  Name = ZINC41583490
REMARK  3 active torsions:
REMARK  status: ('A' for Active; 'I' for Inactive)
REMARK    1  A    between atoms: C_1  and  C_2
REMARK    2  A    between atoms: C_5  and  C_8
REMARK    3  A    between atoms: C_9  and  C_21
REMARK                            x       y       z     vdW  Elec       q    Type
REMARK                         _______ _______ _______ _____ _____    ______ ____
ROOT
ATOM      1  C   UNL     1       0.059  -4.255  -0.021  0.00  0.00    +0.006 A 
ATOM      2  C   UNL     1      -0.988  -4.956  -0.517  0.00  0.00    -0.003 A 
ATOM      3  S   UNL     1      -0.482  -6.652  -0.302  0.00  0.00    -0.075 S 
ATOM      4  C   UNL     1       1.104  -6.377   0.441  0.00  0.00    +0.095 A 
ATOM      5  C   UNL     1       1.210  -4.986   0.500  0.00  0.00    +0.078 A 
ATOM      6  C   UNL     1       2.465  -4.467   1.083  0.00  0.00    +0.263 A 
ATOM      7  O   UNL     1       2.647  -3.267   1.181  0.00  0.00    -0.267 OA
ATOM      8  N   UNL     1       3.402  -5.334   1.504  0.00  0.00    -0.275 N 
ATOM      9  H   UNL     1       4.224  -4.989   1.887  0.00  0.00    +0.173 HD
ATOM     10  C   UNL     1       3.233  -6.663   1.411  0.00  0.00    +0.328 A 
ATOM     11  O   UNL     1       4.111  -7.405   1.807  0.00  0.00    -0.247 OA
ATOM     12  N   UNL     1       2.104  -7.190   0.897  0.00  0.00    -0.302 N 
ATOM     13  H   UNL     1       2.005  -8.153   0.840  0.00  0.00    +0.171 HD
ATOM     14  C   UNL     1      -2.270  -4.430  -1.109  0.00  0.00    +0.052 C 
ENDROOT
BRANCH   1  19
ATOM     15  C   UNL     1      -0.018   1.503   0.010  0.00  0.00    +0.044 C 
ATOM     16  C   UNL     1       0.002  -0.004   0.002  0.00  0.00    -0.050 A 
ATOM     17  C   UNL     1       0.006  -0.686  -1.201  0.00  0.00    +0.004 A 
ATOM     18  C   UNL     1       0.024  -2.066  -1.215  0.00  0.00    +0.009 A 
ATOM     19  C   UNL     1       0.040  -2.772  -0.013  0.00  0.00    -0.016 A 
ATOM     20  C   UNL     1       0.036  -2.079   1.196  0.00  0.00    +0.009 A 
ATOM     21  C   UNL     1       0.023  -0.699   1.198  0.00  0.00    +0.004 A 
ENDBRANCH   1  19
TORSDOF 1
