REMARK  Name = ZINC20201690
REMARK  4 active torsions:
REMARK  status: ('A' for Active; 'I' for Inactive)
REMARK    1  A    between atoms: N_10  and  C_13
REMARK    2  A    between atoms: N_16  and  C_21
REMARK    3  A    between atoms: C_18  and  O_20
REMARK    4  A    between atoms: C_21  and  C_22
REMARK                            x       y       z     vdW  Elec       q    Type
REMARK                         _______ _______ _______ _____ _____    ______ ____
ROOT
ATOM      1  C   UNL     1       0.101   2.114  -0.424  0.00  0.00    +0.067 C 
ATOM      2  C   UNL     1       1.641   2.259  -0.330  0.00  0.00    -0.057 C 
ATOM      3  N   UNL     1       2.139   1.054  -1.042  0.00  0.00    +0.385 N 
ATOM      4  C   UNL     1       1.232  -0.047  -0.656  0.00  0.00    -0.045 C 
ATOM      5  C   UNL     1      -0.114   0.592  -0.265  0.00  0.00    +0.113 C 
ATOM      6  H   UNL     1       2.154   1.201  -2.133  0.00  0.00    -0.081 HD
ENDROOT
BRANCH   1  16
ATOM      7  C   UNL     1      -5.012   5.910   4.060  0.00  0.00    +0.005 A 
ATOM      8  C   UNL     1      -4.234   6.763   4.832  0.00  0.00    +0.018 A 
ATOM      9  C   UNL     1      -2.888   6.889   4.553  0.00  0.00    +0.084 A 
ATOM     10  N   UNL     1      -2.334   6.206   3.569  0.00  0.00    -0.350 N 
ATOM     11  C   UNL     1      -3.043   5.388   2.807  0.00  0.00    +0.099 A 
ATOM     12  C   UNL     1      -4.404   5.213   3.032  0.00  0.00    +0.042 A 
ATOM     13  N   UNL     1      -2.420   4.693   1.777  0.00  0.00    -0.314 N 
ATOM     14  C   UNL     1      -0.988   5.019   1.712  0.00  0.00    +0.122 C 
ATOM     15  C   UNL     1      -0.357   4.297   0.519  0.00  0.00    +0.103 C 
ATOM     16  N   UNL     1      -0.557   2.849   0.664  0.00  0.00    -0.296 NA
ATOM     17  C   UNL     1      -1.989   2.522   0.730  0.00  0.00    +0.103 C 
ATOM     18  C   UNL     1      -2.620   3.244   1.923  0.00  0.00    +0.122 C 
ATOM     19  H   UNL     1      -1.258   6.310   3.365  0.00  0.00    +0.166 HD
ENDBRANCH   1  16
BRANCH   5  20
ATOM     20  O   UNL     1      -1.151   0.143  -1.139  0.00  0.00    -0.392 OA
ATOM     21  H   UNL     1      -1.435  -0.919  -1.156  0.00  0.00    +0.210 HD
ENDBRANCH   5  20
BRANCH   3  22
ATOM     22  C   UNL     1       3.526   0.753  -0.661  0.00  0.00    -0.041 C 
BRANCH  22  23
ATOM     23  C   UNL     1       4.101  -0.259  -1.618  0.00  0.00    -0.042 A 
ATOM     24  C   UNL     1       4.258  -1.574  -1.220  0.00  0.00    +0.052 A 
ATOM     25  C   UNL     1       4.786  -2.506  -2.097  0.00  0.00    +0.167 A 
ATOM     26  C   UNL     1       5.159  -2.116  -3.381  0.00  0.00    +0.168 A 
ATOM     27  C   UNL     1       5.000  -0.797  -3.774  0.00  0.00    +0.069 A 
ATOM     28  C   UNL     1       4.466   0.128  -2.894  0.00  0.00    +0.046 A 
ATOM     29 CL   UNL     1       4.261   1.778  -3.392  0.00  0.00    -0.083 Cl
ATOM     30  O   UNL     1       5.646  -3.205  -4.044  0.00  0.00    -0.453 OA
ATOM     31  C   UNL     1       5.947  -4.174  -3.022  0.00  0.00    +0.466 C 
ATOM     32  O   UNL     1       5.039  -3.840  -1.956  0.00  0.00    -0.453 OA
ENDBRANCH  22  23
ENDBRANCH   3  22
TORSDOF 4
