REMARK  Name = ZINC46583695
REMARK  12 active torsions:
REMARK  status: ('A' for Active; 'I' for Inactive)
REMARK    1  A    between atoms: C_1  and  C_2
REMARK    2  A    between atoms: C_2  and  C_3
REMARK    3  A    between atoms: C_3  and  N_4
REMARK    4  A    between atoms: C_5  and  N_29
REMARK    5  A    between atoms: C_6  and  C_13
REMARK    6  A    between atoms: N_9  and  C_12
REMARK    7  A    between atoms: C_13  and  C_15
REMARK    8  A    between atoms: C_15  and  N_16
REMARK    9  A    between atoms: N_16  and  C_17
REMARK   10  A    between atoms: N_16  and  C_18
REMARK   11  A    between atoms: C_18  and  C_20
REMARK   12  A    between atoms: C_18  and  C_21
REMARK                            x       y       z     vdW  Elec       q    Type
REMARK                         _______ _______ _______ _____ _____    ______ ____
ROOT
ATOM      1  C   UNL     1      -1.350  -4.620   2.493  0.00  0.00    +0.155 C 
ATOM      2  O   UNL     1      -2.279  -3.972   2.931  0.00  0.00    -0.294 OA
ENDROOT
BRANCH   1   5
ATOM      3  N   UNL     1       0.866  -1.979   1.187  0.00  0.00    -0.281 N 
ATOM      4  C   UNL     1      -0.195  -2.565   1.817  0.00  0.00    +0.116 A 
ATOM      5  C   UNL     1      -0.275  -3.968   1.853  0.00  0.00    +0.118 A 
ATOM      6  C   UNL     1       0.797  -4.733   1.202  0.00  0.00    +0.269 A 
ATOM      7  O   UNL     1       0.779  -5.950   1.202  0.00  0.00    -0.267 OA
ATOM      8  N   UNL     1       1.802  -4.059   0.606  0.00  0.00    -0.263 N 
ATOM      9  C   UNL     1       1.822  -2.716   0.600  0.00  0.00    +0.333 A 
ATOM     10  O   UNL     1       2.743  -2.147   0.047  0.00  0.00    -0.246 OA
ATOM     11  C   UNL     1       2.881  -4.801  -0.049  0.00  0.00    +0.157 C 
BRANCH   4  12
ATOM     12  N   UNL     1      -1.158  -1.802   2.403  0.00  0.00    -0.344 N 
ATOM     13  H   UNL     1      -1.055  -0.839   2.443  0.00  0.00    +0.144 HD
ATOM     14  H   UNL     1      -1.946  -2.223   2.780  0.00  0.00    +0.144 HD
ENDBRANCH   4  12
BRANCH   3  15
ATOM     15  C   UNL     1       0.958  -0.518   1.144  0.00  0.00    +0.128 C 
BRANCH  15  17
ATOM     16  C   UNL     1       0.339   1.528  -0.148  0.00  0.00    +0.005 C 
ATOM     17  C   UNL     1       0.243   0.002  -0.104  0.00  0.00    +0.018 C 
ENDBRANCH  15  17
ENDBRANCH   3  15
ENDBRANCH   1   5
BRANCH   1  18
ATOM     18  C   UNL     1      -1.347  -6.120   2.631  0.00  0.00    +0.003 C 
BRANCH  18  19
ATOM     19  N   UNL     1      -2.566  -6.551   3.328  0.00  0.00    +0.387 N 
ATOM     20  C   UNL     1      -2.554  -6.034   4.702  0.00  0.00    -0.095 C 
ATOM     21  H   UNL     1      -3.375  -6.194   2.841  0.00  0.00    -0.081 HD
BRANCH  19  22
ATOM     22  C   UNL     1      -2.621  -8.019   3.357  0.00  0.00    -0.039 C 
ATOM     23  C   UNL     1      -2.635  -8.557   1.925  0.00  0.00    -0.008 C 
BRANCH  22  24
ATOM     24  C   UNL     1      -3.872  -8.460   4.072  0.00  0.00    -0.043 A 
ATOM     25  C   UNL     1      -4.975  -7.627   4.114  0.00  0.00    +0.005 A 
ATOM     26  C   UNL     1      -6.122  -8.031   4.769  0.00  0.00    +0.020 A 
ATOM     27  C   UNL     1      -6.169  -9.271   5.383  0.00  0.00    +0.042 A 
ATOM     28  C   UNL     1      -5.067 -10.105   5.341  0.00  0.00    +0.040 A 
ATOM     29  C   UNL     1      -3.920  -9.702   4.681  0.00  0.00    +0.044 A 
ATOM     30 CL   UNL     1      -2.538 -10.750   4.622  0.00  0.00    -0.083 Cl
ATOM     31 CL   UNL     1      -7.611  -9.778   6.206  0.00  0.00    -0.083 Cl
ENDBRANCH  22  24
ENDBRANCH  19  22
ENDBRANCH  18  19
ENDBRANCH   1  18
TORSDOF 8
