REMARK  Name = ZINC12309770
REMARK  11 active torsions:
REMARK  status: ('A' for Active; 'I' for Inactive)
REMARK    1  A    between atoms: C_1  and  C_2
REMARK    2  A    between atoms: C_2  and  C_3
REMARK    3  A    between atoms: C_3  and  C_4
REMARK    4  A    between atoms: C_4  and  C_5
REMARK    5  A    between atoms: C_11  and  N_12
REMARK    6  A    between atoms: N_12  and  O_13
REMARK    7  A    between atoms: O_13  and  C_14
REMARK    8  A    between atoms: C_14  and  C_15
REMARK    9  A    between atoms: N_17  and  C_18
REMARK   10  A    between atoms: N_28  and  C_33
REMARK   11  A    between atoms: N_31  and  C_32
REMARK                            x       y       z     vdW  Elec       q    Type
REMARK                         _______ _______ _______ _____ _____    ______ ____
ROOT
ATOM      1  C   UNL     1      10.954   2.094   0.569  0.00  0.00    -0.005 A 
ATOM      2  C   UNL     1      12.013   1.328   0.884  0.00  0.00    +0.090 A 
ATOM      3  N   UNL     1      11.909  -0.031   1.013  0.00  0.00    -0.347 N 
ATOM      4  H   UNL     1      12.721  -0.602   1.488  0.00  0.00    +0.167 HD
ATOM      5  C   UNL     1      10.823  -0.718   0.569  0.00  0.00    +0.129 A 
ATOM      6  C   UNL     1       9.659  -0.032   0.236  0.00  0.00    +0.106 A 
ATOM      7  C   UNL     1       9.647   1.437   0.366  0.00  0.00    +0.082 A 
ATOM      8  C   UNL     1       8.530  -0.755  -0.215  0.00  0.00    +0.268 A 
ATOM      9  O   UNL     1       7.499  -0.176  -0.509  0.00  0.00    -0.267 OA
ATOM     10  N   UNL     1       8.616  -2.099  -0.312  0.00  0.00    -0.263 N 
ATOM     11  C   UNL     1       9.752  -2.741   0.011  0.00  0.00    +0.333 A 
ATOM     12  O   UNL     1       9.795  -3.952  -0.091  0.00  0.00    -0.246 OA
ATOM     13  N   UNL     1      10.843  -2.083   0.445  0.00  0.00    -0.282 N 
ATOM     14  C   UNL     1      12.057  -2.829   0.784  0.00  0.00    +0.155 C 
ATOM     15  C   UNL     1       7.458  -2.867  -0.776  0.00  0.00    +0.157 C 
ENDROOT
BRANCH   7  16
ATOM     16  N   UNL     1       8.531   2.127   0.299  0.00  0.00    -0.264 N 
ATOM     17  H   UNL     1       8.558   3.191   0.021  0.00  0.00    +0.194 HD
BRANCH  16  18
ATOM     18  O   UNL     1       7.293   1.501   0.585  0.00  0.00    -0.265 OA
BRANCH  18  19
ATOM     19  C   UNL     1       6.164   2.369   0.473  0.00  0.00    +0.288 C 
BRANCH  19  20
ATOM     20  C   UNL     1       4.907   1.603   0.797  0.00  0.00    +0.246 C 
ATOM     21  O   UNL     1       4.973   0.428   1.094  0.00  0.00    -0.273 OA
ATOM     22  N   UNL     1       3.711   2.222   0.757  0.00  0.00    -0.281 N 
ATOM     23  H   UNL     1       3.641   3.260   0.401  0.00  0.00    +0.155 HD
BRANCH  22  24
ATOM     24  C   UNL     1       2.556   1.542   1.168  0.00  0.00    +0.069 A 
ATOM     25  C   UNL     1       2.653   0.483   2.059  0.00  0.00    +0.029 A 
ATOM     26  C   UNL     1       1.514  -0.186   2.464  0.00  0.00    +0.040 A 
ATOM     27  C   UNL     1       0.275   0.201   1.982  0.00  0.00    +0.126 A 
ATOM     28  C   UNL     1       0.173   1.257   1.093  0.00  0.00    +0.078 A 
ATOM     29  C   UNL     1       1.311   1.929   0.684  0.00  0.00    +0.147 A 
ATOM     30  F   UNL     1       1.213   2.960  -0.184  0.00  0.00    -0.203 F 
ATOM     31  F   UNL     1      -0.838  -0.454   2.380  0.00  0.00    -0.205 F 
ENDBRANCH  22  24
ENDBRANCH  19  20
ENDBRANCH  18  19
ENDBRANCH  16  18
ENDBRANCH   7  16
BRANCH   1  32
ATOM     32  C   UNL     1      11.095   3.588   0.432  0.00  0.00    +0.039 C 
BRANCH  32  33
ATOM     33  C   UNL     1      10.846   4.250   1.788  0.00  0.00    +0.004 C 
BRANCH  33  35
ATOM     34  C   UNL     1      10.741   6.429   3.006  0.00  0.00    +0.004 C 
ATOM     35  C   UNL     1      10.989   5.767   1.649  0.00  0.00    -0.003 C 
ENDBRANCH  33  35
ENDBRANCH  32  33
ENDBRANCH   1  32
TORSDOF 8
