REMARK  Name = ZINC08627564
REMARK  10 active torsions:
REMARK  status: ('A' for Active; 'I' for Inactive)
REMARK    1  A    between atoms: C_1  and  C_2
REMARK    2  A    between atoms: C_2  and  C_28
REMARK    3  A    between atoms: N_7  and  C_8
REMARK    4  A    between atoms: C_12  and  O_14
REMARK    5  A    between atoms: O_14  and  C_15
REMARK    6  A    between atoms: C_15  and  C_16
REMARK    7  A    between atoms: C_16  and  C_17
REMARK    8  A    between atoms: C_17  and  O_18
REMARK    9  A    between atoms: O_18  and  C_19
REMARK   10  A    between atoms: C_23  and  N_25
REMARK                            x       y       z     vdW  Elec       q    Type
REMARK                         _______ _______ _______ _____ _____    ______ ____
ROOT
ATOM      1  C   UNL     1       5.180  12.165  -0.959  0.00  0.00    +0.042 A 
ATOM      2  C   UNL     1       6.090  11.488  -0.157  0.00  0.00    +0.024 A 
ATOM      3  C   UNL     1       6.194  10.113  -0.237  0.00  0.00    +0.005 A 
ATOM      4  C   UNL     1       5.390   9.406  -1.111  0.00  0.00    +0.046 A 
ATOM      5  C   UNL     1       4.482  10.078  -1.919  0.00  0.00    +0.122 A 
ATOM      6  C   UNL     1       4.375  11.457  -1.841  0.00  0.00    +0.069 A 
ENDROOT
BRANCH   1  13
ATOM      7  C   UNL     1       7.012  15.061  -0.696  0.00  0.00    +0.053 C 
ATOM      8  C   UNL     1       5.976  14.443  -1.638  0.00  0.00    +0.102 C 
ATOM      9  N   UNL     1       5.152  15.506  -2.242  0.00  0.00    -0.298 N 
ATOM     10  C   UNL     1       4.195  16.101  -1.433  0.00  0.00    +0.159 C 
ATOM     11  N   UNL     1       3.433  15.241  -0.644  0.00  0.00    -0.263 N 
ATOM     12  C   UNL     1       4.112  14.166  -0.081  0.00  0.00    +0.166 C 
ATOM     13  N   UNL     1       5.075  13.557  -0.878  0.00  0.00    -0.253 N 
ATOM     14  C   UNL     1       6.684  13.645  -2.735  0.00  0.00    +0.053 C 
ATOM     15  H   UNL     1       5.274  15.777  -3.165  0.00  0.00    +0.151 HD
ATOM     16  H   UNL     1       3.365  17.873  -0.870  0.00  0.00    +0.158 HD
ATOM     17  H   UNL     1       2.485  15.382  -0.498  0.00  0.00    +0.157 HD
ATOM     18  H   UNL     1       3.200  14.135   1.738  0.00  0.00    +0.158 HD
ATOM     19  N   UNL     1       4.064  17.419  -1.458  0.00  0.00    -0.375 N 
ATOM     20  H   UNL     1       4.666  17.983  -2.070  0.00  0.00    +0.158 HD
ATOM     21  N   UNL     1       3.903  13.700   1.140  0.00  0.00    -0.374 N 
ATOM     22  H   UNL     1       4.448  12.901   1.486  0.00  0.00    +0.158 HD
ENDBRANCH   1  13
BRANCH   5  23
ATOM     23  O   UNL     1       3.695   9.382  -2.781  0.00  0.00    -0.492 OA
BRANCH  23  24
ATOM     24  C   UNL     1       3.859   7.963  -2.808  0.00  0.00    +0.232 C 
BRANCH  24  25
ATOM     25  C   UNL     1       2.896   7.357  -3.831  0.00  0.00    +0.082 C 
BRANCH  25  26
ATOM     26  C   UNL     1       3.071   5.838  -3.860  0.00  0.00    +0.232 C 
BRANCH  26  27
ATOM     27  O   UNL     1       2.172   5.273  -4.816  0.00  0.00    -0.492 OA
BRANCH  27  28
ATOM     28  C   UNL     1       2.200   3.922  -4.966  0.00  0.00    +0.123 A 
ATOM     29  C   UNL     1       3.076   3.157  -4.210  0.00  0.00    +0.046 A 
ATOM     30  C   UNL     1       3.103   1.785  -4.365  0.00  0.00    +0.006 A 
ATOM     31  C   UNL     1       2.259   1.173  -5.274  0.00  0.00    +0.033 A 
ATOM     32  C   UNL     1       1.389   1.935  -6.032  0.00  0.00    +0.130 A 
ATOM     33  C   UNL     1       1.354   3.307  -5.877  0.00  0.00    +0.078 A 
BRANCH  32  34
ATOM     34  N   UNL     1       0.491   1.278  -7.008  0.00  0.00    +0.057 N 
ATOM     35  O   UNL     1       0.518   0.068  -7.143  0.00  0.00    -0.126 OA
ATOM     36  O   UNL     1      -0.276   1.948  -7.677  0.00  0.00    -0.126 OA
ENDBRANCH  32  34
ENDBRANCH  27  28
ENDBRANCH  26  27
ENDBRANCH  25  26
ENDBRANCH  24  25
ENDBRANCH  23  24
ENDBRANCH   5  23
TORSDOF 8
