REMARK  Name = ZINC63479125
REMARK  5 active torsions:
REMARK  status: ('A' for Active; 'I' for Inactive)
REMARK    1  A    between atoms: C_1  and  O_2
REMARK    2  A    between atoms: O_2  and  C_3
REMARK    3  A    between atoms: C_8  and  C_9
REMARK    4  A    between atoms: C_9  and  N_10
REMARK    5  A    between atoms: C_11  and  C_13
REMARK                            x       y       z     vdW  Elec       q    Type
REMARK                         _______ _______ _______ _____ _____    ______ ____
ROOT
ATOM      1  C   UNL     1      -3.647  -3.701   0.430  0.00  0.00    +0.160 C 
ATOM      2  C   UNL     1      -4.204  -4.971   1.033  0.00  0.00    +0.011 C 
ATOM      3  C   UNL     1      -5.099  -4.793   2.024  0.00  0.00    +0.049 C 
ATOM      4  C   UNL     1      -5.427  -3.409   2.398  0.00  0.00    +0.030 C 
ATOM      5  C   UNL     1      -6.354  -3.166   3.425  0.00  0.00    +0.010 A 
ATOM      6  C   UNL     1      -6.686  -1.855   3.804  0.00  0.00    +0.011 A 
ATOM      7  C   UNL     1      -7.590  -1.646   4.803  0.00  0.00    +0.001 A 
ATOM      8  C   UNL     1      -8.189  -2.719   5.455  0.00  0.00    +0.002 A 
ATOM      9  C   UNL     1      -7.889  -4.004   5.113  0.00  0.00    +0.024 A 
ATOM     10  C   UNL     1      -6.964  -4.261   4.088  0.00  0.00    +0.042 A 
ATOM     11  N   UNL     1      -6.670  -5.523   3.751  0.00  0.00    -0.281 N 
ATOM     12  C   UNL     1      -5.814  -5.852   2.804  0.00  0.00    +0.249 C 
ATOM     13  O   UNL     1      -5.604  -7.031   2.560  0.00  0.00    -0.270 OA
ATOM     14  S   UNL     1      -4.520  -2.415   1.406  0.00  0.00    -0.107 S 
ATOM     15  H   UNL     1      -7.113  -6.239   4.233  0.00  0.00    +0.155 HD
ENDROOT
BRANCH   1  17
ATOM     16  N   UNL     1      -1.397  -2.912  -0.231  0.00  0.00    -0.310 N 
ATOM     17  C   UNL     1      -2.156  -3.614   0.634  0.00  0.00    +0.230 C 
ATOM     18  O   UNL     1      -1.640  -4.177   1.576  0.00  0.00    -0.274 OA
ATOM     19  H   UNL     1      -1.811  -2.462  -0.984  0.00  0.00    +0.149 HD
BRANCH  16  20
ATOM     20  C   UNL     1       0.052  -2.828  -0.032  0.00  0.00    +0.143 C 
BRANCH  20  26
ATOM     21  C   UNL     1       0.606  -0.607  -1.056  0.00  0.00    +0.125 A 
ATOM     22  C   UNL     1       1.173   0.161  -2.063  0.00  0.00    +0.047 A 
ATOM     23  C   UNL     1       1.786  -0.454  -3.137  0.00  0.00    +0.019 A 
ATOM     24  C   UNL     1       1.835  -1.835  -3.209  0.00  0.00    +0.018 A 
ATOM     25  C   UNL     1       1.270  -2.602  -2.207  0.00  0.00    +0.024 A 
ATOM     26  C   UNL     1       0.661  -1.991  -1.128  0.00  0.00    +0.012 A 
ATOM     27 BR   UNL     1       2.675  -2.674  -4.681  0.00  0.00    -0.050 Br
BRANCH  21  29
ATOM     28  C   UNL     1      -0.017   1.425   0.010  0.00  0.00    +0.277 C 
ATOM     29  O   UNL     1       0.002  -0.004   0.002  0.00  0.00    -0.495 OA
ENDBRANCH  21  29
ENDBRANCH  20  26
ENDBRANCH  16  20
ENDBRANCH   1  17
TORSDOF 4
