REMARK  Name = ZINC66254976
REMARK  12 active torsions:
REMARK  status: ('A' for Active; 'I' for Inactive)
REMARK    1  A    between atoms: C_1  and  C_2
REMARK    2  A    between atoms: C_2  and  C_3
REMARK    3  A    between atoms: C_2  and  C_4
REMARK    4  A    between atoms: C_4  and  C_5
REMARK    5  A    between atoms: C_7  and  N_11
REMARK    6  A    between atoms: N_8  and  C_10
REMARK    7  A    between atoms: N_11  and  S_12
REMARK    8  A    between atoms: S_12  and  C_15
REMARK    9  A    between atoms: C_18  and  O_25
REMARK   10  A    between atoms: C_19  and  C_21
REMARK   11  A    between atoms: C_21  and  O_23
REMARK   12  A    between atoms: O_23  and  C_24
REMARK                            x       y       z     vdW  Elec       q    Type
REMARK                         _______ _______ _______ _____ _____    ______ ____
ROOT
ATOM      1  S   UNL     1       6.008  -2.256  -1.396  0.00  0.00    +0.073 S 
ATOM      2  O   UNL     1       5.244  -2.731  -2.495  0.00  0.00    -0.150 OA
ATOM      3  O   UNL     1       7.416  -2.430  -1.315  0.00  0.00    -0.150 OA
ENDROOT
BRANCH   1   4
ATOM      4  C   UNL     1       5.326  -2.998   0.049  0.00  0.00    +0.110 A 
ATOM      5  C   UNL     1       6.063  -3.030   1.222  0.00  0.00    +0.032 A 
ATOM      6  C   UNL     1       5.540  -3.609   2.361  0.00  0.00    +0.048 A 
ATOM      7  C   UNL     1       4.270  -4.164   2.338  0.00  0.00    +0.131 A 
ATOM      8  C   UNL     1       3.520  -4.134   1.154  0.00  0.00    +0.102 A 
ATOM      9  C   UNL     1       4.060  -3.540   0.009  0.00  0.00    +0.047 A 
BRANCH   8  10
ATOM     10  C   UNL     1       2.168  -4.721   1.117  0.00  0.00    +0.343 C 
ATOM     11  O   UNL     1       1.701  -5.233   2.115  0.00  0.00    -0.245 OA
BRANCH  10  12
ATOM     12  O   UNL     1       1.451  -4.690  -0.024  0.00  0.00    -0.464 OA
ATOM     13  C   UNL     1       0.149  -5.278   0.012  0.00  0.00    +0.280 C 
ENDBRANCH  10  12
ENDBRANCH   8  10
BRANCH   7  14
ATOM     14  O   UNL     1       3.755  -4.734   3.456  0.00  0.00    -0.506 OA
ATOM     15  H   UNL     1       3.261  -4.121   4.018  0.00  0.00    +0.292 HD
ENDBRANCH   7  14
ENDBRANCH   1   4
BRANCH   1  16
ATOM     16  N   UNL     1       5.725  -0.628  -1.290  0.00  0.00    -0.200 N 
ATOM     17  H   UNL     1       6.469  -0.011  -1.208  0.00  0.00    +0.175 HD
BRANCH  16  20
ATOM     18  C   UNL     1       2.202  -0.008  -1.508  0.00  0.00    +0.065 A 
ATOM     19  C   UNL     1       3.299  -0.871  -1.583  0.00  0.00    +0.069 A 
ATOM     20  C   UNL     1       4.420  -0.145  -1.317  0.00  0.00    +0.136 A 
ATOM     21  N   UNL     1       4.034   1.130  -1.085  0.00  0.00    -0.252 N 
ATOM     22  N   UNL     1       2.641   1.190  -1.217  0.00  0.00    -0.175 NA
ATOM     23  C   UNL     1       4.918   2.252  -0.759  0.00  0.00    +0.174 C 
BRANCH  18  24
ATOM     24  C   UNL     1       0.762  -0.389  -1.732  0.00  0.00    +0.060 C 
BRANCH  24  26
ATOM     25  C   UNL     1      -0.070   1.551  -0.396  0.00  0.00    +0.007 C 
ATOM     26  C   UNL     1      -0.070   0.026  -0.517  0.00  0.00    -0.011 C 
ATOM     27  C   UNL     1      -1.507  -0.472  -0.689  0.00  0.00    +0.007 C 
ENDBRANCH  24  26
ENDBRANCH  18  24
ENDBRANCH  16  20
ENDBRANCH   1  16
TORSDOF 8
