REMARK  Name = ZINC20617126
REMARK  11 active torsions:
REMARK  status: ('A' for Active; 'I' for Inactive)
REMARK    1  A    between atoms: C_1  and  C_2
REMARK    2  A    between atoms: C_5  and  O_29
REMARK    3  A    between atoms: C_6  and  N_8
REMARK    4  A    between atoms: C_9  and  C_11
REMARK    5  A    between atoms: N_13  and  C_28
REMARK    6  A    between atoms: C_15  and  C_16
REMARK    7  A    between atoms: N_18  and  C_19
REMARK    8  A    between atoms: C_21  and  C_27
REMARK    9  A    between atoms: C_24  and  O_25
REMARK   10  A    between atoms: O_25  and  C_26
REMARK   11  A    between atoms: O_29  and  C_30
REMARK                            x       y       z     vdW  Elec       q    Type
REMARK                         _______ _______ _______ _____ _____    ______ ____
ROOT
ATOM      1  C   UNL     1      -2.543   4.132   0.227  0.00  0.00    +0.087 A 
ATOM      2  C   UNL     1      -3.805   3.597   0.228  0.00  0.00    +0.121 A 
ATOM      3  N   UNL     1      -4.670   4.617   0.357  0.00  0.00    -0.273 N 
ATOM      4  N   UNL     1      -4.065   5.745   0.429  0.00  0.00    -0.166 NA
ATOM      5  C   UNL     1      -2.762   5.581   0.360  0.00  0.00    +0.159 A 
ATOM      6  C   UNL     1      -6.125   4.460   0.404  0.00  0.00    +0.172 C 
ENDROOT
BRANCH   1   8
ATOM      7  N   UNL     1      -1.241   2.076  -0.004  0.00  0.00    -0.278 N 
ATOM      8  C   UNL     1      -1.258   3.419   0.111  0.00  0.00    +0.252 C 
ATOM      9  O   UNL     1      -0.213   4.042   0.120  0.00  0.00    -0.270 OA
ATOM     10  H   UNL     1      -2.186   1.520  -0.091  0.00  0.00    +0.155 HD
BRANCH   7  16
ATOM     11  C   UNL     1       3.508   1.904  -1.266  0.00  0.00    +0.044 C 
ATOM     12  C   UNL     1       2.297   1.280  -0.621  0.00  0.00    -0.048 A 
ATOM     13  C   UNL     1       2.392   0.028  -0.043  0.00  0.00    +0.007 A 
ATOM     14  C   UNL     1       1.285  -0.549   0.550  0.00  0.00    +0.048 A 
ATOM     15  C   UNL     1       0.076   0.128   0.568  0.00  0.00    +0.141 A 
ATOM     16  C   UNL     1      -0.020   1.390  -0.014  0.00  0.00    +0.076 A 
ATOM     17  C   UNL     1       1.095   1.962  -0.608  0.00  0.00    +0.030 A 
BRANCH  15  18
ATOM     18  O   UNL     1      -1.014  -0.439   1.150  0.00  0.00    -0.493 OA
ATOM     19  C   UNL     1      -0.842  -1.735   1.726  0.00  0.00    +0.277 C 
ENDBRANCH  15  18
ENDBRANCH   7  16
ENDBRANCH   1   8
BRANCH   5  20
ATOM     20  C   UNL     1      -1.729   6.636   0.407  0.00  0.00    +0.269 C 
ATOM     21  O   UNL     1      -0.552   6.339   0.333  0.00  0.00    -0.268 OA
ATOM     22  N   UNL     1      -2.091   7.928   0.533  0.00  0.00    -0.277 N 
ATOM     23  H   UNL     1      -3.147   8.190   0.693  0.00  0.00    +0.155 HD
BRANCH  22  24
ATOM     24  C   UNL     1      -1.122   8.937   0.461  0.00  0.00    +0.076 A 
ATOM     25  C   UNL     1       0.064   8.714  -0.223  0.00  0.00    +0.030 A 
ATOM     26  C   UNL     1       1.018   9.712  -0.294  0.00  0.00    -0.048 A 
ATOM     27  C   UNL     1       0.794  10.932   0.317  0.00  0.00    +0.007 A 
ATOM     28  C   UNL     1      -0.386  11.161   1.000  0.00  0.00    +0.048 A 
ATOM     29  C   UNL     1      -1.350  10.169   1.071  0.00  0.00    +0.141 A 
ATOM     30  C   UNL     1       2.306   9.468  -1.038  0.00  0.00    +0.044 C 
BRANCH  29  31
ATOM     31  O   UNL     1      -2.513  10.395   1.738  0.00  0.00    -0.493 OA
ATOM     32  C   UNL     1      -2.677  11.681   2.339  0.00  0.00    +0.277 C 
ENDBRANCH  29  31
ENDBRANCH  22  24
ENDBRANCH   5  20
TORSDOF 6
