REMARK  Name = ZINC29410308
REMARK  8 active torsions:
REMARK  status: ('A' for Active; 'I' for Inactive)
REMARK    1  A    between atoms: C_1  and  C_2
REMARK    2  A    between atoms: C_5  and  N_9
REMARK    3  A    between atoms: C_6  and  C_8
REMARK    4  A    between atoms: C_13  and  C_15
REMARK    5  A    between atoms: C_15  and  C_17
REMARK    6  A    between atoms: C_15  and  S_18
REMARK    7  A    between atoms: S_18  and  C_19
REMARK    8  A    between atoms: N_23  and  C_24
REMARK                            x       y       z     vdW  Elec       q    Type
REMARK                         _______ _______ _______ _____ _____    ______ ____
ROOT
ATOM      1  N   UNL     1       1.178  -0.662  -0.013  0.00  0.00    -0.269 N 
ATOM      2  C   UNL     1       0.002  -0.004   0.006  0.00  0.00    +0.310 C 
ATOM      3  O   UNL     1      -1.042  -0.625   0.004  0.00  0.00    -0.252 OA
ATOM      4  N   UNL     1      -0.015   1.344   0.026  0.00  0.00    -0.239 N 
ATOM      5  C   UNL     1      -1.192   2.002   0.039  0.00  0.00    +0.234 C 
ATOM      6  O   UNL     1      -2.233   1.382   0.032  0.00  0.00    -0.274 OA
ATOM      7  H   UNL     1       2.121  -0.102  -0.105  0.00  0.00    +0.156 HD
ATOM      8  H   UNL     1       0.930   1.906   0.032  0.00  0.00    +0.159 HD
ENDROOT
BRANCH   1  13
ATOM      9  C   UNL     1       1.268  -6.321   0.384  0.00  0.00    +0.044 C 
ATOM     10  C   UNL     1       1.244  -4.817   0.279  0.00  0.00    -0.050 A 
ATOM     11  C   UNL     1       0.175  -4.107   0.793  0.00  0.00    +0.005 A 
ATOM     12  C   UNL     1       0.150  -2.729   0.698  0.00  0.00    +0.024 A 
ATOM     13  C   UNL     1       1.200  -2.058   0.085  0.00  0.00    +0.038 A 
ATOM     14  C   UNL     1       2.270  -2.775  -0.435  0.00  0.00    -0.029 A 
ATOM     15  C   UNL     1       2.292  -4.152  -0.331  0.00  0.00    +0.008 A 
ATOM     16  C   UNL     1       3.408  -2.051  -1.106  0.00  0.00    +0.045 C 
ENDBRANCH   1  13
BRANCH   5  17
ATOM     17  C   UNL     1      -1.212   3.509   0.061  0.00  0.00    +0.137 C 
ATOM     18  C   UNL     1      -1.096   4.042  -1.368  0.00  0.00    +0.029 C 
BRANCH  17  19
ATOM     19  S   UNL     1      -2.764   4.081   0.795  0.00  0.00    -0.074 S 
BRANCH  19  20
ATOM     20  C   UNL     1      -2.462   5.816   0.836  0.00  0.00    +0.192 A 
ATOM     21  N   UNL     1      -1.375   6.429   0.428  0.00  0.00    -0.123 NA
ATOM     22  N   UNL     1      -1.497   7.697   0.603  0.00  0.00    -0.137 NA
ATOM     23  C   UNL     1      -2.656   7.965   1.134  0.00  0.00    +0.225 A 
ATOM     24  N   UNL     1      -3.312   6.777   1.302  0.00  0.00    -0.312 N 
ATOM     25  C   UNL     1      -4.650   6.578   1.865  0.00  0.00    +0.152 C 
ENDBRANCH  19  20
ENDBRANCH  17  19
ENDBRANCH   5  17
TORSDOF 4
