REMARK  Name = ZINC39947815
REMARK  17 active torsions:
REMARK  status: ('A' for Active; 'I' for Inactive)
REMARK    1  A    between atoms: C_1  and  C_2
REMARK    2  A    between atoms: C_2  and  O_3
REMARK    3  A    between atoms: O_3  and  C_4
REMARK    4  A    between atoms: C_4  and  C_6
REMARK    5  A    between atoms: C_6  and  C_7
REMARK    6  A    between atoms: C_7  and  C_8
REMARK    7  A    between atoms: C_10  and  C_35
REMARK    8  A    between atoms: C_11  and  C_34
REMARK    9  A    between atoms: C_12  and  C_14
REMARK   10  A    between atoms: C_18  and  C_30
REMARK   11  A    between atoms: C_19  and  C_29
REMARK   12  A    between atoms: C_20  and  C_22
REMARK   13  A    between atoms: C_22  and  C_23
REMARK   14  A    between atoms: C_23  and  C_24
REMARK   15  A    between atoms: C_24  and  O_26
REMARK   16  A    between atoms: O_26  and  C_27
REMARK   17  A    between atoms: C_27  and  C_28
REMARK                            x       y       z     vdW  Elec       q    Type
REMARK                         _______ _______ _______ _____ _____    ______ ____
ROOT
ATOM      1  C   UNL     1      -5.758  -5.565  -3.151  0.00  0.00    -0.024 C 
ATOM      2  C   UNL     1      -6.118  -6.792  -3.589  0.00  0.00    +0.011 C 
ATOM      3  C   UNL     1      -6.820  -6.967  -4.790  0.00  0.00    -0.023 C 
ATOM      4  C   UNL     1      -7.168  -8.250  -5.206  0.00  0.00    +0.046 C 
ATOM      5  C   UNL     1      -7.754  -8.597  -6.452  0.00  0.00    -0.022 C 
ATOM      6  C   UNL     1      -7.923  -9.948  -6.433  0.00  0.00    -0.026 C 
ATOM      7  C   UNL     1      -7.447 -10.410  -5.197  0.00  0.00    +0.020 C 
ATOM      8  N   UNL     1      -7.004  -9.394  -4.497  0.00  0.00    -0.358 N 
ATOM      9  C   UNL     1      -8.511 -10.791  -7.535  0.00  0.00    +0.046 C 
ATOM     10  C   UNL     1      -8.118  -7.658  -7.572  0.00  0.00    +0.046 C 
ATOM     11  C   UNL     1      -7.202  -5.779  -5.635  0.00  0.00    +0.037 C 
ATOM     12  C   UNL     1      -7.385  -4.558  -4.728  0.00  0.00    +0.009 C 
ATOM     13  C   UNL     1      -6.097  -4.327  -3.937  0.00  0.00    +0.037 C 
ATOM     14  H   UNL     1      -6.620  -9.451  -3.607  0.00  0.00    +0.166 HD
ENDROOT
BRANCH   1  18
ATOM     15  C   UNL     1      -3.395  -5.252  -0.348  0.00  0.00    +0.106 C 
ATOM     16  C   UNL     1      -4.720  -5.252   0.381  0.00  0.00    -0.046 C 
ATOM     17  C   UNL     1      -5.659  -5.362  -0.552  0.00  0.00    -0.026 C 
ATOM     18  C   UNL     1      -5.025  -5.436  -1.878  0.00  0.00    +0.042 C 
ATOM     19  N   UNL     1      -3.727  -5.373  -1.774  0.00  0.00    -0.378 N 
ATOM     20  C   UNL     1      -7.143  -5.405  -0.294  0.00  0.00    +0.046 C 
ATOM     21  C   UNL     1      -4.932  -5.148   1.870  0.00  0.00    +0.041 C 
ATOM     22  H   UNL     1      -3.092  -5.401  -2.506  0.00  0.00    +0.160 HD
BRANCH  15  23
ATOM     23  C   UNL     1      -2.545  -6.442   0.100  0.00  0.00    +0.040 C 
BRANCH  23  24
ATOM     24  C   UNL     1      -1.173  -6.372  -0.576  0.00  0.00    +0.123 C 
BRANCH  24  25
ATOM     25  C   UNL     1      -0.336  -7.544  -0.134  0.00  0.00    +0.307 C 
ATOM     26  O   UNL     1      -0.788  -8.352   0.641  0.00  0.00    -0.251 OA
BRANCH  25  27
ATOM     27  O   UNL     1       0.914  -7.690  -0.603  0.00  0.00    -0.465 OA
BRANCH  27  29
ATOM     28  C   UNL     1       3.042  -8.821  -0.779  0.00  0.00    +0.048 C 
ATOM     29  C   UNL     1       1.651  -8.824  -0.142  0.00  0.00    +0.229 C 
ENDBRANCH  27  29
ENDBRANCH  25  27
ENDBRANCH  24  25
ENDBRANCH  23  24
ENDBRANCH  15  23
ENDBRANCH   1  18
BRANCH   7  30
ATOM     30  C   UNL     1      -7.440 -11.849  -4.747  0.00  0.00    +0.064 C 
BRANCH  30  31
ATOM     31  C   UNL     1      -6.842 -11.941  -3.341  0.00  0.00    +0.126 C 
BRANCH  31  32
ATOM     32  C   UNL     1      -6.835 -13.379  -2.892  0.00  0.00    +0.307 C 
ATOM     33  O   UNL     1      -7.264 -14.242  -3.620  0.00  0.00    -0.251 OA
BRANCH  32  34
ATOM     34  O   UNL     1      -6.353 -13.701  -1.681  0.00  0.00    -0.465 OA
BRANCH  34  35
ATOM     35  C   UNL     1      -6.377 -15.084  -1.320  0.00  0.00    +0.229 C 
ATOM     36  C   UNL     1      -5.791 -15.255   0.083  0.00  0.00    +0.048 C 
ENDBRANCH  34  35
ENDBRANCH  32  34
ENDBRANCH  31  32
ENDBRANCH  30  31
ENDBRANCH   7  30
TORSDOF 11
