REMARK  Name = ZINC40011152
REMARK  6 active torsions:
REMARK  status: ('A' for Active; 'I' for Inactive)
REMARK    1  A    between atoms: C_1  and  C_2
REMARK    2  A    between atoms: C_8  and  C_14
REMARK    3  A    between atoms: C_16  and  N_26
REMARK    4  A    between atoms: C_20  and  C_25
REMARK    5  A    between atoms: N_26  and  C_27
REMARK    6  A    between atoms: C_27  and  C_28
REMARK                            x       y       z     vdW  Elec       q    Type
REMARK                         _______ _______ _______ _____ _____    ______ ____
ROOT
ATOM      1  C   UNL     1       1.225  -2.435   4.349  0.00  0.00    +0.126 C 
ATOM      2  C   UNL     1       1.390  -1.763   5.724  0.00  0.00    +0.049 C 
ATOM      3  N   UNL     1       1.377  -2.895   6.666  0.00  0.00    -0.304 N 
ATOM      4  C   UNL     1       1.487  -2.913   8.026  0.00  0.00    +0.078 C 
ATOM      5  C   UNL     1       1.451  -4.075   8.710  0.00  0.00    -0.036 C 
ATOM      6  C   UNL     1       1.299  -5.291   8.021  0.00  0.00    +0.008 C 
ATOM      7  C   UNL     1       1.189  -5.292   6.670  0.00  0.00    +0.044 C 
ATOM      8  C   UNL     1       1.228  -4.059   5.958  0.00  0.00    +0.119 C 
ATOM      9  N   UNL     1       1.139  -3.866   4.656  0.00  0.00    -0.265 NA
ATOM     10  C   UNL     1       1.574  -4.070  10.211  0.00  0.00    +0.045 C 
ENDROOT
BRANCH   1  18
ATOM     11  C   UNL     1      -3.049  -4.905   0.701  0.00  0.00    +0.045 C 
ATOM     12  C   UNL     1      -3.117  -4.407   2.122  0.00  0.00    -0.029 A 
ATOM     13  C   UNL     1      -4.170  -4.753   2.908  0.00  0.00    +0.005 A 
ATOM     14  C   UNL     1      -4.294  -4.327   4.231  0.00  0.00    +0.001 A 
ATOM     15  C   UNL     1      -3.356  -3.535   4.809  0.00  0.00    +0.009 A 
ATOM     16  C   UNL     1      -2.194  -3.125   4.020  0.00  0.00    -0.007 A 
ATOM     17  C   UNL     1      -1.226  -2.330   4.559  0.00  0.00    -0.003 C 
ATOM     18  C   UNL     1      -0.059  -1.955   3.668  0.00  0.00    +0.123 C 
ATOM     19  C   UNL     1      -0.062  -2.492   2.255  0.00  0.00    +0.226 C 
ATOM     20  O   UNL     1       0.851  -2.222   1.497  0.00  0.00    -0.275 OA
ATOM     21  N   UNL     1      -1.060  -3.256   1.846  0.00  0.00    -0.284 N 
ATOM     22  C   UNL     1      -2.086  -3.594   2.627  0.00  0.00    +0.043 A 
ATOM     23  H   UNL     1      -1.044  -3.591   0.935  0.00  0.00    +0.155 HD
ENDBRANCH   1  18
BRANCH   2  24
ATOM     24  N   UNL     1       2.666  -1.040   5.797  0.00  0.00    +0.395 N 
ATOM     25  H   UNL     1       3.429  -1.700   5.758  0.00  0.00    -0.083 HD
ATOM     26  H   UNL     1       2.735  -0.400   5.020  0.00  0.00    -0.083 HD
BRANCH  24  27
ATOM     27  C   UNL     1       2.733  -0.289   7.057  0.00  0.00    -0.048 C 
BRANCH  27  28
ATOM     28  C   UNL     1       4.002   0.566   7.075  0.00  0.00    +0.101 C 
ATOM     29  C   UNL     1       4.143   1.266   8.444  0.00  0.00    +0.032 C 
ATOM     30  C   UNL     1       4.672   2.670   8.043  0.00  0.00    +0.030 C 
ATOM     31  C   UNL     1       3.946   2.884   6.691  0.00  0.00    +0.160 C 
ATOM     32  O   UNL     1       3.915   1.586   6.073  0.00  0.00    -0.378 OA
ENDBRANCH  27  28
ENDBRANCH  24  27
ENDBRANCH   2  24
TORSDOF 4
