REMARK  Name = ZINC38585784
REMARK  5 active torsions:
REMARK  status: ('A' for Active; 'I' for Inactive)
REMARK    1  A    between atoms: C_3  and  N_8
REMARK    2  A    between atoms: N_8  and  C_9
REMARK    3  A    between atoms: N_19  and  C_20
REMARK    4  A    between atoms: C_20  and  C_21
REMARK    5  A    between atoms: C_21  and  O_22
REMARK                            x       y       z     vdW  Elec       q    Type
REMARK                         _______ _______ _______ _____ _____    ______ ____
ROOT
ATOM      1  C   UNL     1       4.787   1.453   0.068  0.00  0.00    +0.239 C 
ATOM      2  N   UNL     1       5.862   2.188   0.161  0.00  0.00    -0.217 NA
ATOM      3  C   UNL     1       7.166   1.543   0.318  0.00  0.00    +0.278 C 
ATOM      4  C   UNL     1       7.029   0.200  -0.399  0.00  0.00    +0.129 C 
ATOM      5  N   UNL     1       8.024   0.124  -1.200  0.00  0.00    -0.233 NA
ATOM      6  C   UNL     1       8.703   1.288  -1.252  0.00  0.00    +0.218 C 
ATOM      7  N   UNL     1       8.252   2.196  -0.411  0.00  0.00    -0.239 NA
ATOM      8  C   UNL     1       5.821  -0.622  -0.183  0.00  0.00    +0.148 C 
ATOM      9  N   UNL     1       4.731   0.111   0.055  0.00  0.00    -0.196 NA
ATOM     10  N   UNL     1       5.819  -1.994  -0.219  0.00  0.00    -0.325 N 
ATOM     11  H   UNL     1       6.643  -2.476  -0.393  0.00  0.00    +0.148 HD
ENDROOT
BRANCH   1  12
ATOM     12  N   UNL     1       3.583   2.125  -0.021  0.00  0.00    -0.179 NA
BRANCH  12  15
ATOM     13  C   UNL     1       1.236  -0.195   1.600  0.00  0.00    +0.003 A 
ATOM     14  C   UNL     1       2.412   0.443   1.255  0.00  0.00    +0.025 A 
ATOM     15  C   UNL     1       2.394   1.478   0.329  0.00  0.00    +0.058 A 
ATOM     16  C   UNL     1       1.193   1.869  -0.247  0.00  0.00    +0.045 A 
ATOM     17  C   UNL     1       0.019   1.228   0.102  0.00  0.00    +0.043 A 
ATOM     18  C   UNL     1       0.041   0.197   1.025  0.00  0.00    +0.020 A 
ATOM     19 CL   UNL     1      -1.483   1.716  -0.618  0.00  0.00    -0.083 Cl
ENDBRANCH  12  15
ENDBRANCH   1  12
BRANCH  10  20
ATOM     20  C   UNL     1       4.574  -2.732   0.006  0.00  0.00    +0.130 C 
BRANCH  20  21
ATOM     21  C   UNL     1       4.847  -4.235  -0.087  0.00  0.00    +0.174 C 
BRANCH  21  22
ATOM     22  O   UNL     1       5.717  -4.627   0.977  0.00  0.00    -0.393 OA
ATOM     23  H   UNL     1       5.933  -5.570   0.980  0.00  0.00    +0.209 HD
ENDBRANCH  21  22
ENDBRANCH  20  21
ENDBRANCH  10  20
TORSDOF 5
