REMARK  Name = ZINC01309440
REMARK  4 active torsions:
REMARK  status: ('A' for Active; 'I' for Inactive)
REMARK    1  A    between atoms: C_4  and  C_7
REMARK    2  A    between atoms: C_7  and  C_9
REMARK    3  A    between atoms: N_28  and  C_31
REMARK    4  A    between atoms: C_33  and  N_38
REMARK                            x       y       z     vdW  Elec       q    Type
REMARK                         _______ _______ _______ _____ _____    ______ ____
ROOT
ATOM      1  C   UNL     1       3.603  -2.184  -0.049  0.00  0.00    +0.141 C 
ATOM      2  C   UNL     1       3.192  -2.709   1.343  0.00  0.00    +0.116 C 
ATOM      3  C   UNL     1       3.999  -4.025   1.524  0.00  0.00    +0.113 C 
ATOM      4  C   UNL     1       4.826  -4.148   0.233  0.00  0.00    +0.100 C 
ATOM      5  N   UNL     1       4.946  -2.783  -0.295  0.00  0.00    -0.384 NA
ATOM      6  C   UNL     1       5.878  -2.025   0.402  0.00  0.00    +0.054 C 
ATOM      7  C   UNL     1       6.969  -2.519   0.959  0.00  0.00    +0.022 C 
ATOM      8  C   UNL     1       7.225  -3.971   0.846  0.00  0.00    -0.019 A 
ATOM      9  C   UNL     1       6.162  -4.767   0.508  0.00  0.00    -0.021 A 
ATOM     10  C   UNL     1       6.362  -6.126   0.398  0.00  0.00    +0.006 A 
ATOM     11  C   UNL     1       7.613  -6.663   0.654  0.00  0.00    +0.000 A 
ATOM     12  C   UNL     1       8.668  -5.848   1.022  0.00  0.00    +0.001 A 
ATOM     13  C   UNL     1       8.476  -4.522   1.087  0.00  0.00    +0.008 A 
ATOM     14  C   UNL     1       2.927  -5.090   1.557  0.00  0.00    +0.232 C 
ATOM     15  O   UNL     1       3.124  -6.279   1.687  0.00  0.00    -0.274 OA
ATOM     16  N   UNL     1       1.726  -4.516   1.421  0.00  0.00    -0.208 N 
ATOM     17  C   UNL     1       1.752  -3.169   1.296  0.00  0.00    +0.232 C 
ATOM     18  O   UNL     1       0.789  -2.444   1.166  0.00  0.00    -0.274 OA
ATOM     19  H   UNL     1       5.152  -2.796  -1.283  0.00  0.00    +0.127 HD
ENDROOT
BRANCH  16  20
ATOM     20  C   UNL     1       0.531  -5.250   1.413  0.00  0.00    +0.064 A 
ATOM     21  C   UNL     1      -0.144  -5.493   2.601  0.00  0.00    +0.058 A 
ATOM     22  C   UNL     1      -1.321  -6.216   2.591  0.00  0.00    +0.128 A 
ATOM     23  C   UNL     1      -1.827  -6.699   1.398  0.00  0.00    +0.034 A 
ATOM     24  C   UNL     1      -1.158  -6.460   0.212  0.00  0.00    +0.024 A 
ATOM     25  C   UNL     1       0.017  -5.732   0.215  0.00  0.00    +0.063 A 
ATOM     26 CL   UNL     1       0.854  -5.425  -1.275  0.00  0.00    -0.082 Cl
BRANCH  22  27
ATOM     27  N   UNL     1      -2.041  -6.475   3.858  0.00  0.00    +0.056 N 
ATOM     28  O   UNL     1      -1.599  -6.053   4.901  0.00  0.00    -0.126 OA
ATOM     29  O   UNL     1      -3.071  -7.107   3.849  0.00  0.00    -0.126 OA
ENDBRANCH  22  27
ENDBRANCH  16  20
BRANCH   1  30
ATOM     30  C   UNL     1       3.691  -0.679  -0.038  0.00  0.00    +0.183 C 
ATOM     31  O   UNL     1       3.638  -0.077   1.012  0.00  0.00    -0.290 OA
BRANCH  30  35
ATOM     32  C   UNL     1       4.128   1.445  -3.683  0.00  0.00    +0.000 A 
ATOM     33  C   UNL     1       4.181   2.126  -2.479  0.00  0.00    +0.001 A 
ATOM     34  C   UNL     1       4.040   1.442  -1.290  0.00  0.00    +0.011 A 
ATOM     35  C   UNL     1       3.842   0.058  -1.303  0.00  0.00    +0.019 A 
ATOM     36  C   UNL     1       3.789  -0.623  -2.524  0.00  0.00    +0.011 A 
ATOM     37  C   UNL     1       3.933   0.075  -3.704  0.00  0.00    +0.001 A 
ENDBRANCH  30  35
ENDBRANCH   1  30
TORSDOF 4
