REMARK  Name = ZINC37053536
REMARK  6 active torsions:
REMARK  status: ('A' for Active; 'I' for Inactive)
REMARK    1  A    between atoms: C_1  and  C_2
REMARK    2  A    between atoms: C_7  and  N_12
REMARK    3  A    between atoms: C_9  and  C_11
REMARK    4  A    between atoms: N_12  and  S_13
REMARK    5  A    between atoms: S_13  and  C_16
REMARK    6  A    between atoms: C_19  and  N_23
REMARK                            x       y       z     vdW  Elec       q    Type
REMARK                         _______ _______ _______ _____ _____    ______ ____
ROOT
ATOM      1  S   UNL     1       0.906  -3.850   3.238  0.00  0.00    +0.060 S 
ATOM      2  O   UNL     1       1.636  -4.078   4.436  0.00  0.00    -0.153 OA
ATOM      3  O   UNL     1      -0.494  -3.608   3.234  0.00  0.00    -0.153 OA
ENDROOT
BRANCH   1   4
ATOM      4  C   UNL     1       1.177  -5.254   2.208  0.00  0.00    +0.119 A 
ATOM      5  C   UNL     1       0.102  -5.900   1.625  0.00  0.00    +0.031 A 
ATOM      6  C   UNL     1       0.311  -7.001   0.818  0.00  0.00    +0.025 A 
ATOM      7  C   UNL     1       1.603  -7.459   0.591  0.00  0.00    +0.026 A 
ATOM      8  C   UNL     1       2.681  -6.808   1.177  0.00  0.00    +0.040 A 
ATOM      9  C   UNL     1       2.466  -5.704   1.980  0.00  0.00    +0.046 A 
ATOM     10 BR   UNL     1       3.932  -4.812   2.773  0.00  0.00    -0.048 Br
BRANCH   7  11
ATOM     11  N   UNL     1       1.817  -8.572  -0.225  0.00  0.00    -0.358 N 
ATOM     12  H   UNL     1       1.064  -9.027  -0.633  0.00  0.00    +0.142 HD
ATOM     13  H   UNL     1       2.720  -8.892  -0.382  0.00  0.00    +0.142 HD
ENDBRANCH   7  11
ENDBRANCH   1   4
BRANCH   1  14
ATOM     14  N   UNL     1       1.613  -2.552   2.492  0.00  0.00    -0.187 NA
ATOM     15  H   UNL     1       2.361  -2.099   2.912  0.00  0.00    +0.148 HD
BRANCH  14  21
ATOM     16  C   UNL     1      -0.086   1.381   0.024  0.00  0.00    +0.008 C 
ATOM     17  C   UNL     1       0.247  -0.109  -0.065  0.00  0.00    -0.010 C 
ATOM     18  C   UNL     1       1.315  -0.330  -1.138  0.00  0.00    +0.003 C 
ATOM     19  C   UNL     1       1.648  -1.821  -1.227  0.00  0.00    +0.002 C 
ATOM     20  C   UNL     1       2.175  -2.307   0.125  0.00  0.00    +0.020 C 
ATOM     21  C   UNL     1       1.108  -2.086   1.198  0.00  0.00    +0.080 C 
ATOM     22  C   UNL     1       0.774  -0.596   1.287  0.00  0.00    +0.007 C 
ATOM     23  C   UNL     1      -0.293  -0.375   2.360  0.00  0.00    +0.009 C 
ENDBRANCH  14  21
ENDBRANCH   1  14
TORSDOF 4
