REMARK  Name = ZINC42196051
REMARK  4 active torsions:
REMARK  status: ('A' for Active; 'I' for Inactive)
REMARK    1  A    between atoms: C_6  and  C_7
REMARK    2  A    between atoms: C_7  and  S_8
REMARK    3  A    between atoms: S_8  and  C_10
REMARK    4  A    between atoms: C_15  and  N_20
REMARK                            x       y       z     vdW  Elec       q    Type
REMARK                         _______ _______ _______ _____ _____    ______ ____
ROOT
ATOM      1  C   UNL     1      -3.334  -1.973  -1.519  0.00  0.00    +0.198 A 
ATOM      2  N   UNL     1      -3.429  -3.330  -1.446  0.00  0.00    -0.331 N 
ATOM      3  H   UNL     1      -2.693  -3.961  -1.481  0.00  0.00    +0.168 HD
ATOM      4  C   UNL     1      -4.768  -3.641  -1.311  0.00  0.00    +0.069 A 
ATOM      5  C   UNL     1      -5.475  -4.829  -1.191  0.00  0.00    +0.050 A 
ATOM      6  C   UNL     1      -6.854  -4.795  -1.070  0.00  0.00    +0.027 A 
ATOM      7  C   UNL     1      -7.530  -3.576  -1.068  0.00  0.00    +0.025 A 
ATOM      8  C   UNL     1      -6.845  -2.401  -1.185  0.00  0.00    +0.032 A 
ATOM      9  C   UNL     1      -5.453  -2.414  -1.308  0.00  0.00    +0.090 A 
ATOM     10  N   UNL     1      -4.516  -1.437  -1.433  0.00  0.00    -0.220 NA
ENDROOT
BRANCH   6  11
ATOM     11  N   UNL     1      -7.572  -5.989  -0.950  0.00  0.00    -0.358 N 
ATOM     12  H   UNL     1      -7.104  -6.838  -0.951  0.00  0.00    +0.142 HD
ATOM     13  H   UNL     1      -8.538  -5.968  -0.865  0.00  0.00    +0.142 HD
ENDBRANCH   6  11
BRANCH   1  14
ATOM     14  S   UNL     1      -1.829  -1.075  -1.697  0.00  0.00    +0.094 S 
ATOM     15  O   UNL     1      -2.229   0.152  -2.290  0.00  0.00    -0.249 OA
BRANCH  14  16
ATOM     16  C   UNL     1      -1.293  -0.775   0.010  0.00  0.00    +0.147 C 
BRANCH  16  22
ATOM     17  C   UNL     1      -0.017   1.378   0.010  0.00  0.00    +0.005 A 
ATOM     18  C   UNL     1       1.171   2.086   0.002  0.00  0.00    +0.015 A 
ATOM     19  C   UNL     1       2.378   1.411  -0.013  0.00  0.00    +0.018 A 
ATOM     20  C   UNL     1       2.396   0.027  -0.021  0.00  0.00    +0.015 A 
ATOM     21  C   UNL     1       1.208  -0.679  -0.013  0.00  0.00    +0.005 A 
ATOM     22  C   UNL     1       0.002  -0.004   0.002  0.00  0.00    -0.035 A 
ATOM     23 BR   UNL     1       4.003   2.378  -0.024  0.00  0.00    -0.050 Br
ENDBRANCH  16  22
ENDBRANCH  14  16
ENDBRANCH   1  14
TORSDOF 4
