REMARK  Name = ZINC20294854
REMARK  6 active torsions:
REMARK  status: ('A' for Active; 'I' for Inactive)
REMARK    1  A    between atoms: C_1  and  C_2
REMARK    2  A    between atoms: C_4  and  C_8
REMARK    3  A    between atoms: C_8  and  N_9
REMARK    4  A    between atoms: C_10  and  C_12
REMARK    5  A    between atoms: C_18  and  C_21
REMARK    6  A    between atoms: C_18  and  C_22
REMARK                            x       y       z     vdW  Elec       q    Type
REMARK                         _______ _______ _______ _____ _____    ______ ____
ROOT
ATOM      1  N   UNL     1      -1.358   0.970   3.276  0.00  0.00    -0.309 N 
ATOM      2  C   UNL     1      -0.545   0.778   2.219  0.00  0.00    +0.224 C 
ATOM      3  O   UNL     1       0.492   0.163   2.355  0.00  0.00    -0.275 OA
ATOM      4  H   UNL     1      -2.298   1.528   3.152  0.00  0.00    +0.149 HD
ENDROOT
BRANCH   2   5
ATOM      5  C   UNL     1      -0.923   1.327   0.868  0.00  0.00    +0.068 C 
ATOM      6  C   UNL     1      -2.239   0.764   0.245  0.00  0.00    +0.021 C 
ATOM      7  C   UNL     1      -2.116   1.065  -1.267  0.00  0.00    +0.006 C 
ATOM      8  C   UNL     1      -0.741   1.788  -1.409  0.00  0.00    +0.000 C 
ATOM      9  C   UNL     1       0.090   1.051  -0.299  0.00  0.00    +0.025 C 
ATOM     10  C   UNL     1      -0.959   3.170  -0.719  0.00  0.00    -0.010 C 
ATOM     11  C   UNL     1      -1.071   2.852   0.766  0.00  0.00    -0.056 C 
ATOM     12  C   UNL     1      -1.254   3.699   1.748  0.00  0.00    +0.009 C 
ATOM     13  C   UNL     1       0.237   4.088  -0.977  0.00  0.00    +0.016 C 
ATOM     14  C   UNL     1      -2.249   3.819  -1.224  0.00  0.00    +0.016 C 
ENDBRANCH   2   5
BRANCH   1  15
ATOM     15  C   UNL     1      -0.991   0.436   4.590  0.00  0.00    +0.159 C 
BRANCH  15  19
ATOM     16  C   UNL     1      -5.101   0.193   7.587  0.00  0.00    +0.067 C 
ATOM     17  C   UNL     1      -3.853   0.696   6.908  0.00  0.00    +0.060 A 
ATOM     18  C   UNL     1      -3.098  -0.002   5.958  0.00  0.00    +0.049 A 
ATOM     19  C   UNL     1      -2.061   0.786   5.592  0.00  0.00    +0.053 A 
ATOM     20  N   UNL     1      -2.153   1.938   6.288  0.00  0.00    -0.280 N 
ATOM     21  H   UNL     1      -1.399   2.727   6.147  0.00  0.00    +0.189 HD
ATOM     22  N   UNL     1      -3.289   1.860   7.104  0.00  0.00    -0.179 NA
ENDBRANCH  15  19
ENDBRANCH   1  15
TORSDOF 3
