REMARK  Name = ZINC02726055
REMARK  13 active torsions:
REMARK  status: ('A' for Active; 'I' for Inactive)
REMARK    1  A    between atoms: C_1  and  C_2
REMARK    2  A    between atoms: C_3  and  N_15
REMARK    3  A    between atoms: N_6  and  C_9
REMARK    4  A    between atoms: N_7  and  C_8
REMARK    5  A    between atoms: C_16  and  C_18
REMARK    6  A    between atoms: C_18  and  S_19
REMARK    7  A    between atoms: S_19  and  C_20
REMARK    8  A    between atoms: C_23  and  C_31
REMARK    9  A    between atoms: N_24  and  C_25
REMARK   10  A    between atoms: C_31  and  C_33
REMARK   11  A    between atoms: C_31  and  N_64
REMARK   12  A    between atoms: C_34  and  N_64
REMARK   13  A    between atoms: C_35  and  N_64
REMARK                            x       y       z     vdW  Elec       q    Type
REMARK                         _______ _______ _______ _____ _____    ______ ____
ROOT
ATOM      1  C   UNL     1      -3.219   0.079  -0.895  0.00  0.00    +0.173 C 
ENDROOT
BRANCH   1   3
ATOM      2  N   UNL     1      -5.528   0.538  -0.138  0.00  0.00    -0.279 N 
ATOM      3  C   UNL     1      -4.422   0.978  -0.770  0.00  0.00    +0.228 C 
ATOM      4  O   UNL     1      -4.394   2.097  -1.238  0.00  0.00    -0.275 OA
ATOM      5  H   UNL     1      -5.579  -0.380   0.169  0.00  0.00    +0.155 HD
BRANCH   2   8
ATOM      6  C   UNL     1      -6.882   1.011   2.574  0.00  0.00    +0.067 C 
ATOM      7  C   UNL     1      -7.233   1.647   1.254  0.00  0.00    +0.059 A 
ATOM      8  C   UNL     1      -6.612   1.414   0.076  0.00  0.00    +0.121 A 
ATOM      9  C   UNL     1      -7.278   2.235  -0.936  0.00  0.00    +0.293 A 
ATOM     10  O   UNL     1      -7.001   2.292  -2.120  0.00  0.00    -0.264 OA
ATOM     11  N   UNL     1      -8.257   2.917  -0.306  0.00  0.00    -0.216 N 
ATOM     12  N   UNL     1      -8.232   2.561   1.048  0.00  0.00    -0.282 N 
ATOM     13  C   UNL     1      -9.135   3.079   2.078  0.00  0.00    +0.171 C 
BRANCH  11  14
ATOM     14  C   UNL     1      -9.141   3.822  -0.901  0.00  0.00    +0.067 A 
ATOM     15  C   UNL     1     -10.506   3.715  -0.669  0.00  0.00    +0.028 A 
ATOM     16  C   UNL     1     -11.377   4.614  -1.254  0.00  0.00    +0.002 A 
ATOM     17  C   UNL     1     -10.891   5.612  -2.079  0.00  0.00    +0.000 A 
ATOM     18  C   UNL     1      -9.533   5.717  -2.317  0.00  0.00    +0.002 A 
ATOM     19  C   UNL     1      -8.657   4.825  -1.730  0.00  0.00    +0.028 A 
ENDBRANCH  11  14
ENDBRANCH   2   8
ENDBRANCH   1   3
BRANCH   1  20
ATOM     20  S   UNL     1      -1.906   0.949  -1.787  0.00  0.00    -0.076 S 
BRANCH  20  21
ATOM     21  C   UNL     1      -0.659  -0.296  -1.789  0.00  0.00    +0.197 A 
ATOM     22  N   UNL     1      -0.753  -1.495  -1.262  0.00  0.00    -0.122 NA
ATOM     23  N   UNL     1       0.341  -2.143  -1.451  0.00  0.00    -0.135 NA
ATOM     24  C   UNL     1       1.193  -1.405  -2.104  0.00  0.00    +0.125 A 
ATOM     25  N   UNL     1       0.587  -0.200  -2.344  0.00  0.00    -0.275 N 
BRANCH  25  26
ATOM     26  C   UNL     1       1.131   0.903  -3.019  0.00  0.00    +0.050 A 
ATOM     27  C   UNL     1       1.447   0.807  -4.367  0.00  0.00    +0.026 A 
ATOM     28  C   UNL     1       1.978   1.896  -5.030  0.00  0.00    +0.002 A 
ATOM     29  C   UNL     1       2.205   3.078  -4.349  0.00  0.00    +0.000 A 
ATOM     30  C   UNL     1       1.896   3.175  -3.005  0.00  0.00    +0.002 A 
ATOM     31  C   UNL     1       1.360   2.091  -2.338  0.00  0.00    +0.026 A 
ENDBRANCH  25  26
BRANCH  24  32
ATOM     32  C   UNL     1       2.585  -1.803  -2.520  0.00  0.00    -0.003 C 
ATOM     33  C   UNL     1       3.507  -1.782  -1.299  0.00  0.00    -0.005 C 
BRANCH  32  36
ATOM     34  C   UNL     1       1.610  -3.237  -4.209  0.00  0.00    -0.096 C 
ATOM     35  C   UNL     1       3.902  -3.579  -3.508  0.00  0.00    -0.096 C 
ATOM     36  N   UNL     1       2.549  -3.174  -3.070  0.00  0.00    +0.382 N 
ATOM     37  H   UNL     1       2.229  -3.819  -2.338  0.00  0.00    -0.082 HD
ENDBRANCH  32  36
ENDBRANCH  24  32
ENDBRANCH  20  21
ENDBRANCH   1  20
TORSDOF 8
