REMARK  Name = ZINC46025622
REMARK  8 active torsions:
REMARK  status: ('A' for Active; 'I' for Inactive)
REMARK    1  A    between atoms: C_1  and  C_2
REMARK    2  A    between atoms: C_2  and  C_3
REMARK    3  A    between atoms: C_2  and  C_4
REMARK    4  A    between atoms: C_2  and  C_5
REMARK    5  A    between atoms: C_11  and  N_13
REMARK    6  A    between atoms: N_19  and  C_22
REMARK    7  A    between atoms: C_22  and  C_23
REMARK    8  A    between atoms: N_25  and  C_26
REMARK                            x       y       z     vdW  Elec       q    Type
REMARK                         _______ _______ _______ _____ _____    ______ ____
ROOT
ATOM      1  N   UNL     1       2.163   1.387  -1.334  0.00  0.00    -0.296 N 
ATOM      2  C   UNL     1       3.323   1.978  -0.984  0.00  0.00    +0.303 C 
ATOM      3  O   UNL     1       4.268   1.300  -0.631  0.00  0.00    -0.253 OA
ATOM      4  N   UNL     1       3.435   3.321  -1.027  0.00  0.00    -0.283 N 
ATOM      5  C   UNL     1       4.723   3.979  -0.761  0.00  0.00    +0.124 C 
ATOM      6  C   UNL     1       5.016   4.954  -1.907  0.00  0.00    +0.104 C 
ATOM      7  N   UNL     1       3.875   5.865  -2.075  0.00  0.00    -0.291 NA
ATOM      8  C   UNL     1       2.662   5.133  -2.462  0.00  0.00    +0.104 C 
ATOM      9  C   UNL     1       2.274   4.165  -1.346  0.00  0.00    +0.124 C 
ATOM     10  H   UNL     1       1.385   1.930  -1.540  0.00  0.00    +0.151 HD
ENDROOT
BRANCH   1  16
ATOM     11  C   UNL     1       0.632  -0.511  -1.144  0.00  0.00    +0.015 C 
ATOM     12  C   UNL     1      -0.283   0.104  -2.205  0.00  0.00    +0.006 C 
ATOM     13  C   UNL     1       0.154  -0.370  -3.592  0.00  0.00    +0.000 C 
ATOM     14  C   UNL     1       1.598   0.068  -3.849  0.00  0.00    +0.002 C 
ATOM     15  C   UNL     1       2.513  -0.547  -2.788  0.00  0.00    +0.022 C 
ATOM     16  C   UNL     1       2.076  -0.073  -1.401  0.00  0.00    +0.078 C 
BRANCH  11  18
ATOM     17  C   UNL     1       0.150   1.492   0.270  0.00  0.00    +0.011 C 
ATOM     18  C   UNL     1       0.195  -0.037   0.244  0.00  0.00    -0.033 C 
ATOM     19  C   UNL     1       1.193  -0.536   1.291  0.00  0.00    +0.011 C 
ATOM     20  C   UNL     1      -1.195  -0.594   0.558  0.00  0.00    +0.011 C 
ENDBRANCH  11  18
ENDBRANCH   1  16
BRANCH   7  21
ATOM     21  C   UNL     1       4.185   6.923  -3.046  0.00  0.00    +0.180 C 
BRANCH  21  22
ATOM     22  C   UNL     1       3.100   7.969  -3.011  0.00  0.00    +0.227 C 
ATOM     23  O   UNL     1       2.162   7.845  -2.253  0.00  0.00    -0.274 OA
ATOM     24  N   UNL     1       3.173   9.042  -3.824  0.00  0.00    -0.311 N 
ATOM     25  H   UNL     1       3.924   9.141  -4.430  0.00  0.00    +0.149 HD
BRANCH  24  26
ATOM     26  C   UNL     1       2.119  10.059  -3.790  0.00  0.00    +0.073 C 
ATOM     27  C   UNL     1       1.609  10.591  -5.131  0.00  0.00    +0.024 C 
ATOM     28  C   UNL     1       2.487  11.473  -4.242  0.00  0.00    +0.024 C 
ENDBRANCH  24  26
ENDBRANCH  21  22
ENDBRANCH   7  21
TORSDOF 5
