REMARK  Name = ZINC66467295
REMARK  7 active torsions:
REMARK  status: ('A' for Active; 'I' for Inactive)
REMARK    1  A    between atoms: C_6  and  N_7
REMARK    2  A    between atoms: N_13  and  C_14
REMARK    3  A    between atoms: N_17  and  C_19
REMARK    4  A    between atoms: C_19  and  C_20
REMARK    5  A    between atoms: C_20  and  C_22
REMARK    6  A    between atoms: C_20  and  O_28
REMARK    7  A    between atoms: C_22  and  N_23
REMARK                            x       y       z     vdW  Elec       q    Type
REMARK                         _______ _______ _______ _____ _____    ______ ____
ROOT
ATOM      1  C   UNL     1       6.323   3.150  -0.040  0.00  0.00    +0.071 A 
ATOM      2  C   UNL     1       5.377   4.185  -0.019  0.00  0.00    +0.157 A 
ATOM      3  N   UNL     1       6.015   5.327  -0.021  0.00  0.00    -0.178 NA
ATOM      4  N   UNL     1       7.391   5.064  -0.042  0.00  0.00    -0.267 N 
ATOM      5  C   UNL     1       7.557   3.715  -0.049  0.00  0.00    +0.131 A 
ENDROOT
BRANCH   1  15
ATOM      6  C   UNL     1      -0.017   1.383   0.010  0.00  0.00    +0.035 A 
ATOM      7  C   UNL     1       1.142   2.115   0.003  0.00  0.00    +0.031 A 
ATOM      8  C   UNL     1       2.402   1.473  -0.013  0.00  0.00    +0.080 A 
ATOM      9  C   UNL     1       2.382   0.060  -0.020  0.00  0.00    +0.043 A 
ATOM     10  C   UNL     1       1.217  -0.665  -0.013  0.00  0.00    +0.050 A 
ATOM     11  C   UNL     1       0.002  -0.004   0.002  0.00  0.00    +0.127 A 
ATOM     12  S   UNL     1       4.113  -0.343  -0.038  0.00  0.00    -0.052 S 
ATOM     13  C   UNL     1       4.734   1.333  -0.035  0.00  0.00    +0.164 A 
ATOM     14  N   UNL     1       3.627   2.042  -0.021  0.00  0.00    -0.225 NA
ATOM     15  N   UNL     1       6.042   1.771  -0.045  0.00  0.00    -0.291 N 
ATOM     16  H   UNL     1       6.769   1.128  -0.056  0.00  0.00    +0.154 HD
BRANCH  11  17
ATOM     17  N   UNL     1      -1.265  -0.769   0.011  0.00  0.00    +0.056 N 
ATOM     18  O   UNL     1      -2.324  -0.185   0.024  0.00  0.00    -0.126 OA
ATOM     19  O   UNL     1      -1.242  -1.978   0.004  0.00  0.00    -0.126 OA
ENDBRANCH  11  17
ENDBRANCH   1  15
BRANCH   4  20
ATOM     20  C   UNL     1       8.461   6.064  -0.051  0.00  0.00    +0.172 C 
BRANCH  20  21
ATOM     21  C   UNL     1       8.251   7.026  -1.222  0.00  0.00    +0.119 C 
BRANCH  21  22
ATOM     22  O   UNL     1       7.044   7.764  -1.022  0.00  0.00    -0.392 OA
ATOM     23  H   UNL     1       7.036   8.294  -0.213  0.00  0.00    +0.210 HD
ENDBRANCH  21  22
BRANCH  21  24
ATOM     24  C   UNL     1       9.433   7.994  -1.306  0.00  0.00    -0.045 C 
BRANCH  24  25
ATOM     25  N   UNL     1       9.231   8.916  -2.431  0.00  0.00    +0.381 N 
ATOM     26  C   UNL     1       8.100   9.835  -2.143  0.00  0.00    -0.079 C 
ATOM     27  C   UNL     1       8.371  11.036  -3.084  0.00  0.00    -0.020 C 
ATOM     28  C   UNL     1       9.911  11.165  -3.045  0.00  0.00    -0.020 C 
ATOM     29  C   UNL     1      10.419   9.781  -2.601  0.00  0.00    -0.079 C 
ATOM     30  H   UNL     1       9.053   8.399  -3.279  0.00  0.00    -0.082 HD
ENDBRANCH  24  25
ENDBRANCH  21  24
ENDBRANCH  20  21
ENDBRANCH   4  20
TORSDOF 7
