REMARK  Name = ZINC41648564
REMARK  9 active torsions:
REMARK  status: ('A' for Active; 'I' for Inactive)
REMARK    1  A    between atoms: C_1  and  N_2
REMARK    2  A    between atoms: N_2  and  C_3
REMARK    3  A    between atoms: N_2  and  C_4
REMARK    4  A    between atoms: C_4  and  C_6
REMARK    5  A    between atoms: C_4  and  C_23
REMARK    6  A    between atoms: C_6  and  N_7
REMARK    7  A    between atoms: C_8  and  C_10
REMARK    8  A    between atoms: N_12  and  C_13
REMARK    9  A    between atoms: C_16  and  N_20
REMARK                            x       y       z     vdW  Elec       q    Type
REMARK                         _______ _______ _______ _____ _____    ______ ____
ROOT
ATOM      1  N   UNL     1      -1.715   1.514  -1.212  0.00  0.00    -0.309 N 
ATOM      2  C   UNL     1      -2.236   2.255  -2.210  0.00  0.00    +0.299 C 
ATOM      3  O   UNL     1      -2.938   1.732  -3.050  0.00  0.00    -0.265 OA
ATOM      4  H   UNL     1      -1.153   1.931  -0.540  0.00  0.00    +0.149 HD
ENDROOT
BRANCH   2   5
ATOM      5  C   UNL     1      -1.949   3.719  -2.281  0.00  0.00    +0.303 C 
ATOM      6  O   UNL     1      -1.247   4.241  -1.441  0.00  0.00    -0.265 OA
ATOM      7  N   UNL     1      -2.470   4.459  -3.279  0.00  0.00    -0.276 N 
ATOM      8  H   UNL     1      -3.089   4.058  -3.910  0.00  0.00    +0.155 HD
BRANCH   7   9
ATOM      9  C   UNL     1      -2.120   5.806  -3.406  0.00  0.00    +0.052 A 
ATOM     10  C   UNL     1      -0.846   6.231  -3.051  0.00  0.00    +0.027 A 
ATOM     11  C   UNL     1      -0.503   7.563  -3.177  0.00  0.00    +0.034 A 
ATOM     12  C   UNL     1      -1.426   8.474  -3.656  0.00  0.00    +0.128 A 
ATOM     13  C   UNL     1      -2.696   8.056  -4.010  0.00  0.00    +0.054 A 
ATOM     14  C   UNL     1      -3.044   6.724  -3.893  0.00  0.00    +0.064 A 
ATOM     15 CL   UNL     1      -4.636   6.198  -4.345  0.00  0.00    -0.082 Cl
BRANCH  12  16
ATOM     16  N   UNL     1      -1.055   9.901  -3.789  0.00  0.00    +0.056 N 
ATOM     17  O   UNL     1       0.055  10.268  -3.480  0.00  0.00    -0.126 OA
ATOM     18  O   UNL     1      -1.861  10.699  -4.208  0.00  0.00    -0.126 OA
ENDBRANCH  12  16
ENDBRANCH   7   9
ENDBRANCH   2   5
BRANCH   1  19
ATOM     19  C   UNL     1      -1.996   0.078  -1.142  0.00  0.00    +0.094 C 
BRANCH  19  20
ATOM     20  C   UNL     1      -1.193  -0.544   0.002  0.00  0.00    -0.020 C 
BRANCH  20  21
ATOM     21  C   UNL     1      -1.666   0.025   1.315  0.00  0.00    -0.052 A 
ATOM     22  C   UNL     1      -0.959   1.037   1.936  0.00  0.00    +0.009 A 
ATOM     23  C   UNL     1      -1.411   1.527   3.116  0.00  0.00    +0.045 A 
ATOM     24  S   UNL     1      -2.879   0.546   3.384  0.00  0.00    -0.105 S 
ATOM     25  C   UNL     1      -2.794  -0.445   1.902  0.00  0.00    +0.047 A 
ENDBRANCH  20  21
BRANCH  20  27
ATOM     26  C   UNL     1      -0.836  -2.567  -1.237  0.00  0.00    -0.096 C 
ATOM     27  N   UNL     1      -1.386  -2.000   0.001  0.00  0.00    +0.382 N 
ATOM     28  C   UNL     1      -0.696  -2.587   1.158  0.00  0.00    -0.096 C 
ATOM     29  H   UNL     1      -2.372  -2.209   0.057  0.00  0.00    -0.082 HD
ENDBRANCH  20  27
ENDBRANCH  19  20
ENDBRANCH   1  19
TORSDOF 7
