REMARK  Name = ZINC62496595
REMARK  8 active torsions:
REMARK  status: ('A' for Active; 'I' for Inactive)
REMARK    1  A    between atoms: C_1  and  C_2
REMARK    2  A    between atoms: C_6  and  C_9
REMARK    3  A    between atoms: C_7  and  C_8
REMARK    4  A    between atoms: C_9  and  C_10
REMARK    5  A    between atoms: N_14  and  C_23
REMARK    6  A    between atoms: C_18  and  N_22
REMARK    7  A    between atoms: C_23  and  C_24
REMARK    8  A    between atoms: C_23  and  C_25
REMARK                            x       y       z     vdW  Elec       q    Type
REMARK                         _______ _______ _______ _____ _____    ______ ____
ROOT
ATOM      1  C   UNL     1      -1.511  -2.948   2.905  0.00  0.00    +0.263 C 
ATOM      2  C   UNL     1      -1.622  -3.736   4.185  0.00  0.00    +0.261 C 
ATOM      3  O   UNL     1      -1.857  -4.926   4.150  0.00  0.00    -0.271 OA
ATOM      4  N   UNL     1      -1.459  -3.113   5.372  0.00  0.00    -0.263 N 
ATOM      5  C   UNL     1      -1.313  -1.717   5.397  0.00  0.00    +0.079 A 
ATOM      6  C   UNL     1      -0.918  -1.073   6.559  0.00  0.00    +0.029 A 
ATOM      7  C   UNL     1      -0.765   0.301   6.568  0.00  0.00    +0.025 A 
ATOM      8  C   UNL     1      -1.006   1.036   5.415  0.00  0.00    +0.028 A 
ATOM      9  C   UNL     1      -1.407   0.394   4.250  0.00  0.00    +0.070 A 
ATOM     10  C   UNL     1      -1.566  -0.981   4.242  0.00  0.00    +0.145 A 
ATOM     11  O   UNL     1      -1.988  -1.617   3.117  0.00  0.00    -0.477 OA
ENDROOT
BRANCH   8  12
ATOM     12  N   UNL     1      -0.846   2.426   5.426  0.00  0.00    -0.358 N 
ATOM     13  H   UNL     1      -0.566   2.875   6.239  0.00  0.00    +0.142 HD
ATOM     14  H   UNL     1      -1.014   2.940   4.621  0.00  0.00    +0.142 HD
ENDBRANCH   8  12
BRANCH   4  15
ATOM     15  C   UNL     1      -1.434  -3.885   6.617  0.00  0.00    +0.076 C 
ATOM     16  C   UNL     1      -2.768  -4.611   6.793  0.00  0.00    +0.028 C 
ATOM     17  C   UNL     1      -0.299  -4.909   6.560  0.00  0.00    +0.028 C 
ENDBRANCH   4  15
BRANCH   1  18
ATOM     18  C   UNL     1      -0.047  -2.899   2.463  0.00  0.00    +0.089 C 
BRANCH  18  24
ATOM     19  C   UNL     1       0.169  -6.684  -0.804  0.00  0.00    +0.044 C 
ATOM     20  C   UNL     1       0.518  -6.098   0.540  0.00  0.00    -0.047 A 
ATOM     21  C   UNL     1       1.263  -6.835   1.442  0.00  0.00    +0.003 A 
ATOM     22  C   UNL     1       1.583  -6.298   2.675  0.00  0.00    +0.001 A 
ATOM     23  C   UNL     1       1.159  -5.024   3.005  0.00  0.00    +0.004 A 
ATOM     24  C   UNL     1       0.416  -4.287   2.103  0.00  0.00    -0.040 A 
ATOM     25  C   UNL     1       0.099  -4.823   0.868  0.00  0.00    -0.044 A 
ATOM     26  C   UNL     1      -0.708  -4.018  -0.118  0.00  0.00    +0.044 C 
ENDBRANCH  18  24
ENDBRANCH   1  18
TORSDOF 4
