REMARK  Name = ZINC12658309
REMARK  5 active torsions:
REMARK  status: ('A' for Active; 'I' for Inactive)
REMARK    1  A    between atoms: C_1  and  C_2
REMARK    2  A    between atoms: C_7  and  C_33
REMARK    3  A    between atoms: C_20  and  C_22
REMARK    4  A    between atoms: C_22  and  N_62
REMARK    5  A    between atoms: N_25  and  C_28
REMARK                            x       y       z     vdW  Elec       q    Type
REMARK                         _______ _______ _______ _____ _____    ______ ____
ROOT
ATOM      1  C   UNL     1       7.342   1.709  -0.464  0.00  0.00    +0.010 C 
ATOM      2  C   UNL     1       7.648   3.069   0.166  0.00  0.00    +0.021 C 
ATOM      3  C   UNL     1       8.894   3.635  -0.470  0.00  0.00    +0.006 C 
ATOM      4  C   UNL     1       8.544   4.444  -1.718  0.00  0.00    +0.001 C 
ATOM      5  C   UNL     1       7.755   5.670  -1.258  0.00  0.00    +0.010 C 
ATOM      6  C   UNL     1       6.433   5.258  -0.659  0.00  0.00    +0.003 C 
ATOM      7  C   UNL     1       6.397   3.934   0.064  0.00  0.00    +0.104 C 
ATOM      8  C   UNL     1       5.369   3.724   1.177  0.00  0.00    +0.159 C 
ATOM      9  O   UNL     1       5.166   3.187  -0.121  0.00  0.00    -0.363 OA
ATOM     10  C   UNL     1       4.502   4.858   1.680  0.00  0.00    +0.073 C 
ATOM     11  C   UNL     1       4.473   6.055   0.725  0.00  0.00    +0.183 C 
ATOM     12  C   UNL     1       5.805   6.372   0.112  0.00  0.00    +0.054 C 
ATOM     13  O   UNL     1       3.455   5.726  -0.260  0.00  0.00    -0.461 OA
ATOM     14  C   UNL     1       2.481   5.021   0.345  0.00  0.00    +0.309 C 
ATOM     15  O   UNL     1       1.349   4.907  -0.062  0.00  0.00    -0.251 OA
ATOM     16  C   UNL     1       3.020   4.393   1.614  0.00  0.00    +0.090 C 
ATOM     17  C   UNL     1       5.508   5.066  -1.863  0.00  0.00    +0.014 C 
ENDROOT
BRANCH  16  18
ATOM     18  C   UNL     1       2.942   2.867   1.530  0.00  0.00    -0.064 C 
BRANCH  18  24
ATOM     19  C   UNL     1       2.497   2.495   3.882  0.00  0.00    -0.060 C 
ATOM     20  C   UNL     1       3.093   1.942   5.178  0.00  0.00    +0.088 C 
ATOM     21  N   UNL     1       3.385   0.511   5.009  0.00  0.00    -0.320 N 
ATOM     22  C   UNL     1       4.333   0.297   3.907  0.00  0.00    +0.088 C 
ATOM     23  C   UNL     1       3.738   0.851   2.610  0.00  0.00    -0.060 C 
ATOM     24  N   UNL     1       3.469   2.293   2.787  0.00  0.00    +0.382 N 
ATOM     25  H   UNL     1       4.347   2.769   3.028  0.00  0.00    -0.082 HD
BRANCH  21  26
ATOM     26  C   UNL     1       3.862  -0.043   6.191  0.00  0.00    +0.099 A 
ATOM     27  C   UNL     1       4.197  -1.393   6.234  0.00  0.00    +0.042 A 
ATOM     28  C   UNL     1       4.670  -1.931   7.416  0.00  0.00    +0.005 A 
ATOM     29  C   UNL     1       4.793  -1.099   8.521  0.00  0.00    +0.018 A 
ATOM     30  C   UNL     1       4.442   0.231   8.408  0.00  0.00    +0.084 A 
ATOM     31  N   UNL     1       3.980   0.796   7.261  0.00  0.00    -0.350 N 
ATOM     32  H   UNL     1       3.734   1.791   7.203  0.00  0.00    +0.166 HD
ENDBRANCH  21  26
ENDBRANCH  18  24
ENDBRANCH  16  18
TORSDOF 3
