REMARK  Name = ZINC20222112
REMARK  3 active torsions:
REMARK  status: ('A' for Active; 'I' for Inactive)
REMARK    1  A    between atoms: C_1  and  C_2
REMARK    2  A    between atoms: C_15  and  N_20
REMARK    3  A    between atoms: C_17  and  O_19
REMARK                            x       y       z     vdW  Elec       q    Type
REMARK                         _______ _______ _______ _____ _____    ______ ____
ROOT
ATOM      1  C   UNL     1      -4.184   7.077  -2.258  0.00  0.00    +0.044 C 
ATOM      2  C   UNL     1      -4.396   5.610  -1.988  0.00  0.00    -0.047 A 
ATOM      3  C   UNL     1      -5.409   4.926  -2.635  0.00  0.00    +0.004 A 
ATOM      4  C   UNL     1      -5.601   3.581  -2.388  0.00  0.00    +0.010 A 
ATOM      5  C   UNL     1      -4.784   2.911  -1.492  0.00  0.00    +0.021 A 
ATOM      6  C   UNL     1      -3.771   3.593  -0.842  0.00  0.00    +0.127 A 
ATOM      7  C   UNL     1      -3.579   4.948  -1.094  0.00  0.00    +0.049 A 
ATOM      8  O   UNL     1      -2.949   2.976   0.047  0.00  0.00    -0.487 OA
ATOM      9  C   UNL     1      -2.904   1.550   0.038  0.00  0.00    +0.101 C 
ATOM     10  C   UNL     1      -2.188   1.062  -1.221  0.00  0.00    +0.046 C 
ATOM     11  C   UNL     1      -0.753   1.593  -1.232  0.00  0.00    +0.004 C 
ATOM     12  C   UNL     1      -0.013   1.086   0.008  0.00  0.00    +0.000 C 
ATOM     13  C   UNL     1      -0.729   1.579   1.267  0.00  0.00    +0.004 C 
ATOM     14  C   UNL     1      -2.164   1.048   1.279  0.00  0.00    +0.046 C 
ATOM     15  C   UNL     1      -4.340   1.015   0.050  0.00  0.00    +0.003 C 
ATOM     16  C   UNL     1      -5.023   1.442  -1.253  0.00  0.00    +0.137 C 
ENDROOT
BRANCH  15  17
ATOM     17  N   UNL     1      -5.068   1.575   1.196  0.00  0.00    +0.384 N 
ATOM     18  H   UNL     1      -6.098   1.189   1.201  0.00  0.00    -0.089 HD
ATOM     19  H   UNL     1      -5.088   2.672   1.118  0.00  0.00    -0.089 HD
ATOM     20  H   UNL     1      -4.563   1.283   2.129  0.00  0.00    -0.089 HD
ENDBRANCH  15  17
BRANCH  16  21
ATOM     21  O   UNL     1      -4.484   0.689  -2.341  0.00  0.00    -0.389 OA
ATOM     22  H   UNL     1      -4.563  -0.409  -2.343  0.00  0.00    +0.210 HD
ENDBRANCH  16  21
TORSDOF 2
