REMARK  Name = ZINC36625667
REMARK  6 active torsions:
REMARK  status: ('A' for Active; 'I' for Inactive)
REMARK    1  A    between atoms: C_1  and  C_2
REMARK    2  A    between atoms: C_3  and  C_9
REMARK    3  A    between atoms: C_9  and  C_11
REMARK    4  A    between atoms: C_11  and  N_12
REMARK    5  A    between atoms: N_15  and  N_19
REMARK    6  A    between atoms: N_19  and  C_20
REMARK                            x       y       z     vdW  Elec       q    Type
REMARK                         _______ _______ _______ _____ _____    ______ ____
ROOT
ATOM      1  N   UNL     1      -0.543   0.235  -4.873  0.00  0.00    -0.230 N 
ATOM      2  C   UNL     1       0.480   0.683  -5.629  0.00  0.00    +0.197 A 
ATOM      3  S   UNL     1       2.127   0.244  -5.466  0.00  0.00    -0.010 S 
ATOM      4  N   UNL     1      -0.030   1.539  -6.537  0.00  0.00    -0.204 N 
ATOM      5  C   UNL     1      -1.388   1.622  -6.339  0.00  0.00    +0.231 A 
ATOM      6  N   UNL     1      -1.714   0.842  -5.350  0.00  0.00    -0.133 NA
ATOM      7  N   UNL     1      -2.267   2.402  -7.077  0.00  0.00    -0.326 N 
ATOM      8  H   UNL     1      -1.934   2.952  -7.803  0.00  0.00    +0.145 HD
ATOM      9  H   UNL     1      -3.213   2.398  -6.865  0.00  0.00    +0.145 HD
ENDROOT
BRANCH   4  10
ATOM     10  N   UNL     1       0.700   2.228  -7.514  0.00  0.00    -0.218 N 
ATOM     11  H   UNL     1       1.248   2.989  -7.264  0.00  0.00    +0.176 HD
BRANCH  10  12
ATOM     12  C   UNL     1       0.639   1.821  -8.845  0.00  0.00    +0.204 A 
ATOM     13  C   UNL     1       1.296   2.394  -9.880  0.00  0.00    +0.067 A 
ATOM     14  C   UNL     1       0.946   1.665 -11.040  0.00  0.00    +0.043 A 
ATOM     15  C   UNL     1       0.101   0.694 -10.651  0.00  0.00    +0.197 A 
ATOM     16  O   UNL     1      -0.078   0.789  -9.320  0.00  0.00    -0.448 OA
ENDBRANCH  10  12
ENDBRANCH   4  10
BRANCH   1  17
ATOM     17  C   UNL     1      -0.450  -0.716  -3.763  0.00  0.00    +0.225 C 
BRANCH  17  18
ATOM     18  C   UNL     1      -0.228   0.035  -2.475  0.00  0.00    +0.185 C 
ATOM     19  O   UNL     1      -0.155   1.245  -2.484  0.00  0.00    -0.290 OA
BRANCH  18  22
ATOM     20  C   UNL     1      -0.062   1.502   0.014  0.00  0.00    +0.046 C 
ATOM     21  C   UNL     1      -0.019  -0.004   0.004  0.00  0.00    -0.022 A 
ATOM     22  C   UNL     1      -0.100  -0.700  -1.207  0.00  0.00    +0.024 A 
ATOM     23  C   UNL     1      -0.058  -2.098  -1.206  0.00  0.00    +0.012 A 
ATOM     24  C   UNL     1       0.062  -2.780  -0.014  0.00  0.00    +0.002 A 
ATOM     25  C   UNL     1       0.141  -2.086   1.181  0.00  0.00    +0.020 A 
ATOM     26  C   UNL     1       0.106  -0.701   1.188  0.00  0.00    +0.045 A 
ATOM     27 CL   UNL     1       0.214   0.159   2.692  0.00  0.00    -0.083 Cl
ENDBRANCH  18  22
ENDBRANCH  17  18
ENDBRANCH   1  17
TORSDOF 5
