REMARK  Name = ZINC63581751
REMARK  6 active torsions:
REMARK  status: ('A' for Active; 'I' for Inactive)
REMARK    1  A    between atoms: C_1  and  C_2
REMARK    2  A    between atoms: N_4  and  C_14
REMARK    3  A    between atoms: C_6  and  C_8
REMARK    4  A    between atoms: C_14  and  C_15
REMARK    5  A    between atoms: N_21  and  C_22
REMARK    6  A    between atoms: N_21  and  C_23
REMARK                            x       y       z     vdW  Elec       q    Type
REMARK                         _______ _______ _______ _____ _____    ______ ____
ROOT
ATOM      1  C   UNL     1      -0.019   1.526   0.010  0.00  0.00    +0.039 C 
ATOM      2  C   UNL     1       0.002  -0.004   0.002  0.00  0.00    +0.130 C 
ATOM      3  C   UNL     1      -1.434  -0.535   0.018  0.00  0.00    +0.116 C 
ATOM      4  N   UNL     1      -2.090  -0.120   1.267  0.00  0.00    -0.290 NA
ATOM      5  C   UNL     1      -1.353  -0.624   2.435  0.00  0.00    +0.121 C 
ATOM      6  C   UNL     1       0.082  -0.093   2.394  0.00  0.00    +0.163 C 
ATOM      7  O   UNL     1       0.694  -0.479   1.160  0.00  0.00    -0.367 OA
ENDROOT
BRANCH   6   8
ATOM      8  C   UNL     1       0.865  -0.669   3.546  0.00  0.00    -0.018 A 
ATOM      9  C   UNL     1       1.467  -1.907   3.421  0.00  0.00    +0.006 A 
ATOM     10  C   UNL     1       2.186  -2.436   4.477  0.00  0.00    +0.000 A 
ATOM     11  C   UNL     1       2.302  -1.726   5.658  0.00  0.00    +0.000 A 
ATOM     12  C   UNL     1       1.700  -0.488   5.782  0.00  0.00    +0.000 A 
ATOM     13  C   UNL     1       0.986   0.043   4.725  0.00  0.00    +0.006 A 
ENDBRANCH   6   8
BRANCH   4  14
ATOM     14  C   UNL     1      -3.490  -0.562   1.298  0.00  0.00    +0.161 C 
BRANCH  14  15
ATOM     15  C   UNL     1      -4.268   0.159   0.227  0.00  0.00    +0.150 A 
ATOM     16  N   UNL     1      -4.851   1.313   0.501  0.00  0.00    -0.198 NA
ATOM     17  C   UNL     1      -5.539   1.954  -0.442  0.00  0.00    +0.217 A 
ATOM     18  N   UNL     1      -5.638   1.431  -1.659  0.00  0.00    -0.181 NA
ATOM     19  C   UNL     1      -5.051   0.271  -1.931  0.00  0.00    +0.222 A 
ATOM     20  N   UNL     1      -4.361  -0.361  -0.984  0.00  0.00    -0.198 NA
ATOM     21  N   UNL     1      -5.152  -0.276  -3.194  0.00  0.00    -0.306 N 
ATOM     22  C   UNL     1      -5.907   0.423  -4.236  0.00  0.00    +0.132 C 
ATOM     23  C   UNL     1      -4.504  -1.555  -3.492  0.00  0.00    +0.132 C 
ATOM     24  N   UNL     1      -6.147   3.159  -0.155  0.00  0.00    -0.327 N 
ATOM     25  H   UNL     1      -6.074   3.539   0.734  0.00  0.00    +0.145 HD
ATOM     26  H   UNL     1      -6.648   3.625  -0.843  0.00  0.00    +0.145 HD
ENDBRANCH  14  15
ENDBRANCH   4  14
TORSDOF 3
