REMARK  Name = ZINC34747734
REMARK  5 active torsions:
REMARK  status: ('A' for Active; 'I' for Inactive)
REMARK    1  A    between atoms: C_2  and  C_3
REMARK    2  A    between atoms: C_3  and  N_4
REMARK    3  A    between atoms: N_22  and  C_23
REMARK    4  A    between atoms: C_23  and  C_24
REMARK    5  A    between atoms: N_26  and  C_27
REMARK                            x       y       z     vdW  Elec       q    Type
REMARK                         _______ _______ _______ _____ _____    ______ ____
ROOT
ATOM      1  N   UNL     1      -0.283  -1.738  -1.937  0.00  0.00    +0.384 N 
ATOM      2  C   UNL     1      -0.081  -2.419  -3.223  0.00  0.00    -0.059 C 
ATOM      3  C   UNL     1      -1.310  -3.277  -3.543  0.00  0.00    +0.089 C 
ATOM      4  N   UNL     1      -1.556  -4.181  -2.409  0.00  0.00    -0.304 N 
ATOM      5  C   UNL     1      -1.610  -3.600  -1.059  0.00  0.00    +0.089 C 
ATOM      6  C   UNL     1      -0.368  -2.727  -0.855  0.00  0.00    -0.059 C 
ATOM      7  C   UNL     1      -1.731  -5.528  -2.606  0.00  0.00    +0.202 A 
ATOM      8  N   UNL     1      -0.678  -6.315  -2.681  0.00  0.00    -0.208 NA
ATOM      9  C   UNL     1      -0.819  -7.623  -2.871  0.00  0.00    +0.117 A 
ATOM     10  C   UNL     1      -2.079  -8.225  -2.999  0.00  0.00    +0.076 A 
ATOM     11  C   UNL     1      -2.080  -9.682  -3.205  0.00  0.00    -0.023 A 
ATOM     12  C   UNL     1      -0.883 -10.290  -3.248  0.00  0.00    -0.004 A 
ATOM     13  S   UNL     1       0.304  -8.986  -3.025  0.00  0.00    -0.073 S 
ATOM     14  C   UNL     1      -1.008 -11.776  -3.457  0.00  0.00    +0.043 C 
ATOM     15  C   UNL     1      -2.479 -12.094  -3.112  0.00  0.00    +0.010 C 
ATOM     16  C   UNL     1      -3.167 -10.744  -3.397  0.00  0.00    +0.037 C 
ATOM     17  C   UNL     1      -3.205  -7.348  -2.912  0.00  0.00    +0.264 A 
ATOM     18  O   UNL     1      -4.339  -7.784  -3.011  0.00  0.00    -0.267 OA
ATOM     19  N   UNL     1      -2.993  -6.033  -2.714  0.00  0.00    -0.271 N 
ATOM     20  H   UNL     1      -1.139  -1.206  -1.972  0.00  0.00    -0.081 HD
ENDROOT
BRANCH   1  21
ATOM     21  C   UNL     1       0.845  -0.832  -1.683  0.00  0.00    -0.052 C 
BRANCH  21  23
ATOM     22  C   UNL     1       0.850   1.514  -2.358  0.00  0.00    +0.002 C 
ATOM     23  C   UNL     1       0.860   0.257  -2.725  0.00  0.00    -0.053 C 
ENDBRANCH  21  23
ENDBRANCH   1  21
BRANCH  19  24
ATOM     24  C   UNL     1      -4.140  -5.126  -2.619  0.00  0.00    +0.224 C 
BRANCH  24  25
ATOM     25  C   UNL     1      -4.569  -4.712  -4.003  0.00  0.00    +0.237 C 
ATOM     26  O   UNL     1      -3.976  -5.133  -4.973  0.00  0.00    -0.274 OA
ATOM     27  N   UNL     1      -5.613  -3.874  -4.163  0.00  0.00    -0.283 N 
ATOM     28  H   UNL     1      -6.037  -3.475  -3.387  0.00  0.00    +0.155 HD
BRANCH  27  29
ATOM     29  C   UNL     1      -6.083  -3.581  -5.444  0.00  0.00    +0.041 A 
ATOM     30  C   UNL     1      -5.878  -4.467  -6.480  0.00  0.00    +0.024 A 
ATOM     31  C   UNL     1      -6.343  -4.185  -7.761  0.00  0.00    +0.002 A 
ATOM     32  C   UNL     1      -7.012  -3.029  -8.027  0.00  0.00    +0.008 A 
ATOM     33  C   UNL     1      -7.243  -2.100  -6.999  0.00  0.00    -0.016 A 
ATOM     34  C   UNL     1      -6.779  -2.378  -5.689  0.00  0.00    +0.003 A 
ATOM     35  C   UNL     1      -7.014  -1.450  -4.662  0.00  0.00    +0.010 A 
ATOM     36  C   UNL     1      -7.688  -0.299  -4.936  0.00  0.00    +0.001 A 
ATOM     37  C   UNL     1      -8.150  -0.027  -6.222  0.00  0.00    +0.001 A 
ATOM     38  C   UNL     1      -7.931  -0.898  -7.244  0.00  0.00    +0.008 A 
ENDBRANCH  27  29
ENDBRANCH  24  25
ENDBRANCH  19  24
TORSDOF 5
