REMARK  Name = ZINC12464288
REMARK  8 active torsions:
REMARK  status: ('A' for Active; 'I' for Inactive)
REMARK    1  A    between atoms: C_1  and  C_2
REMARK    2  A    between atoms: C_2  and  O_3
REMARK    3  A    between atoms: O_3  and  C_4
REMARK    4  A    between atoms: C_9  and  N_12
REMARK    5  A    between atoms: C_13  and  C_15
REMARK    6  A    between atoms: C_15  and  C_16
REMARK    7  A    between atoms: C_23  and  C_24
REMARK    8  A    between atoms: C_23  and  N_56
REMARK                            x       y       z     vdW  Elec       q    Type
REMARK                         _______ _______ _______ _____ _____    ______ ____
ROOT
ATOM      1  C   UNL     1      -3.917   2.405   1.171  0.00  0.00    +0.089 C 
ENDROOT
BRANCH   1   2
ATOM      2  C   UNL     1      -2.668   3.146   1.653  0.00  0.00    +0.028 C 
ATOM      3  C   UNL     1      -1.500   2.201   1.660  0.00  0.00    +0.200 C 
ATOM      4  O   UNL     1      -1.665   1.077   2.083  0.00  0.00    -0.278 OA
ATOM      5  N   UNL     1      -0.286   2.549   1.220  0.00  0.00    -0.318 N 
ATOM      6  C   UNL     1       0.009   3.864   0.659  0.00  0.00    +0.085 C 
ATOM      7  C   UNL     1      -1.079   4.862   1.062  0.00  0.00    -0.058 C 
ATOM      8  H   UNL     1       0.431   1.898   1.276  0.00  0.00    +0.149 HD
ATOM      9  N   UNL     1      -2.390   4.266   0.734  0.00  0.00    +0.392 N 
ATOM     10  H   UNL     1      -2.366   3.911  -0.230  0.00  0.00    -0.080 HD
BRANCH   9  11
ATOM     11  C   UNL     1      -3.455   5.288   0.844  0.00  0.00    -0.034 C 
BRANCH  11  12
ATOM     12  C   UNL     1      -3.404   6.178  -0.372  0.00  0.00    -0.027 A 
ATOM     13  C   UNL     1      -4.036   6.034  -1.562  0.00  0.00    +0.009 A 
ATOM     14  C   UNL     1      -3.843   6.988  -2.543  0.00  0.00    +0.008 A 
ATOM     15  C   UNL     1      -3.028   8.040  -2.286  0.00  0.00    +0.045 A 
ATOM     16  S   UNL     1      -2.502   7.699  -0.615  0.00  0.00    -0.103 S 
ENDBRANCH  11  12
ENDBRANCH   9  11
ENDBRANCH   1   2
BRANCH   1  18
ATOM     17  N   UNL     1      -4.611   1.105  -0.815  0.00  0.00    -0.312 N 
ATOM     18  C   UNL     1      -3.688   1.892  -0.227  0.00  0.00    +0.212 C 
ATOM     19  O   UNL     1      -2.674   2.187  -0.823  0.00  0.00    -0.276 OA
ATOM     20  H   UNL     1      -5.422   0.869  -0.339  0.00  0.00    +0.149 HD
BRANCH  17  26
ATOM     21  C   UNL     1      -6.079  -0.399  -5.781  0.00  0.00    +0.403 C 
ATOM     22  O   UNL     1      -6.602  -1.490  -5.901  0.00  0.00    -0.226 OA
ATOM     23  N   UNL     1      -5.227  -0.169  -4.763  0.00  0.00    -0.267 N 
ATOM     24  C   UNL     1      -4.920  -1.225  -3.789  0.00  0.00    +0.113 C 
ATOM     25  C   UNL     1      -5.182  -0.688  -2.379  0.00  0.00    +0.041 C 
ATOM     26  C   UNL     1      -4.389   0.605  -2.175  0.00  0.00    +0.076 C 
ATOM     27  C   UNL     1      -4.853   1.656  -3.186  0.00  0.00    +0.041 C 
ATOM     28  C   UNL     1      -4.587   1.145  -4.606  0.00  0.00    +0.113 C 
BRANCH  21  29
ATOM     29  O   UNL     1      -6.351   0.578  -6.666  0.00  0.00    -0.451 OA
BRANCH  29  31
ATOM     30  C   UNL     1      -7.461   1.483  -8.635  0.00  0.00    +0.048 C 
ATOM     31  C   UNL     1      -7.278   0.258  -7.737  0.00  0.00    +0.230 C 
ENDBRANCH  29  31
ENDBRANCH  21  29
ENDBRANCH  17  26
ENDBRANCH   1  18
TORSDOF 7
