REMARK  Name = ZINC63136814
REMARK  8 active torsions:
REMARK  status: ('A' for Active; 'I' for Inactive)
REMARK    1  A    between atoms: C_1  and  O_2
REMARK    2  A    between atoms: O_2  and  C_3
REMARK    3  A    between atoms: C_9  and  C_12
REMARK    4  A    between atoms: C_12  and  C_13
REMARK    5  A    between atoms: C_13  and  N_14
REMARK    6  A    between atoms: C_15  and  C_17
REMARK    7  A    between atoms: C_17  and  N_18
REMARK    8  A    between atoms: C_22  and  C_23
REMARK                            x       y       z     vdW  Elec       q    Type
REMARK                         _______ _______ _______ _____ _____    ______ ____
ROOT
ATOM      1  N   UNL     1       2.665  -5.997   0.071  0.00  0.00    -0.314 N 
ATOM      2  C   UNL     1       3.335  -6.732  -0.839  0.00  0.00    +0.231 C 
ATOM      3  O   UNL     1       4.479  -6.449  -1.123  0.00  0.00    -0.274 OA
ATOM      4  H   UNL     1       1.750  -6.223   0.298  0.00  0.00    +0.149 HD
ENDROOT
BRANCH   1   5
ATOM      5  C   UNL     1       3.321  -4.857   0.717  0.00  0.00    +0.108 C 
BRANCH   5   6
ATOM      6  C   UNL     1       2.349  -4.200   1.699  0.00  0.00    +0.052 C 
BRANCH   6  13
ATOM      7  C   UNL     1       2.376   0.296   0.762  0.00  0.00    +0.121 A 
ATOM      8  C   UNL     1       3.147   1.071   1.646  0.00  0.00    +0.047 A 
ATOM      9  C   UNL     1       3.823   0.534   2.684  0.00  0.00    +0.029 A 
ATOM     10  C   UNL     1       3.766  -0.912   2.919  0.00  0.00    +0.043 A 
ATOM     11  N   UNL     1       4.315  -1.674   3.832  0.00  0.00    -0.380 N 
ATOM     12  C   UNL     1       3.914  -3.063   3.586  0.00  0.00    +0.144 C 
ATOM     13  C   UNL     1       3.023  -3.027   2.364  0.00  0.00    -0.040 C 
ATOM     14  C   UNL     1       2.954  -1.730   1.989  0.00  0.00    +0.002 A 
ATOM     15  C   UNL     1       2.254  -1.046   0.896  0.00  0.00    +0.055 A 
ATOM     16  H   UNL     1       4.891  -1.370   4.551  0.00  0.00    +0.160 HD
BRANCH   7  18
ATOM     17  C   UNL     1       1.883   2.333  -0.361  0.00  0.00    +0.277 C 
ATOM     18  O   UNL     1       1.727   0.916  -0.258  0.00  0.00    -0.495 OA
ENDBRANCH   7  18
ENDBRANCH   6  13
ENDBRANCH   5   6
ENDBRANCH   1   5
BRANCH   2  19
ATOM     19  C   UNL     1       2.660  -7.904  -1.504  0.00  0.00    +0.210 C 
BRANCH  19  20
ATOM     20  N   UNL     1       3.591  -8.534  -2.445  0.00  0.00    -0.246 N 
ATOM     21  C   UNL     1       3.629  -8.118  -3.699  0.00  0.00    +0.259 C 
ATOM     22  O   UNL     1       2.903  -7.219  -4.084  0.00  0.00    -0.269 OA
ATOM     23  C   UNL     1       4.548  -8.754  -4.588  0.00  0.00    +0.078 C 
ATOM     24  C   UNL     1       4.780  -8.516  -5.910  0.00  0.00    +0.035 C 
ATOM     25  S   UNL     1       5.310  -9.946  -3.496  0.00  0.00    -0.061 S 
ATOM     26  C   UNL     1       4.401  -9.527  -2.016  0.00  0.00    +0.121 C 
ATOM     27  S   UNL     1       4.523 -10.212  -0.452  0.00  0.00    -0.027 S 
BRANCH  24  28
ATOM     28  C   UNL     1       3.938  -7.637  -6.630  0.00  0.00    +0.013 A 
ATOM     29  C   UNL     1       4.255  -6.781  -7.680  0.00  0.00    +0.015 A 
ATOM     30  C   UNL     1       3.210  -6.043  -8.181  0.00  0.00    +0.008 A 
ATOM     31  C   UNL     1       1.976  -6.191  -7.638  0.00  0.00    +0.046 A 
ATOM     32  S   UNL     1       2.191  -7.343  -6.433  0.00  0.00    -0.097 S 
ENDBRANCH  24  28
ENDBRANCH  19  20
ENDBRANCH   2  19
TORSDOF 7
