REMARK  Name = ZINC62811323
REMARK  5 active torsions:
REMARK  status: ('A' for Active; 'I' for Inactive)
REMARK    1  A    between atoms: C_1  and  N_2
REMARK    2  A    between atoms: N_2  and  C_3
REMARK    3  A    between atoms: C_3  and  C_4
REMARK    4  A    between atoms: C_15  and  C_17
REMARK    5  A    between atoms: C_18  and  N_23
REMARK                            x       y       z     vdW  Elec       q    Type
REMARK                         _______ _______ _______ _____ _____    ______ ____
ROOT
ATOM      1  C   UNL     1      -0.036   1.461   0.011  0.00  0.00    +0.132 C 
ATOM      2  N   UNL     1      -0.003  -0.004   0.002  0.00  0.00    -0.296 N 
ATOM      3  C   UNL     1      -0.102  -0.673  -1.163  0.00  0.00    +0.268 C 
ATOM      4  O   UNL     1      -0.172  -1.887  -1.163  0.00  0.00    -0.268 OA
ENDROOT
BRANCH   3   5
ATOM      5  C   UNL     1      -0.124   0.067  -2.439  0.00  0.00    +0.167 A 
ATOM      6  C   UNL     1      -0.333  -0.484  -3.729  0.00  0.00    +0.075 A 
ATOM      7  C   UNL     1      -0.268   0.569  -4.587  0.00  0.00    +0.128 A 
ATOM      8  N   UNL     1      -0.034   1.679  -3.838  0.00  0.00    -0.282 N 
ATOM      9  H   UNL     1       0.059   2.578  -4.191  0.00  0.00    +0.188 HD
ATOM     10  N   UNL     1       0.041   1.367  -2.594  0.00  0.00    -0.167 NA
BRANCH   6  11
ATOM     11  N   UNL     1      -0.558  -1.830  -4.053  0.00  0.00    -0.355 N 
ATOM     12  H   UNL     1      -0.583  -2.499  -3.351  0.00  0.00    +0.142 HD
ATOM     13  H   UNL     1      -0.688  -2.091  -4.978  0.00  0.00    +0.142 HD
ENDBRANCH   6  11
ENDBRANCH   3   5
BRANCH   2  14
ATOM     14  C   UNL     1       0.138  -0.741   1.260  0.00  0.00    +0.155 C 
BRANCH  14  15
ATOM     15  C   UNL     1      -1.249  -1.031   1.839  0.00  0.00    +0.228 C 
ATOM     16  C   UNL     1      -1.108  -1.791   3.165  0.00  0.00    +0.275 C 
ATOM     17  O   UNL     1      -2.420  -2.033   3.685  0.00  0.00    -0.485 OA
ATOM     18  C   UNL     1      -3.284  -0.982   3.677  0.00  0.00    +0.162 A 
ATOM     19  C   UNL     1      -4.418  -1.027   4.474  0.00  0.00    +0.049 A 
ATOM     20  C   UNL     1      -5.307   0.031   4.473  0.00  0.00    +0.004 A 
ATOM     21  C   UNL     1      -5.069   1.137   3.679  0.00  0.00    +0.004 A 
ATOM     22  C   UNL     1      -3.940   1.190   2.884  0.00  0.00    +0.049 A 
ATOM     23  C   UNL     1      -3.043   0.132   2.881  0.00  0.00    +0.163 A 
ATOM     24  O   UNL     1      -1.931   0.201   2.098  0.00  0.00    -0.480 OA
ENDBRANCH  14  15
ENDBRANCH   2  14
TORSDOF 4
