REMARK  Name = ZINC32095521
REMARK  5 active torsions:
REMARK  status: ('A' for Active; 'I' for Inactive)
REMARK    1  A    between atoms: C_1  and  C_2
REMARK    2  A    between atoms: C_10  and  O_13
REMARK    3  A    between atoms: O_13  and  C_14
REMARK    4  A    between atoms: C_16  and  O_25
REMARK    5  A    between atoms: C_18  and  C_20
REMARK                            x       y       z     vdW  Elec       q    Type
REMARK                         _______ _______ _______ _____ _____    ______ ____
ROOT
ATOM      1  C   UNL     1      -0.018   1.503   0.010  0.00  0.00    +0.068 C 
ATOM      2  C   UNL     1       0.002  -0.004   0.002  0.00  0.00    +0.066 A 
ATOM      3  C   UNL     1       0.008  -0.806  -1.124  0.00  0.00    +0.028 A 
ATOM      4  C   UNL     1       0.032  -2.129  -0.706  0.00  0.00    +0.165 A 
ATOM      5  N   UNL     1       0.034  -2.119   0.648  0.00  0.00    -0.194 N 
ATOM      6  N   UNL     1       0.023  -0.778   1.064  0.00  0.00    -0.168 NA
ATOM      7  C   UNL     1       0.049  -3.242   1.482  0.00  0.00    +0.178 A 
ATOM      8  C   UNL     1       0.554  -3.144   2.778  0.00  0.00    +0.055 A 
ATOM      9  C   UNL     1       0.548  -4.282   3.566  0.00  0.00    +0.072 A 
ATOM     10  C   UNL     1       0.036  -5.456   3.014  0.00  0.00    +0.234 A 
ATOM     11  N   UNL     1      -0.423  -5.455   1.774  0.00  0.00    -0.110 NA
ATOM     12  N   UNL     1      -0.422  -4.398   1.045  0.00  0.00    -0.126 NA
ATOM     13  N   UNL     1       0.057  -3.160  -1.598  0.00  0.00    -0.197 NA
ATOM     14  C   UNL     1       0.344  -2.913  -2.841  0.00  0.00    +0.190 C 
ATOM     15  C   UNL     1       0.717  -1.552  -3.353  0.00  0.00    +0.109 C 
ATOM     16  C   UNL     1      -0.012  -0.441  -2.587  0.00  0.00    +0.070 C 
ENDROOT
BRANCH  16  17
ATOM     17  C   UNL     1       0.697   0.872  -2.796  0.00  0.00    -0.002 A 
ATOM     18  C   UNL     1       0.214   2.032  -3.304  0.00  0.00    +0.012 A 
ATOM     19  C   UNL     1       1.056   3.123  -3.403  0.00  0.00    +0.008 A 
ATOM     20  C   UNL     1       2.341   3.002  -2.988  0.00  0.00    +0.045 A 
ATOM     21  S   UNL     1       2.390   1.307  -2.430  0.00  0.00    -0.101 S 
ENDBRANCH  16  17
BRANCH  10  22
ATOM     22  O   UNL     1       0.010  -6.597   3.749  0.00  0.00    -0.479 OA
ATOM     23  C   UNL     1      -0.529  -7.761   3.119  0.00  0.00    +0.279 C 
ENDBRANCH  10  22
BRANCH  14  24
ATOM     24  O   UNL     1       0.306  -3.936  -3.719  0.00  0.00    -0.495 OA
ATOM     25  H   UNL     1       0.060  -4.784  -3.325  0.00  0.00    +0.293 HD
ENDBRANCH  14  24
TORSDOF 3
