REMARK  Name = ZINC39674877
REMARK  9 active torsions:
REMARK  status: ('A' for Active; 'I' for Inactive)
REMARK    1  A    between atoms: C_1  and  C_2
REMARK    2  A    between atoms: C_4  and  C_14
REMARK    3  A    between atoms: C_7  and  C_12
REMARK    4  A    between atoms: C_14  and  C_15
REMARK    5  A    between atoms: C_15  and  N_16
REMARK    6  A    between atoms: C_17  and  C_19
REMARK    7  A    between atoms: C_30  and  C_32
REMARK    8  A    between atoms: C_35  and  C_39
REMARK    9  A    between atoms: N_36  and  C_38
REMARK                            x       y       z     vdW  Elec       q    Type
REMARK                         _______ _______ _______ _____ _____    ______ ____
ROOT
ATOM      1  C   UNL     1       1.375  -1.007  -7.406  0.00  0.00    +0.100 C 
ATOM      2  C   UNL     1       0.059  -1.740  -7.748  0.00  0.00    +0.121 C 
ATOM      3  N   UNL     1       0.251  -2.228  -9.134  0.00  0.00    -0.299 N 
ATOM      4  C   UNL     1       1.663  -2.675  -9.175  0.00  0.00    +0.115 C 
ATOM      5  C   UNL     1       2.426  -1.624  -8.344  0.00  0.00    -0.004 C 
ATOM      6  C   UNL     1       3.012  -0.553  -9.258  0.00  0.00    -0.010 C 
ATOM      7  C   UNL     1       4.094  -1.179 -10.142  0.00  0.00    -0.082 C 
ATOM      8  N   UNL     1       5.145  -1.757  -9.296  0.00  0.00    +0.379 N 
ATOM      9  C   UNL     1       4.592  -2.850  -8.487  0.00  0.00    -0.082 C 
ATOM     10  C   UNL     1       3.531  -2.294  -7.533  0.00  0.00    -0.010 C 
ATOM     11  C   UNL     1      -0.654  -2.257 -10.132  0.00  0.00    +0.238 C 
ATOM     12  O   UNL     1      -0.342  -2.690 -11.221  0.00  0.00    -0.273 OA
ATOM     13  H   UNL     1       5.886  -2.115  -9.881  0.00  0.00    -0.086 HD
ATOM     14  H   UNL     1       5.516  -1.043  -8.688  0.00  0.00    -0.086 HD
ENDROOT
BRANCH  11  15
ATOM     15  C   UNL     1      -2.054  -1.752  -9.895  0.00  0.00    +0.183 C 
ATOM     16  C   UNL     1      -2.751  -2.595  -8.848  0.00  0.00    +0.022 C 
ATOM     17  C   UNL     1      -3.800  -3.138  -9.432  0.00  0.00    +0.017 C 
ATOM     18  N   UNL     1      -3.899  -2.762 -10.757  0.00  0.00    -0.274 N 
ATOM     19  N   UNL     1      -2.877  -1.922 -11.109  0.00  0.00    -0.225 NA
ATOM     20  C   UNL     1      -4.958  -3.204 -11.667  0.00  0.00    +0.149 C 
ATOM     21  C   UNL     1      -4.772  -4.057  -8.739  0.00  0.00    +0.061 C 
ATOM     22  H   UNL     1      -2.332  -2.311 -11.864  0.00  0.00    +0.146 HD
ENDBRANCH  11  15
BRANCH   1  24
ATOM     23  N   UNL     1       2.466  -0.325  -5.293  0.00  0.00    -0.315 N 
ATOM     24  C   UNL     1       1.751  -1.248  -5.966  0.00  0.00    +0.218 C 
ATOM     25  O   UNL     1       1.411  -2.273  -5.414  0.00  0.00    -0.275 OA
ATOM     26  H   UNL     1       2.739   0.494  -5.735  0.00  0.00    +0.149 HD
BRANCH  23  27
ATOM     27  C   UNL     1       2.832  -0.559  -3.894  0.00  0.00    +0.108 C 
BRANCH  27  28
ATOM     28  C   UNL     1       3.635   0.633  -3.370  0.00  0.00    +0.052 C 
BRANCH  28  31
ATOM     29  C   UNL     1       6.201   1.542  -1.612  0.00  0.00    +0.035 C 
ATOM     30  C   UNL     1       4.804   1.313  -1.032  0.00  0.00    +0.103 C 
ATOM     31  C   UNL     1       4.011   0.392  -1.931  0.00  0.00    -0.037 C 
ATOM     32  C   UNL     1       3.707  -0.696  -1.179  0.00  0.00    +0.000 A 
ATOM     33  C   UNL     1       2.986  -1.882  -1.477  0.00  0.00    +0.028 A 
ATOM     34  C   UNL     1       2.818  -2.849  -0.513  0.00  0.00    +0.052 A 
ATOM     35  C   UNL     1       3.371  -2.686   0.827  0.00  0.00    +0.021 A 
ATOM     36  C   UNL     1       4.065  -1.581   1.167  0.00  0.00    +0.027 A 
ATOM     37  C   UNL     1       4.272  -0.518   0.177  0.00  0.00    +0.043 A 
ATOM     38  N   UNL     1       4.899   0.631   0.263  0.00  0.00    -0.378 N 
ATOM     39  H   UNL     1       5.351   0.973   1.050  0.00  0.00    +0.160 HD
BRANCH  34  40
ATOM     40  C   UNL     1       2.087  -4.039  -0.832  0.00  0.00    +0.099 C 
ATOM     41  N   UNL     1       1.508  -4.982  -1.084  0.00  0.00    -0.191 NA
ENDBRANCH  34  40
ENDBRANCH  28  31
ENDBRANCH  27  28
ENDBRANCH  23  27
ENDBRANCH   1  24
TORSDOF 6
