REMARK  Name = ZINC05282899
REMARK  4 active torsions:
REMARK  status: ('A' for Active; 'I' for Inactive)
REMARK    1  A    between atoms: N_11  and  C_12
REMARK    2  A    between atoms: C_15  and  N_51
REMARK    3  A    between atoms: C_18  and  C_23
REMARK    4  A    between atoms: C_18  and  N_51
REMARK                            x       y       z     vdW  Elec       q    Type
REMARK                         _______ _______ _______ _____ _____    ______ ____
ROOT
ATOM      1  C   UNL     1      -2.211   5.949  -0.563  0.00  0.00    +0.094 C 
ATOM      2  C   UNL     1      -1.144   7.027  -0.366  0.00  0.00    +0.022 C 
ATOM      3  C   UNL     1      -1.411   8.189  -1.325  0.00  0.00    -0.014 C 
ATOM      4  C   UNL     1      -2.792   8.780  -1.038  0.00  0.00    -0.070 C 
ATOM      5  C   UNL     1      -3.860   7.702  -1.235  0.00  0.00    -0.014 C 
ATOM      6  C   UNL     1      -3.593   6.540  -0.276  0.00  0.00    +0.022 C 
ENDROOT
BRANCH   1  15
ATOM      7  C   UNL     1      -0.013   1.086   0.008  0.00  0.00    +0.002 C 
ATOM      8  C   UNL     1      -0.729   1.580  -1.244  0.00  0.00    +0.002 C 
ATOM      9  C   UNL     1      -0.926   3.107  -1.236  0.00  0.00    +0.026 C 
ATOM     10  C   UNL     1      -1.690   3.441   0.025  0.00  0.00    +0.121 C 
ATOM     11  C   UNL     1      -0.750   3.079   1.211  0.00  0.00    +0.151 C 
ATOM     12  C   UNL     1      -0.712   1.572   1.294  0.00  0.00    +0.030 C 
ATOM     13  N   UNL     1      -1.305   3.874   2.282  0.00  0.00    -0.166 NA
ATOM     14  N   UNL     1      -1.897   4.854   1.779  0.00  0.00    -0.083 NA
ATOM     15  N   UNL     1      -1.956   4.836   0.355  0.00  0.00    -0.230 N 
ENDBRANCH   1  15
BRANCH   4  16
ATOM     16  N   UNL     1      -3.054   9.895  -1.968  0.00  0.00    +0.393 N 
ATOM     17  H   UNL     1      -4.068  10.011  -2.081  0.00  0.00    -0.083 HD
ATOM     18  H   UNL     1      -2.631   9.683  -2.879  0.00  0.00    -0.083 HD
BRANCH  16  19
ATOM     19  C   UNL     1      -2.476  11.146  -1.443  0.00  0.00    +0.022 C 
ATOM     20  C   UNL     1      -3.139  11.517  -0.101  0.00  0.00    +0.002 C 
ATOM     21  C   UNL     1      -3.251  13.062  -0.147  0.00  0.00    -0.000 C 
ATOM     22  C   UNL     1      -3.606  13.336  -1.630  0.00  0.00    -0.000 C 
ATOM     23  C   UNL     1      -2.772  12.302  -2.415  0.00  0.00    +0.002 C 
BRANCH  19  24
ATOM     24  C   UNL     1      -1.022  10.998  -1.263  0.00  0.00    +0.050 C 
ATOM     25  N   UNL     1       0.099  10.884  -1.124  0.00  0.00    -0.198 NA
ENDBRANCH  19  24
ENDBRANCH  16  19
ENDBRANCH   4  16
TORSDOF 4
