REMARK  Name = ZINC05282814
REMARK  4 active torsions:
REMARK  status: ('A' for Active; 'I' for Inactive)
REMARK    1  A    between atoms: C_4  and  N_7
REMARK    2  A    between atoms: C_12  and  N_55
REMARK    3  A    between atoms: C_19  and  N_55
REMARK    4  A    between atoms: C_26  and  N_28
REMARK                            x       y       z     vdW  Elec       q    Type
REMARK                         _______ _______ _______ _____ _____    ______ ____
ROOT
ATOM      1  N   UNL     1      -1.167  -4.085  -5.444  0.00  0.00    -0.230 N 
ATOM      2  C   UNL     1      -1.040  -3.181  -4.306  0.00  0.00    +0.120 C 
ATOM      3  C   UNL     1      -0.555  -1.764  -4.539  0.00  0.00    +0.025 C 
ATOM      4  C   UNL     1      -0.633  -1.052  -3.174  0.00  0.00    -0.014 C 
ATOM      5  C   UNL     1      -2.046  -1.074  -2.601  0.00  0.00    -0.069 C 
ATOM      6  C   UNL     1      -2.622  -2.502  -2.542  0.00  0.00    +0.015 C 
ATOM      7  C   UNL     1      -2.547  -3.061  -3.939  0.00  0.00    +0.150 C 
ATOM      8  N   UNL     1      -3.035  -4.384  -4.250  0.00  0.00    -0.166 NA
ATOM      9  N   UNL     1      -2.286  -4.886  -5.117  0.00  0.00    -0.083 NA
ENDROOT
BRANCH   1  13
ATOM     10  C   UNL     1       0.319  -5.345  -9.239  0.00  0.00    +0.000 C 
ATOM     11  C   UNL     1       1.183  -5.600  -8.002  0.00  0.00    +0.002 C 
ATOM     12  C   UNL     1       0.310  -5.534  -6.748  0.00  0.00    +0.024 C 
ATOM     13  C   UNL     1      -0.331  -4.148  -6.645  0.00  0.00    +0.095 C 
ATOM     14  C   UNL     1      -1.195  -3.893  -7.882  0.00  0.00    +0.024 C 
ATOM     15  C   UNL     1      -0.322  -3.959  -9.136  0.00  0.00    +0.002 C 
ENDBRANCH   1  13
BRANCH   5  16
ATOM     16  N   UNL     1      -2.020  -0.519  -1.235  0.00  0.00    +0.384 N 
ATOM     17  H   UNL     1      -1.188  -0.866  -0.744  0.00  0.00    -0.085 HD
ATOM     18  H   UNL     1      -2.864  -0.818  -0.732  0.00  0.00    -0.085 HD
BRANCH  16  19
ATOM     19  C   UNL     1      -1.978   0.955  -1.282  0.00  0.00    -0.042 C 
ATOM     20  C   UNL     1      -0.728   1.448  -0.550  0.00  0.00    -0.012 C 
ATOM     21  C   UNL     1      -0.770   0.977   0.905  0.00  0.00    +0.018 C 
ATOM     22  C   UNL     1      -2.018   1.541   1.588  0.00  0.00    +0.083 C 
ATOM     23  C   UNL     1      -3.267   1.048   0.856  0.00  0.00    +0.049 C 
ATOM     24  C   UNL     1      -3.225   1.519  -0.599  0.00  0.00    +0.157 C 
ATOM     25 CL   UNL     1      -2.067   0.985   3.303  0.00  0.00    -0.122 Cl
BRANCH  24  26
ATOM     26  N   UNL     1      -4.421   1.047  -1.300  0.00  0.00    +0.024 N 
ATOM     27  O   UNL     1      -4.677  -0.144  -1.335  0.00  0.00    -0.131 OA
ATOM     28  O   UNL     1      -5.161   1.844  -1.848  0.00  0.00    -0.131 OA
ENDBRANCH  24  26
ENDBRANCH  16  19
ENDBRANCH   5  16
TORSDOF 4
