REMARK  Name = ZINC00450422
REMARK  6 active torsions:
REMARK  status: ('A' for Active; 'I' for Inactive)
REMARK    1  A    between atoms: C_1  and  C_2
REMARK    2  A    between atoms: C_6  and  N_8
REMARK    3  A    between atoms: N_8  and  C_9
REMARK    4  A    between atoms: C_9  and  N_11
REMARK    5  A    between atoms: C_12  and  C_14
REMARK    6  A    between atoms: C_19  and  N_20
REMARK                            x       y       z     vdW  Elec       q    Type
REMARK                         _______ _______ _______ _____ _____    ______ ____
ROOT
ATOM      1  N   UNL     1       1.417   2.152  -0.977  0.00  0.00    -0.263 N 
ATOM      2  C   UNL     1       2.576   1.565  -0.619  0.00  0.00    +0.252 C 
ATOM      3  O   UNL     1       2.647   0.355  -0.545  0.00  0.00    -0.270 OA
ATOM      4  H   UNL     1       1.360   3.118  -1.036  0.00  0.00    +0.157 HD
ENDROOT
BRANCH   2   5
ATOM      5  C   UNL     1       3.761   2.395  -0.316  0.00  0.00    +0.067 A 
ATOM      6  C   UNL     1       3.649   3.786  -0.265  0.00  0.00    +0.015 A 
ATOM      7  C   UNL     1       4.758   4.554   0.024  0.00  0.00    +0.001 A 
ATOM      8  C   UNL     1       5.982   3.949   0.251  0.00  0.00    +0.002 A 
ATOM      9  C   UNL     1       6.102   2.572   0.195  0.00  0.00    +0.033 A 
ATOM     10  C   UNL     1       4.999   1.792  -0.087  0.00  0.00    +0.138 A 
BRANCH  10  11
ATOM     11  N   UNL     1       5.129   0.319  -0.146  0.00  0.00    +0.057 N 
ATOM     12  O   UNL     1       5.679  -0.281   0.760  0.00  0.00    -0.126 OA
ATOM     13  O   UNL     1       4.686  -0.294  -1.101  0.00  0.00    -0.126 OA
ENDBRANCH  10  11
ENDBRANCH   2   5
BRANCH   1  14
ATOM     14  C   UNL     1       0.336   1.395  -1.253  0.00  0.00    +0.142 C 
ATOM     15  S   UNL     1       0.436  -0.310  -1.149  0.00  0.00    -0.018 S 
BRANCH  14  16
ATOM     16  N   UNL     1      -0.822   1.982  -1.616  0.00  0.00    -0.282 N 
ATOM     17  H   UNL     1      -0.904   2.948  -1.594  0.00  0.00    +0.155 HD
BRANCH  16  23
ATOM     18  C   UNL     1      -2.515  -2.366  -2.696  0.00  0.00    +0.065 C 
ATOM     19  C   UNL     1      -2.742  -0.884  -2.549  0.00  0.00    +0.040 A 
ATOM     20  C   UNL     1      -3.989  -0.355  -2.817  0.00  0.00    +0.023 A 
ATOM     21  C   UNL     1      -4.192   1.011  -2.680  0.00  0.00    +0.005 A 
ATOM     22  C   UNL     1      -3.130   1.798  -2.272  0.00  0.00    +0.044 A 
ATOM     23  C   UNL     1      -1.900   1.200  -2.024  0.00  0.00    +0.124 A 
ATOM     24  N   UNL     1      -1.746  -0.108  -2.166  0.00  0.00    -0.237 NA
ENDBRANCH  16  23
ENDBRANCH  14  16
ENDBRANCH   1  14
TORSDOF 5
