REMARK  Name = ZINC65262380
REMARK  7 active torsions:
REMARK  status: ('A' for Active; 'I' for Inactive)
REMARK    1  A    between atoms: C_1  and  C_2
REMARK    2  A    between atoms: C_3  and  C_7
REMARK    3  A    between atoms: N_9  and  C_10
REMARK    4  A    between atoms: N_13  and  C_16
REMARK    5  A    between atoms: C_16  and  C_17
REMARK    6  A    between atoms: C_16  and  C_18
REMARK    7  A    between atoms: C_21  and  C_23
REMARK                            x       y       z     vdW  Elec       q    Type
REMARK                         _______ _______ _______ _____ _____    ______ ____
ROOT
ATOM      1  C   UNL     1      -0.014  -0.661  -4.963  0.00  0.00    +0.070 C 
ATOM      2  C   UNL     1       1.418  -0.366  -5.418  0.00  0.00    +0.004 C 
ATOM      3  C   UNL     1       1.404   0.052  -6.890  0.00  0.00    -0.076 C 
ATOM      4  N   UNL     1       0.845  -1.033  -7.705  0.00  0.00    +0.387 N 
ATOM      5  C   UNL     1      -0.552  -1.273  -7.323  0.00  0.00    -0.076 C 
ATOM      6  C   UNL     1      -0.614  -1.741  -5.867  0.00  0.00    +0.004 C 
ATOM      7  H   UNL     1       1.381  -1.874  -7.558  0.00  0.00    -0.081 HD
ENDROOT
BRANCH   1  10
ATOM      8  C   UNL     1      -0.008  -0.248  -2.562  0.00  0.00    +0.253 C 
ATOM      9  O   UNL     1      -0.025   0.946  -2.797  0.00  0.00    -0.270 OA
ATOM     10  N   UNL     1      -0.001  -1.134  -3.577  0.00  0.00    -0.308 N 
ATOM     11  H   UNL     1       0.013  -2.086  -3.389  0.00  0.00    +0.149 HD
BRANCH   8  14
ATOM     12  C   UNL     1      -0.018   1.503   0.010  0.00  0.00    +0.067 C 
ATOM     13  C   UNL     1       0.002  -0.004   0.002  0.00  0.00    +0.058 A 
ATOM     14  C   UNL     1       0.006  -0.722  -1.174  0.00  0.00    +0.096 A 
ATOM     15  S   UNL     1       0.032  -2.390  -0.537  0.00  0.00    -0.071 S 
ATOM     16  C   UNL     1       0.035  -2.012   1.103  0.00  0.00    +0.156 A 
ATOM     17  N   UNL     1       0.022  -0.699   1.113  0.00  0.00    -0.252 NA
ENDBRANCH   8  14
ENDBRANCH   1  10
BRANCH   4  18
ATOM     18  C   UNL     1       0.905  -0.658  -9.124  0.00  0.00    +0.018 C 
ATOM     19  C   UNL     1       0.322  -1.788  -9.975  0.00  0.00    -0.004 C 
BRANCH  18  20
ATOM     20  C   UNL     1       2.340  -0.421  -9.520  0.00  0.00    +0.204 A 
ATOM     21  N   UNL     1       3.357  -1.179  -9.220  0.00  0.00    -0.114 NA
ATOM     22  N   UNL     1       4.431  -0.677  -9.720  0.00  0.00    -0.107 NA
ATOM     23  C   UNL     1       4.133   0.429 -10.362  0.00  0.00    +0.248 A 
ATOM     24  O   UNL     1       2.801   0.609 -10.251  0.00  0.00    -0.422 OA
BRANCH  23  25
ATOM     25  C   UNL     1       5.080   1.310 -11.078  0.00  0.00    +0.038 A 
ATOM     26  C   UNL     1       4.620   2.463 -11.714  0.00  0.00    +0.013 A 
ATOM     27  C   UNL     1       5.509   3.281 -12.380  0.00  0.00    +0.001 A 
ATOM     28  C   UNL     1       6.854   2.960 -12.418  0.00  0.00    +0.000 A 
ATOM     29  C   UNL     1       7.316   1.817 -11.790  0.00  0.00    +0.001 A 
ATOM     30  C   UNL     1       6.439   0.994 -11.115  0.00  0.00    +0.013 A 
ENDBRANCH  23  25
ENDBRANCH  18  20
ENDBRANCH   4  18
TORSDOF 5
