REMARK  Name = ZINC13460265
REMARK  9 active torsions:
REMARK  status: ('A' for Active; 'I' for Inactive)
REMARK    1  A    between atoms: C_1  and  C_2
REMARK    2  A    between atoms: C_3  and  C_28
REMARK    3  A    between atoms: C_4  and  C_20
REMARK    4  A    between atoms: N_9  and  C_10
REMARK    5  A    between atoms: C_23  and  C_26
REMARK    6  A    between atoms: C_28  and  O_30
REMARK    7  A    between atoms: O_30  and  C_31
REMARK    8  A    between atoms: C_31  and  C_32
REMARK    9  A    between atoms: C_31  and  C_33
REMARK                            x       y       z     vdW  Elec       q    Type
REMARK                         _______ _______ _______ _____ _____    ______ ____
ROOT
ATOM      1  C   UNL     1       2.272  -2.735   0.175  0.00  0.00    +0.062 C 
ATOM      2  C   UNL     1       3.596  -2.026   0.051  0.00  0.00    +0.027 C 
ATOM      3  C   UNL     1       4.742  -2.736   0.140  0.00  0.00    +0.078 C 
ATOM      4  C   UNL     1       6.050  -1.983   0.010  0.00  0.00    +0.141 C 
ATOM      5  N   UNL     1       5.965  -0.529  -0.203  0.00  0.00    -0.315 N 
ATOM      6  C   UNL     1       4.745   0.039  -0.275  0.00  0.00    +0.142 C 
ATOM      7  S   UNL     1       4.630   1.728  -0.530  0.00  0.00    -0.018 S 
ATOM      8  N   UNL     1       3.618  -0.675  -0.149  0.00  0.00    -0.255 N 
ATOM      9  H   UNL     1       6.768   0.008  -0.294  0.00  0.00    +0.149 HD
ENDROOT
BRANCH   8  10
ATOM     10  C   UNL     1       2.394   0.003  -0.231  0.00  0.00    +0.044 A 
ATOM     11  C   UNL     1       1.765   0.154  -1.460  0.00  0.00    +0.027 A 
ATOM     12  C   UNL     1       0.559   0.822  -1.542  0.00  0.00    +0.051 A 
ATOM     13  C   UNL     1      -0.028   1.343  -0.398  0.00  0.00    +0.162 A 
ATOM     14  C   UNL     1       0.597   1.190   0.834  0.00  0.00    +0.164 A 
ATOM     15  C   UNL     1       1.809   0.521   0.915  0.00  0.00    +0.073 A 
ATOM     16  O   UNL     1       0.032   1.687   1.968  0.00  0.00    -0.485 OA
ATOM     17  C   UNL     1      -0.992   2.674   1.798  0.00  0.00    +0.270 C 
ATOM     18  C   UNL     1      -1.957   2.183   0.711  0.00  0.00    +0.270 C 
ATOM     19  O   UNL     1      -1.214   2.006  -0.500  0.00  0.00    -0.485 OA
ENDBRANCH   8  10
BRANCH   4  20
ATOM     20  C   UNL     1       6.816  -2.578  -1.144  0.00  0.00    -0.023 A 
ATOM     21  C   UNL     1       6.493  -2.222  -2.441  0.00  0.00    +0.006 A 
ATOM     22  C   UNL     1       7.193  -2.759  -3.502  0.00  0.00    +0.015 A 
ATOM     23  C   UNL     1       8.223  -3.671  -3.264  0.00  0.00    +0.063 A 
ATOM     24  C   UNL     1       8.540  -4.030  -1.952  0.00  0.00    +0.015 A 
ATOM     25  C   UNL     1       7.835  -3.482  -0.901  0.00  0.00    +0.006 A 
BRANCH  23  26
ATOM     26  C   UNL     1       8.973  -4.254  -4.395  0.00  0.00    +0.387 C 
ATOM     27  O   UNL     1       9.869  -5.048  -4.185  0.00  0.00    -0.241 OA
ATOM     28  O   UNL     1       8.665  -3.906  -5.659  0.00  0.00    -0.241 OA
ENDBRANCH  23  26
ENDBRANCH   4  20
BRANCH   3  29
ATOM     29  C   UNL     1       4.720  -4.135   0.346  0.00  0.00    +0.339 C 
ATOM     30  O   UNL     1       3.658  -4.719   0.447  0.00  0.00    -0.245 OA
BRANCH  29  31
ATOM     31  O   UNL     1       5.879  -4.822   0.431  0.00  0.00    -0.459 OA
BRANCH  31  32
ATOM     32  C   UNL     1       5.782  -6.233   0.640  0.00  0.00    +0.171 C 
ATOM     33  C   UNL     1       5.728  -6.946  -0.712  0.00  0.00    +0.052 C 
ATOM     34  C   UNL     1       7.004  -6.717   1.424  0.00  0.00    +0.052 C 
ENDBRANCH  31  32
ENDBRANCH  29  31
ENDBRANCH   3  29
TORSDOF 6
