REMARK  Name = ZINC29351934
REMARK  9 active torsions:
REMARK  status: ('A' for Active; 'I' for Inactive)
REMARK    1  A    between atoms: C_1  and  C_2
REMARK    2  A    between atoms: C_7  and  C_8
REMARK    3  A    between atoms: C_8  and  N_9
REMARK    4  A    between atoms: N_9  and  C_10
REMARK    5  A    between atoms: C_11  and  C_13
REMARK    6  A    between atoms: C_13  and  C_15
REMARK    7  A    between atoms: C_13  and  S_16
REMARK    8  A    between atoms: S_16  and  C_17
REMARK    9  A    between atoms: C_17  and  C_18
REMARK                            x       y       z     vdW  Elec       q    Type
REMARK                         _______ _______ _______ _____ _____    ______ ____
ROOT
ATOM      1  C   UNL     1       4.604   1.449  -3.137  0.00  0.00    +0.130 C 
ATOM      2  C   UNL     1       5.707   0.397  -3.007  0.00  0.00    +0.029 C 
ENDROOT
BRANCH   1   5
ATOM      3  N   UNL     1       3.201   1.002  -1.150  0.00  0.00    -0.299 N 
ATOM      4  C   UNL     1       2.739  -0.221  -1.810  0.00  0.00    +0.132 C 
ATOM      5  C   UNL     1       4.088   1.807  -1.768  0.00  0.00    +0.228 C 
ATOM      6  O   UNL     1       4.470   2.820  -1.221  0.00  0.00    -0.274 OA
BRANCH   3   7
ATOM      7  C   UNL     1       2.699   1.351   0.182  0.00  0.00    +0.142 C 
BRANCH   7  14
ATOM      8  C   UNL     1       1.388   2.379   2.541  0.00  0.00    +0.044 C 
ATOM      9  C   UNL     1       0.842   2.703   1.175  0.00  0.00    -0.046 A 
ATOM     10  C   UNL     1      -0.289   3.488   1.050  0.00  0.00    +0.003 A 
ATOM     11  C   UNL     1      -0.787   3.790  -0.204  0.00  0.00    +0.000 A 
ATOM     12  C   UNL     1      -0.159   3.297  -1.333  0.00  0.00    +0.000 A 
ATOM     13  C   UNL     1       0.969   2.508  -1.208  0.00  0.00    +0.005 A 
ATOM     14  C   UNL     1       1.469   2.211   0.046  0.00  0.00    -0.027 A 
ENDBRANCH   7  14
ENDBRANCH   3   7
ENDBRANCH   1   5
BRANCH   1  15
ATOM     15  S   UNL     1       5.274   2.932  -3.938  0.00  0.00    -0.140 S 
BRANCH  15  16
ATOM     16  C   UNL     1       5.706   2.372  -5.609  0.00  0.00    +0.146 C 
BRANCH  16  17
ATOM     17  C   UNL     1       6.282   3.524  -6.391  0.00  0.00    +0.146 A 
ATOM     18  N   UNL     1       5.485   4.301  -7.103  0.00  0.00    -0.199 NA
ATOM     19  C   UNL     1       5.990   5.322  -7.792  0.00  0.00    +0.217 A 
ATOM     20  N   UNL     1       7.298   5.553  -7.771  0.00  0.00    -0.181 NA
ATOM     21  C   UNL     1       8.097   4.766  -7.059  0.00  0.00    +0.217 A 
ATOM     22  N   UNL     1       7.584   3.750  -6.369  0.00  0.00    -0.199 NA
ATOM     23  N   UNL     1       9.457   5.001  -7.035  0.00  0.00    -0.327 N 
ATOM     24  N   UNL     1       5.156   6.137  -8.530  0.00  0.00    -0.327 N 
ATOM     25  H   UNL     1      10.117   4.349  -6.446  0.00  0.00    +0.145 HD
ATOM     26  H   UNL     1       9.880   5.841  -7.607  0.00  0.00    +0.145 HD
ATOM     27  H   UNL     1       5.574   6.981  -9.099  0.00  0.00    +0.145 HD
ATOM     28  H   UNL     1       4.073   5.943  -8.550  0.00  0.00    +0.145 HD
ENDBRANCH  16  17
ENDBRANCH  15  16
ENDBRANCH   1  15
TORSDOF 6
