REMARK  Name = ZINC44075558
REMARK  7 active torsions:
REMARK  status: ('A' for Active; 'I' for Inactive)
REMARK    1  A    between atoms: C_1  and  O_2
REMARK    2  A    between atoms: O_2  and  C_3
REMARK    3  A    between atoms: C_6  and  O_9
REMARK    4  A    between atoms: O_9  and  C_10
REMARK    5  A    between atoms: C_12  and  O_33
REMARK    6  A    between atoms: C_14  and  O_32
REMARK    7  A    between atoms: C_23  and  C_26
REMARK                            x       y       z     vdW  Elec       q    Type
REMARK                         _______ _______ _______ _____ _____    ______ ____
ROOT
ATOM      1  C   UNL     1       2.545  -3.913   4.189  0.00  0.00    +0.339 C 
ATOM      2  C   UNL     1       3.390  -4.419   5.361  0.00  0.00    +0.214 C 
ATOM      3  C   UNL     1       3.367  -5.951   5.369  0.00  0.00    +0.180 C 
ATOM      4  C   UNL     1       1.918  -6.433   5.447  0.00  0.00    +0.184 C 
ATOM      5  C   UNL     1       1.114  -5.839   4.286  0.00  0.00    +0.179 C 
ATOM      6  O   UNL     1       1.214  -4.414   4.315  0.00  0.00    -0.331 OA
ATOM      7  C   UNL     1      -0.357  -6.239   4.455  0.00  0.00    +0.197 C 
ATOM      8  O   UNL     1      -0.801  -5.829   5.752  0.00  0.00    -0.345 OA
ATOM      9  C   UNL     1      -0.039  -6.384   6.826  0.00  0.00    +0.282 C 
ATOM     10  O   UNL     1       1.334  -6.011   6.682  0.00  0.00    -0.339 OA
ENDROOT
BRANCH   9  11
ATOM     11  C   UNL     1      -0.566  -5.862   8.138  0.00  0.00    +0.008 A 
ATOM     12  C   UNL     1       0.262  -5.139   8.976  0.00  0.00    +0.008 A 
ATOM     13  C   UNL     1      -0.222  -4.660  10.180  0.00  0.00    +0.000 A 
ATOM     14  C   UNL     1      -1.533  -4.903  10.544  0.00  0.00    +0.000 A 
ATOM     15  C   UNL     1      -2.360  -5.626   9.705  0.00  0.00    +0.000 A 
ATOM     16  C   UNL     1      -1.878  -6.101   8.500  0.00  0.00    +0.008 A 
ENDBRANCH   9  11
BRANCH   3  17
ATOM     17  O   UNL     1       4.093  -6.433   6.501  0.00  0.00    -0.386 OA
ATOM     18  H   UNL     1       5.021  -6.162   6.518  0.00  0.00    +0.210 HD
ENDBRANCH   3  17
BRANCH   2  19
ATOM     19  O   UNL     1       4.736  -3.960   5.215  0.00  0.00    -0.383 OA
ATOM     20  H   UNL     1       4.823  -2.997   5.195  0.00  0.00    +0.210 HD
ENDBRANCH   2  19
BRANCH   1  21
ATOM     21  O   UNL     1       2.521  -2.485   4.199  0.00  0.00    -0.461 OA
BRANCH  21  25
ATOM     22  C   UNL     1       0.626  -0.619   1.042  0.00  0.00    +0.120 A 
ATOM     23  C   UNL     1       1.202   0.139   2.051  0.00  0.00    +0.049 A 
ATOM     24  C   UNL     1       1.836  -0.485   3.107  0.00  0.00    +0.049 A 
ATOM     25  C   UNL     1       1.896  -1.870   3.160  0.00  0.00    +0.124 A 
ATOM     26  C   UNL     1       1.320  -2.628   2.151  0.00  0.00    +0.049 A 
ATOM     27  C   UNL     1       0.682  -2.003   1.097  0.00  0.00    +0.049 A 
BRANCH  22  29
ATOM     28  C   UNL     1      -0.017   1.425   0.010  0.00  0.00    +0.277 C 
ATOM     29  O   UNL     1       0.002  -0.004   0.002  0.00  0.00    -0.495 OA
ENDBRANCH  22  29
ENDBRANCH  21  25
ENDBRANCH   1  21
TORSDOF 6
