REMARK  Name = ZINC46568916
REMARK  5 active torsions:
REMARK  status: ('A' for Active; 'I' for Inactive)
REMARK    1  A    between atoms: C_1  and  C_2
REMARK    2  A    between atoms: C_2  and  C_3
REMARK    3  A    between atoms: N_6  and  C_10
REMARK    4  A    between atoms: C_10  and  N_11
REMARK    5  A    between atoms: C_19  and  C_21
REMARK                            x       y       z     vdW  Elec       q    Type
REMARK                         _______ _______ _______ _____ _____    ______ ____
ROOT
ATOM      1  N   UNL     1       2.757  -4.318  -3.324  0.00  0.00    -0.211 N 
ATOM      2  C   UNL     1       2.596  -4.617  -4.630  0.00  0.00    +0.248 C 
ATOM      3  O   UNL     1       1.558  -4.635  -5.256  0.00  0.00    -0.273 OA
ATOM      4  C   UNL     1       3.982  -4.926  -5.147  0.00  0.00    +0.115 C 
ATOM      5  C   UNL     1       4.369  -3.944  -6.248  0.00  0.00    +0.035 C 
ATOM      6  C   UNL     1       3.427  -4.118  -7.442  0.00  0.00    +0.003 C 
ATOM      7  C   UNL     1       3.522  -5.555  -7.960  0.00  0.00    +0.000 C 
ATOM      8  C   UNL     1       3.111  -6.527  -6.852  0.00  0.00    +0.006 C 
ATOM      9  C   UNL     1       4.052  -6.362  -5.655  0.00  0.00    +0.018 C 
ATOM     10  C   UNL     1       3.630  -7.319  -4.539  0.00  0.00    +0.010 C 
ATOM     11  N   UNL     1       4.847  -4.752  -3.974  0.00  0.00    -0.285 N 
ATOM     12  C   UNL     1       4.042  -4.391  -2.957  0.00  0.00    +0.310 C 
ATOM     13  O   UNL     1       4.437  -4.161  -1.830  0.00  0.00    -0.252 OA
ATOM     14  H   UNL     1       5.810  -4.869  -3.939  0.00  0.00    +0.151 HD
ENDROOT
BRANCH   1  15
ATOM     15  C   UNL     1       1.662  -3.953  -2.422  0.00  0.00    +0.205 C 
BRANCH  15  18
ATOM     16  C   UNL     1       0.718  -0.497  -1.257  0.00  0.00    +0.132 C 
ATOM     17  C   UNL     1       0.848  -2.022  -1.207  0.00  0.00    +0.117 C 
ATOM     18  N   UNL     1       1.467  -2.497  -2.453  0.00  0.00    -0.282 NA
ATOM     19  C   UNL     1       0.665  -2.098  -3.618  0.00  0.00    +0.114 C 
ATOM     20  C   UNL     1       0.537  -0.572  -3.644  0.00  0.00    +0.175 C 
ATOM     21  O   UNL     1      -0.037  -0.125  -2.413  0.00  0.00    -0.374 OA
BRANCH  16  23
ATOM     22  C   UNL     1      -0.019   1.526   0.010  0.00  0.00    +0.006 C 
ATOM     23  C   UNL     1       0.002  -0.004   0.002  0.00  0.00    +0.029 C 
ENDBRANCH  16  23
ENDBRANCH  15  18
ENDBRANCH   1  15
TORSDOF 3
