REMARK  Name = ZINC38636970
REMARK  5 active torsions:
REMARK  status: ('A' for Active; 'I' for Inactive)
REMARK    1  A    between atoms: C_9  and  C_12
REMARK    2  A    between atoms: C_12  and  O_14
REMARK    3  A    between atoms: O_14  and  C_15
REMARK    4  A    between atoms: C_15  and  C_16
REMARK    5  A    between atoms: C_25  and  O_27
REMARK                            x       y       z     vdW  Elec       q    Type
REMARK                         _______ _______ _______ _____ _____    ______ ____
ROOT
ATOM      1  O   UNL     1       0.248  -4.244  -0.127  0.00  0.00    -0.457 OA
ENDROOT
BRANCH   1   2
ATOM      2  C   UNL     1       0.147  -2.904  -0.017  0.00  0.00    +0.337 C 
ATOM      3  O   UNL     1      -0.945  -2.384   0.089  0.00  0.00    -0.245 OA
BRANCH   2  12
ATOM      4  C   UNL     1      -0.017   1.351  -0.044  0.00  0.00    +0.001 A 
ATOM      5  C   UNL     1       1.168   2.099  -0.050  0.00  0.00    +0.002 A 
ATOM      6  C   UNL     1       2.396   1.526  -0.048  0.00  0.00    +0.024 A 
ATOM      7  C   UNL     1       2.529   0.120  -0.039  0.00  0.00    +0.041 A 
ATOM      8  N   UNL     1       3.732  -0.433  -0.037  0.00  0.00    -0.285 N 
ATOM      9  C   UNL     1       3.931  -1.746  -0.029  0.00  0.00    +0.222 C 
ATOM     10  O   UNL     1       5.063  -2.190  -0.028  0.00  0.00    -0.275 OA
ATOM     11  C   UNL     1       2.749  -2.689  -0.021  0.00  0.00    +0.139 C 
ATOM     12  C   UNL     1       1.365  -2.069  -0.024  0.00  0.00    +0.054 C 
ATOM     13  C   UNL     1       1.293  -0.692  -0.032  0.00  0.00    +0.007 A 
ATOM     14  C   UNL     1       0.002  -0.004  -0.035  0.00  0.00    +0.010 A 
ATOM     15  H   UNL     1       4.507   0.150  -0.043  0.00  0.00    +0.155 HD
ENDBRANCH   2  12
ENDBRANCH   1   2
BRANCH   1  16
ATOM     16  C   UNL     1      -0.971  -4.990  -0.113  0.00  0.00    +0.269 C 
BRANCH  16  17
ATOM     17  C   UNL     1      -0.662  -6.459  -0.246  0.00  0.00    +0.007 A 
ATOM     18  C   UNL     1       0.619  -6.896  -0.350  0.00  0.00    +0.099 A 
ATOM     19  C   UNL     1       0.882  -8.276  -0.473  0.00  0.00    +0.338 A 
ATOM     20  O   UNL     1       2.036  -8.654  -0.565  0.00  0.00    -0.245 OA
ATOM     21  O   UNL     1      -0.107  -9.183  -0.490  0.00  0.00    -0.422 OA
ATOM     22  C   UNL     1      -1.402  -8.816  -0.390  0.00  0.00    +0.143 A 
ATOM     23  C   UNL     1      -1.736  -7.454  -0.260  0.00  0.00    +0.024 A 
ATOM     24  C   UNL     1      -3.077  -7.069  -0.151  0.00  0.00    +0.015 A 
ATOM     25  C   UNL     1      -4.059  -8.018  -0.167  0.00  0.00    +0.046 A 
ATOM     26  C   UNL     1      -3.734  -9.367  -0.291  0.00  0.00    +0.120 A 
ATOM     27  C   UNL     1      -2.412  -9.765  -0.410  0.00  0.00    +0.092 A 
BRANCH  26  28
ATOM     28  O   UNL     1      -4.721 -10.299  -0.305  0.00  0.00    -0.507 OA
ATOM     29  H   UNL     1      -5.059 -10.500  -1.189  0.00  0.00    +0.292 HD
ENDBRANCH  26  28
ENDBRANCH  16  17
ENDBRANCH   1  16
TORSDOF 5
