REMARK  Name = ZINC63138903
REMARK  8 active torsions:
REMARK  status: ('A' for Active; 'I' for Inactive)
REMARK    1  A    between atoms: C_1  and  O_2
REMARK    2  A    between atoms: O_2  and  C_3
REMARK    3  A    between atoms: C_8  and  C_9
REMARK    4  A    between atoms: C_9  and  N_10
REMARK    5  A    between atoms: C_30  and  C_32
REMARK    6  A    between atoms: C_35  and  C_38
REMARK    7  A    between atoms: C_38  and  O_40
REMARK    8  A    between atoms: O_40  and  C_41
REMARK                            x       y       z     vdW  Elec       q    Type
REMARK                         _______ _______ _______ _____ _____    ______ ____
ROOT
ATOM      1  N   UNL     1      -1.398  -2.912  -0.233  0.00  0.00    -0.287 N 
ATOM      2  C   UNL     1      -2.319  -1.924   0.357  0.00  0.00    +0.204 C 
ATOM      3  C   UNL     1      -3.314  -1.501  -0.703  0.00  0.00    +0.234 C 
ATOM      4  O   UNL     1      -3.618  -0.338  -0.860  0.00  0.00    -0.274 OA
ATOM      5  N   UNL     1      -3.856  -2.497  -1.479  0.00  0.00    -0.279 N 
ATOM      6  C   UNL     1      -3.462  -3.844  -1.126  0.00  0.00    +0.167 C 
ATOM      7  C   UNL     1      -1.962  -3.908  -0.979  0.00  0.00    +0.237 C 
ATOM      8  O   UNL     1      -1.301  -4.787  -1.488  0.00  0.00    -0.274 OA
ATOM      9  C   UNL     1      -4.006  -4.986  -1.944  0.00  0.00    +0.065 C 
ATOM     10  C   UNL     1      -4.713  -4.453  -3.160  0.00  0.00    -0.034 C 
ATOM     11  C   UNL     1      -4.739  -4.858  -4.422  0.00  0.00    -0.001 A 
ATOM     12  C   UNL     1      -4.119  -6.011  -5.095  0.00  0.00    +0.010 A 
ATOM     13  C   UNL     1      -4.349  -6.122  -6.430  0.00  0.00    +0.001 A 
ATOM     14  C   UNL     1      -5.126  -5.212  -7.155  0.00  0.00    +0.002 A 
ATOM     15  C   UNL     1      -5.737  -4.127  -6.617  0.00  0.00    +0.026 A 
ATOM     16  C   UNL     1      -5.572  -3.906  -5.218  0.00  0.00    +0.043 A 
ATOM     17  N   UNL     1      -6.045  -2.968  -4.455  0.00  0.00    -0.375 N 
ATOM     18  C   UNL     1      -5.601  -3.214  -3.077  0.00  0.00    +0.131 C 
ATOM     19  C   UNL     1      -4.712  -2.083  -2.582  0.00  0.00    +0.133 C 
ATOM     20  H   UNL     1      -6.600  -2.228  -4.747  0.00  0.00    +0.160 HD
ENDROOT
BRANCH  19  21
ATOM     21  C   UNL     1      -5.555  -0.917  -2.137  0.00  0.00    -0.025 A 
ATOM     22  C   UNL     1      -6.088  -0.899  -0.861  0.00  0.00    +0.006 A 
ATOM     23  C   UNL     1      -6.862   0.166  -0.447  0.00  0.00    +0.015 A 
ATOM     24  C   UNL     1      -7.106   1.228  -1.320  0.00  0.00    +0.059 A 
ATOM     25  C   UNL     1      -6.564   1.204  -2.607  0.00  0.00    +0.015 A 
ATOM     26  C   UNL     1      -5.788   0.135  -3.006  0.00  0.00    +0.006 A 
BRANCH  24  27
ATOM     27  C   UNL     1      -7.933   2.371  -0.885  0.00  0.00    +0.339 C 
ATOM     28  O   UNL     1      -8.403   2.389   0.235  0.00  0.00    -0.245 OA
BRANCH  27  29
ATOM     29  O   UNL     1      -8.167   3.394  -1.729  0.00  0.00    -0.464 OA
ATOM     30  C   UNL     1      -8.975   4.467  -1.242  0.00  0.00    +0.280 C 
ENDBRANCH  27  29
ENDBRANCH  24  27
ENDBRANCH  19  21
BRANCH   1  31
ATOM     31  C   UNL     1       0.051  -2.828  -0.033  0.00  0.00    +0.147 C 
BRANCH  31  37
ATOM     32  C   UNL     1       0.606  -0.607  -1.056  0.00  0.00    +0.125 A 
ATOM     33  C   UNL     1       1.173   0.161  -2.063  0.00  0.00    +0.046 A 
ATOM     34  C   UNL     1       1.786  -0.455  -3.136  0.00  0.00    +0.004 A 
ATOM     35  C   UNL     1       1.836  -1.835  -3.208  0.00  0.00    +0.001 A 
ATOM     36  C   UNL     1       1.271  -2.602  -2.207  0.00  0.00    +0.009 A 
ATOM     37  C   UNL     1       0.661  -1.991  -1.128  0.00  0.00    +0.011 A 
BRANCH  32  39
ATOM     38  C   UNL     1      -0.017   1.425   0.010  0.00  0.00    +0.277 C 
ATOM     39  O   UNL     1       0.002  -0.004   0.002  0.00  0.00    -0.495 OA
ENDBRANCH  32  39
ENDBRANCH  31  37
ENDBRANCH   1  31
TORSDOF 6
