REMARK  Name = ZINC12716377
REMARK  8 active torsions:
REMARK  status: ('A' for Active; 'I' for Inactive)
REMARK    1  A    between atoms: C_1  and  N_2
REMARK    2  A    between atoms: N_2  and  C_3
REMARK    3  A    between atoms: C_9  and  C_11
REMARK    4  A    between atoms: C_11  and  C_12
REMARK    5  A    between atoms: C_19  and  C_20
REMARK    6  A    between atoms: C_19  and  N_63
REMARK    7  A    between atoms: C_24  and  O_26
REMARK    8  A    between atoms: O_26  and  C_27
REMARK                            x       y       z     vdW  Elec       q    Type
REMARK                         _______ _______ _______ _____ _____    ______ ____
ROOT
ATOM      1  C   UNL     1       8.923  -0.224   1.021  0.00  0.00    +0.028 C 
ATOM      2  C   UNL     1       9.338  -0.677   2.392  0.00  0.00    +0.200 C 
ATOM      3  O   UNL     1      10.453  -1.131   2.541  0.00  0.00    -0.278 OA
ATOM      4  N   UNL     1       8.530  -0.603   3.454  0.00  0.00    -0.318 N 
ATOM      5  C   UNL     1       7.184  -0.041   3.389  0.00  0.00    +0.085 C 
ATOM      6  C   UNL     1       6.704   0.004   1.937  0.00  0.00    -0.058 C 
ATOM      7  H   UNL     1       8.852  -0.937   4.306  0.00  0.00    +0.149 HD
ATOM      8  N   UNL     1       7.750   0.664   1.130  0.00  0.00    +0.391 N 
ATOM      9  H   UNL     1       8.031   1.536   1.594  0.00  0.00    -0.080 HD
ENDROOT
BRANCH   1  10
ATOM     10  C   UNL     1      10.073   0.549   0.372  0.00  0.00    +0.090 C 
BRANCH  10  13
ATOM     11  C   UNL     1      11.998   2.434  -0.507  0.00  0.00    +0.132 C 
ATOM     12  N   UNL     1      11.296   2.665   0.757  0.00  0.00    -0.301 N 
ATOM     13  C   UNL     1      10.377   1.778   1.190  0.00  0.00    +0.214 C 
ATOM     14  O   UNL     1       9.796   1.968   2.237  0.00  0.00    -0.276 OA
BRANCH  12  15
ATOM     15  C   UNL     1      11.591   3.859   1.553  0.00  0.00    +0.080 C 
ATOM     16  C   UNL     1      11.296   5.113   0.724  0.00  0.00    +0.050 C 
ATOM     17  C   UNL     1      11.682   6.353   1.534  0.00  0.00    +0.161 C 
ATOM     18  O   UNL     1      13.063   6.274   1.894  0.00  0.00    -0.380 OA
ATOM     19  C   UNL     1      13.389   5.147   2.710  0.00  0.00    +0.161 C 
ATOM     20  C   UNL     1      13.072   3.858   1.948  0.00  0.00    +0.050 C 
ENDBRANCH  12  15
ENDBRANCH  10  13
ENDBRANCH   1  10
BRANCH   8  21
ATOM     21  C   UNL     1       7.228   0.982  -0.218  0.00  0.00    -0.042 C 
BRANCH  21  22
ATOM     22  C   UNL     1       5.973   1.805  -0.079  0.00  0.00    -0.060 A 
ATOM     23  C   UNL     1       6.055   3.184  -0.018  0.00  0.00    +0.002 A 
ATOM     24  C   UNL     1       4.906   3.943   0.108  0.00  0.00    +0.004 A 
ATOM     25  C   UNL     1       3.673   3.324   0.174  0.00  0.00    +0.046 A 
ATOM     26  C   UNL     1       3.587   1.941   0.113  0.00  0.00    +0.129 A 
ATOM     27  C   UNL     1       4.743   1.182  -0.008  0.00  0.00    +0.048 A 
BRANCH  26  28
ATOM     28  O   UNL     1       2.375   1.330   0.178  0.00  0.00    -0.456 OA
BRANCH  28  29
ATOM     29  C   UNL     1       1.590   1.353  -0.931  0.00  0.00    +0.128 A 
ATOM     30  C   UNL     1       0.386   0.664  -0.943  0.00  0.00    +0.046 A 
ATOM     31  C   UNL     1      -0.408   0.684  -2.074  0.00  0.00    +0.004 A 
ATOM     32  C   UNL     1      -0.009   1.399  -3.188  0.00  0.00    +0.000 A 
ATOM     33  C   UNL     1       1.190   2.087  -3.178  0.00  0.00    +0.004 A 
ATOM     34  C   UNL     1       1.990   2.065  -2.052  0.00  0.00    +0.046 A 
ENDBRANCH  28  29
ENDBRANCH  26  28
ENDBRANCH  21  22
ENDBRANCH   8  21
TORSDOF 7
