REMARK  Name = ZINC58105364
REMARK  9 active torsions:
REMARK  status: ('A' for Active; 'I' for Inactive)
REMARK    1  A    between atoms: C_1  and  C_2
REMARK    2  A    between atoms: C_5  and  O_23
REMARK    3  A    between atoms: C_6  and  C_8
REMARK    4  A    between atoms: C_8  and  C_10
REMARK    5  A    between atoms: C_8  and  O_22
REMARK    6  A    between atoms: C_10  and  N_11
REMARK    7  A    between atoms: C_14  and  C_20
REMARK    8  A    between atoms: N_16  and  C_19
REMARK    9  A    between atoms: O_23  and  C_24
REMARK                            x       y       z     vdW  Elec       q    Type
REMARK                         _______ _______ _______ _____ _____    ______ ____
ROOT
ATOM      1  C   UNL     1       0.052  -2.841   2.493  0.00  0.00    +0.168 C 
ENDROOT
BRANCH   1   7
ATOM      2  C   UNL     1      -0.018   1.503   0.010  0.00  0.00    +0.044 C 
ATOM      3  C   UNL     1       0.002  -0.004   0.002  0.00  0.00    -0.050 A 
ATOM      4  C   UNL     1       0.006  -0.688  -1.200  0.00  0.00    +0.007 A 
ATOM      5  C   UNL     1       0.024  -2.069  -1.210  0.00  0.00    +0.046 A 
ATOM      6  C   UNL     1       0.039  -2.770  -0.013  0.00  0.00    +0.126 A 
ATOM      7  C   UNL     1       0.036  -2.082   1.191  0.00  0.00    +0.024 A 
ATOM      8  C   UNL     1       0.023  -0.701   1.196  0.00  0.00    +0.013 A 
BRANCH   6   9
ATOM      9  O   UNL     1       0.057  -4.129  -0.021  0.00  0.00    -0.495 OA
ATOM     10  C   UNL     1       0.058  -4.771  -1.298  0.00  0.00    +0.277 C 
ENDBRANCH   6   9
ENDBRANCH   1   7
BRANCH   1  11
ATOM     11  O   UNL     1       0.616  -2.018   3.517  0.00  0.00    -0.385 OA
ATOM     12  H   UNL     1       0.131  -1.196   3.672  0.00  0.00    +0.210 HD
ENDBRANCH   1  11
BRANCH   1  13
ATOM     13  C   UNL     1      -1.378  -3.225   2.878  0.00  0.00    +0.166 C 
BRANCH  13  14
ATOM     14  N   UNL     1      -1.362  -3.962   4.143  0.00  0.00    -0.257 N 
ATOM     15  C   UNL     1      -1.236  -5.306   4.135  0.00  0.00    +0.274 A 
ATOM     16  O   UNL     1      -1.136  -5.915   3.085  0.00  0.00    -0.266 OA
ATOM     17  C   UNL     1      -1.223  -6.020   5.422  0.00  0.00    +0.132 A 
ATOM     18  C   UNL     1      -1.340  -5.276   6.579  0.00  0.00    +0.114 A 
ATOM     19  N   UNL     1      -1.462  -3.924   6.492  0.00  0.00    -0.302 N 
ATOM     20  C   UNL     1      -1.467  -3.296   5.306  0.00  0.00    +0.332 A 
ATOM     21  O   UNL     1      -1.574  -2.085   5.282  0.00  0.00    -0.246 OA
ATOM     22  C   UNL     1      -1.586  -3.136   7.720  0.00  0.00    +0.153 C 
BRANCH  17  23
ATOM     23  C   UNL     1      -1.093  -7.445   5.472  0.00  0.00    +0.106 C 
ATOM     24  N   UNL     1      -0.990  -8.576   5.513  0.00  0.00    -0.191 NA
ENDBRANCH  17  23
ENDBRANCH  13  14
ENDBRANCH   1  13
TORSDOF 6
