REMARK  Name = ZINC40815122
REMARK  11 active torsions:
REMARK  status: ('A' for Active; 'I' for Inactive)
REMARK    1  A    between atoms: C_1  and  C_2
REMARK    2  A    between atoms: C_5  and  S_8
REMARK    3  A    between atoms: S_8  and  N_11
REMARK    4  A    between atoms: N_11  and  N_12
REMARK    5  A    between atoms: C_19  and  C_31
REMARK    6  A    between atoms: C_20  and  C_22
REMARK    7  A    between atoms: N_24  and  C_25
REMARK    8  A    between atoms: C_25  and  C_27
REMARK    9  A    between atoms: C_25  and  C_28
REMARK   10  A    between atoms: C_28  and  O_29
REMARK   11  A    between atoms: O_29  and  C_30
REMARK                            x       y       z     vdW  Elec       q    Type
REMARK                         _______ _______ _______ _____ _____    ______ ____
ROOT
ATOM      1  N   UNL     1       2.500  -4.622   1.014  0.00  0.00    -0.170 NA
ATOM      2  C   UNL     1       3.744  -4.989   1.005  0.00  0.00    +0.071 C 
ATOM      3  C   UNL     1       4.340  -5.825  -0.118  0.00  0.00    +0.058 C 
ATOM      4  C   UNL     1       5.247  -6.891   0.506  0.00  0.00    +0.014 C 
ATOM      5  C   UNL     1       6.436  -6.239   1.218  0.00  0.00    +0.075 C 
ATOM      6  C   UNL     1       5.932  -5.200   2.187  0.00  0.00    +0.115 A 
ATOM      7  C   UNL     1       4.689  -4.621   2.084  0.00  0.00    +0.042 A 
ATOM      8  C   UNL     1       4.560  -3.708   3.138  0.00  0.00    +0.009 A 
ATOM      9  C   UNL     1       5.734  -3.762   3.836  0.00  0.00    +0.193 A 
ATOM     10  O   UNL     1       6.544  -4.676   3.247  0.00  0.00    -0.454 OA
ATOM     11  C   UNL     1       3.366  -2.840   3.441  0.00  0.00    +0.048 C 
ENDROOT
BRANCH   9  12
ATOM     12  C   UNL     1       6.058  -2.974   5.031  0.00  0.00    +0.280 C 
ATOM     13  O   UNL     1       5.245  -2.189   5.480  0.00  0.00    -0.267 OA
ATOM     14  N   UNL     1       7.256  -3.120   5.630  0.00  0.00    -0.304 N 
ATOM     15  H   UNL     1       7.904  -3.747   5.272  0.00  0.00    +0.149 HD
BRANCH  14  16
ATOM     16  C   UNL     1       7.579  -2.333   6.823  0.00  0.00    +0.096 C 
ATOM     17  C   UNL     1       7.036  -3.043   8.065  0.00  0.00    +0.030 C 
BRANCH  16  18
ATOM     18  C   UNL     1       9.098  -2.188   6.942  0.00  0.00    +0.181 C 
BRANCH  18  19
ATOM     19  O   UNL     1       9.683  -3.472   7.167  0.00  0.00    -0.381 OA
ATOM     20  C   UNL     1      11.106  -3.449   7.293  0.00  0.00    +0.194 C 
ENDBRANCH  18  19
ENDBRANCH  16  18
ENDBRANCH  14  16
ENDBRANCH   9  12
BRANCH   1  21
ATOM     21  N   UNL     1       1.651  -4.999  -0.034  0.00  0.00    -0.136 N 
ATOM     22  H   UNL     1       1.993  -5.536  -0.767  0.00  0.00    +0.197 HD
BRANCH  21  23
ATOM     23  S   UNL     1       0.063  -4.530  -0.023  0.00  0.00    +0.086 S 
ATOM     24  O   UNL     1      -0.476  -4.950   1.223  0.00  0.00    -0.149 OA
ATOM     25  O   UNL     1      -0.490  -4.937  -1.267  0.00  0.00    -0.149 OA
BRANCH  23  30
ATOM     26  C   UNL     1      -0.018   1.503   0.010  0.00  0.00    +0.044 C 
ATOM     27  C   UNL     1       0.002  -0.004   0.002  0.00  0.00    -0.050 A 
ATOM     28  C   UNL     1       0.006  -0.689  -1.199  0.00  0.00    +0.005 A 
ATOM     29  C   UNL     1       0.025  -2.071  -1.206  0.00  0.00    +0.029 A 
ATOM     30  C   UNL     1       0.040  -2.768  -0.013  0.00  0.00    +0.110 A 
ATOM     31  C   UNL     1       0.037  -2.084   1.188  0.00  0.00    +0.029 A 
ATOM     32  C   UNL     1       0.023  -0.702   1.195  0.00  0.00    +0.005 A 
ENDBRANCH  23  30
ENDBRANCH  21  23
ENDBRANCH   1  21
TORSDOF 7
