REMARK  Name = ZINC13164010
REMARK  10 active torsions:
REMARK  status: ('A' for Active; 'I' for Inactive)
REMARK    1  A    between atoms: C_1  and  C_2
REMARK    2  A    between atoms: C_2  and  C_4
REMARK    3  A    between atoms: C_2  and  N_13
REMARK    4  A    between atoms: N_13  and  C_14
REMARK    5  A    between atoms: C_15  and  C_17
REMARK    6  A    between atoms: C_17  and  S_18
REMARK    7  A    between atoms: S_18  and  C_19
REMARK    8  A    between atoms: N_23  and  C_24
REMARK    9  A    between atoms: C_27  and  O_30
REMARK   10  A    between atoms: O_30  and  C_31
REMARK                            x       y       z     vdW  Elec       q    Type
REMARK                         _______ _______ _______ _____ _____    ______ ____
ROOT
ATOM      1  S   UNL     1      -3.007  -2.807  -4.407  0.00  0.00    -0.075 S 
ENDROOT
BRANCH   1   2
ATOM      2  C   UNL     1      -2.574  -4.092  -5.532  0.00  0.00    +0.214 A 
ATOM      3  N   UNL     1      -1.556  -4.918  -5.422  0.00  0.00    -0.101 NA
ATOM      4  N   UNL     1      -1.528  -5.733  -6.414  0.00  0.00    -0.022 NA
ATOM      5  N   UNL     1      -2.506  -5.494  -7.219  0.00  0.00    -0.038 NA
ATOM      6  N   UNL     1      -3.230  -4.420  -6.674  0.00  0.00    -0.187 N 
BRANCH   6   7
ATOM      7  C   UNL     1      -4.382  -3.814  -7.199  0.00  0.00    +0.070 A 
ATOM      8  C   UNL     1      -5.367  -3.337  -6.344  0.00  0.00    +0.031 A 
ATOM      9  C   UNL     1      -6.498  -2.737  -6.861  0.00  0.00    +0.048 A 
ATOM     10  C   UNL     1      -6.655  -2.620  -8.234  0.00  0.00    +0.130 A 
ATOM     11  C   UNL     1      -5.674  -3.101  -9.089  0.00  0.00    +0.048 A 
ATOM     12  C   UNL     1      -4.540  -3.696  -8.573  0.00  0.00    +0.031 A 
BRANCH  10  13
ATOM     13  O   UNL     1      -7.772  -2.034  -8.742  0.00  0.00    -0.406 OA
BRANCH  13  14
ATOM     14  C   UNL     1      -8.741  -1.562  -7.805  0.00  0.00    +0.575 C 
ATOM     15  F   UNL     1      -8.156  -0.599  -6.975  0.00  0.00    -0.133 F 
ATOM     16  F   UNL     1      -9.817  -0.992  -8.493  0.00  0.00    -0.133 F 
ATOM     17  F   UNL     1      -9.198  -2.631  -7.028  0.00  0.00    -0.133 F 
ENDBRANCH  13  14
ENDBRANCH  10  13
ENDBRANCH   6   7
ENDBRANCH   1   2
BRANCH   1  18
ATOM     18  C   UNL     1      -1.693  -3.009  -3.179  0.00  0.00    +0.173 C 
BRANCH  18  21
ATOM     19  N   UNL     1      -0.996  -1.946  -1.057  0.00  0.00    -0.295 N 
ATOM     20  C   UNL     1       0.115  -2.898  -1.000  0.00  0.00    +0.132 C 
ATOM     21  C   UNL     1      -1.865  -1.985  -2.086  0.00  0.00    +0.226 C 
ATOM     22  O   UNL     1      -2.786  -1.197  -2.133  0.00  0.00    -0.275 OA
BRANCH  19  24
ATOM     23  C   UNL     1      -1.199  -1.655   1.363  0.00  0.00    +0.035 C 
ATOM     24  C   UNL     1      -1.164  -0.951   0.005  0.00  0.00    +0.128 C 
BRANCH  24  25
ATOM     25  C   UNL     1      -0.010   0.018  -0.028  0.00  0.00    +0.100 A 
ATOM     26  N   UNL     1      -0.048   1.321  -0.025  0.00  0.00    -0.242 NA
ATOM     27  C   UNL     1       1.069   2.078  -0.057  0.00  0.00    +0.079 A 
ATOM     28  C   UNL     1       1.190   3.486  -0.060  0.00  0.00    +0.029 A 
ATOM     29  C   UNL     1       2.414   4.077  -0.096  0.00  0.00    +0.002 A 
ATOM     30  C   UNL     1       3.583   3.330  -0.131  0.00  0.00    +0.001 A 
ATOM     31  C   UNL     1       3.507   1.950  -0.130  0.00  0.00    +0.017 A 
ATOM     32  C   UNL     1       2.275   1.343  -0.093  0.00  0.00    +0.039 A 
ATOM     33  S   UNL     1       1.690  -0.333  -0.078  0.00  0.00    -0.070 S 
ENDBRANCH  24  25
ENDBRANCH  19  24
ENDBRANCH  18  21
ENDBRANCH   1  18
TORSDOF 8
