REMARK  Name = ZINC62535799
REMARK  6 active torsions:
REMARK  status: ('A' for Active; 'I' for Inactive)
REMARK    1  A    between atoms: C_1  and  C_2
REMARK    2  A    between atoms: C_2  and  C_3
REMARK    3  A    between atoms: C_2  and  C_4
REMARK    4  A    between atoms: C_6  and  N_18
REMARK    5  A    between atoms: C_12  and  C_16
REMARK    6  A    between atoms: C_12  and  C_17
REMARK                            x       y       z     vdW  Elec       q    Type
REMARK                         _______ _______ _______ _____ _____    ______ ____
ROOT
ATOM      1  C   UNL     1       0.064  -0.818  -0.488  0.00  0.00    +0.000 A 
ATOM      2  C   UNL     1      -0.499  -0.303  -1.642  0.00  0.00    +0.030 A 
ATOM      3  C   UNL     1       0.202  -0.345  -2.840  0.00  0.00    +0.027 A 
ATOM      4  C   UNL     1       1.474  -0.902  -2.881  0.00  0.00    +0.049 A 
ATOM      5  C   UNL     1       2.038  -1.416  -1.726  0.00  0.00    +0.078 A 
ATOM      6  C   UNL     1       1.332  -1.371  -0.524  0.00  0.00    +0.145 A 
ATOM      7  O   UNL     1       1.891  -1.884   0.605  0.00  0.00    -0.489 OA
ATOM      8  C   UNL     1       1.933  -3.304   0.724  0.00  0.00    +0.244 C 
ATOM      9  C   UNL     1       2.371  -3.937  -0.595  0.00  0.00    +0.076 C 
ATOM     10  C   UNL     1       3.535  -3.174  -1.173  0.00  0.00    +0.226 C 
ATOM     11  O   UNL     1       4.654  -3.641  -1.125  0.00  0.00    -0.275 OA
ATOM     12  N   UNL     1       3.322  -1.977  -1.748  0.00  0.00    -0.282 N 
ATOM     13  C   UNL     1       2.789  -5.388  -0.347  0.00  0.00    +0.024 C 
ATOM     14  C   UNL     1       1.204  -3.910  -1.584  0.00  0.00    +0.024 C 
ATOM     15  H   UNL     1       4.057  -1.503  -2.168  0.00  0.00    +0.155 HD
ENDROOT
BRANCH   1  17
ATOM     16  C   UNL     1      -1.015   0.685   1.163  0.00  0.00    +0.012 C 
ATOM     17  C   UNL     1      -0.700  -0.770   0.809  0.00  0.00    +0.017 C 
ATOM     18  C   UNL     1      -2.007  -1.552   0.661  0.00  0.00    +0.012 C 
ENDBRANCH   1  17
BRANCH   3  19
ATOM     19  N   UNL     1      -0.372   0.175  -4.005  0.00  0.00    -0.358 N 
ATOM     20  H   UNL     1      -1.260   0.564  -3.976  0.00  0.00    +0.142 HD
ATOM     21  H   UNL     1       0.118   0.146  -4.842  0.00  0.00    +0.142 HD
ENDBRANCH   3  19
TORSDOF 2
