REMARK  Name = ZINC39699300
REMARK  10 active torsions:
REMARK  status: ('A' for Active; 'I' for Inactive)
REMARK    1  A    between atoms: C_1  and  C_2
REMARK    2  A    between atoms: C_4  and  C_38
REMARK    3  A    between atoms: C_9  and  C_14
REMARK    4  A    between atoms: C_14  and  C_16
REMARK    5  A    between atoms: C_14  and  N_26
REMARK    6  A    between atoms: N_21  and  C_22
REMARK    7  A    between atoms: C_22  and  C_23
REMARK    8  A    between atoms: C_22  and  C_24
REMARK    9  A    between atoms: C_22  and  C_25
REMARK   10  A    between atoms: N_29  and  C_32
REMARK                            x       y       z     vdW  Elec       q    Type
REMARK                         _______ _______ _______ _____ _____    ______ ____
ROOT
ATOM      1  C   UNL     1       0.587  -4.950   2.540  0.00  0.00    +0.113 C 
ENDROOT
BRANCH   1  10
ATOM      2  C   UNL     1      -6.411  -3.977   1.497  0.00  0.00    +0.044 C 
ATOM      3  C   UNL     1      -4.957  -3.753   1.168  0.00  0.00    -0.050 A 
ATOM      4  C   UNL     1      -4.585  -2.613   0.457  0.00  0.00    +0.008 A 
ATOM      5  C   UNL     1      -3.296  -2.344   0.124  0.00  0.00    -0.028 A 
ATOM      6  C   UNL     1      -2.264  -3.227   0.495  0.00  0.00    +0.043 A 
ATOM      7  N   UNL     1      -1.002  -2.953   0.164  0.00  0.00    -0.284 N 
ATOM      8  C   UNL     1       0.014  -3.738   0.479  0.00  0.00    +0.226 C 
ATOM      9  O   UNL     1       1.145  -3.435   0.150  0.00  0.00    -0.275 OA
ATOM     10  C   UNL     1      -0.236  -5.013   1.252  0.00  0.00    +0.119 C 
ATOM     11  C   UNL     1      -1.669  -5.330   1.631  0.00  0.00    -0.003 C 
ATOM     12  C   UNL     1      -2.628  -4.439   1.247  0.00  0.00    -0.006 A 
ATOM     13  C   UNL     1      -4.036  -4.664   1.576  0.00  0.00    +0.012 A 
ATOM     14  C   UNL     1      -2.967  -1.092  -0.647  0.00  0.00    +0.046 C 
ATOM     15  H   UNL     1      -0.821  -2.139  -0.332  0.00  0.00    +0.155 HD
ENDBRANCH   1  10
BRANCH   1  16
ATOM     16  N   UNL     1       1.984  -4.634   2.215  0.00  0.00    -0.299 NA
ATOM     17  C   UNL     1       2.773  -4.417   3.435  0.00  0.00    +0.066 C 
ATOM     18  C   UNL     1       4.204  -4.032   3.052  0.00  0.00    -0.063 C 
ATOM     19  N   UNL     1       4.801  -5.106   2.246  0.00  0.00    +0.383 N 
ATOM     20  C   UNL     1       4.016  -5.293   1.019  0.00  0.00    -0.063 C 
ATOM     21  C   UNL     1       2.583  -5.689   1.385  0.00  0.00    +0.066 C 
ATOM     22  H   UNL     1       4.804  -5.963   2.778  0.00  0.00    -0.081 HD
BRANCH  19  23
ATOM     23  C   UNL     1       6.180  -4.744   1.894  0.00  0.00    -0.068 C 
ATOM     24  C   UNL     1       6.999  -4.550   3.172  0.00  0.00    -0.015 C 
ATOM     25  C   UNL     1       8.435  -4.173   2.805  0.00  0.00    -0.002 C 
ATOM     26  C   UNL     1       9.057  -5.291   1.966  0.00  0.00    -0.000 C 
ATOM     27  C   UNL     1       8.239  -5.485   0.688  0.00  0.00    -0.002 C 
ATOM     28  C   UNL     1       6.802  -5.862   1.054  0.00  0.00    -0.015 C 
ENDBRANCH  19  23
ENDBRANCH   1  16
BRANCH   1  29
ATOM     29  C   UNL     1       0.523  -6.303   3.253  0.00  0.00    +0.214 C 
ATOM     30  N   UNL     1       0.222  -7.384   2.295  0.00  0.00    -0.226 N 
ATOM     31  N   UNL     1      -0.995  -7.937   2.712  0.00  0.00    -0.064 NA
ATOM     32  N   UNL     1      -1.446  -7.388   3.713  0.00  0.00    -0.061 NA
ATOM     33  N   UNL     1      -0.623  -6.351   4.181  0.00  0.00    -0.208 N 
ATOM     34  H   UNL     1       0.757  -7.655   1.532  0.00  0.00    +0.172 HD
BRANCH  33  35
ATOM     35  C   UNL     1      -0.852  -5.494   5.346  0.00  0.00    +0.047 C 
ATOM     36  C   UNL     1      -0.854  -4.028   4.908  0.00  0.00    +0.033 C 
ATOM     37  C   UNL     1      -2.202  -5.840   5.976  0.00  0.00    +0.033 C 
ATOM     38  C   UNL     1       0.262  -5.718   6.371  0.00  0.00    +0.033 C 
ENDBRANCH  33  35
ENDBRANCH   1  29
TORSDOF 5
