REMARK  Name = ZINC02745125
REMARK  4 active torsions:
REMARK  status: ('A' for Active; 'I' for Inactive)
REMARK    1  A    between atoms: C_4  and  C_7
REMARK    2  A    between atoms: C_11  and  N_21
REMARK    3  A    between atoms: C_16  and  O_20
REMARK    4  A    between atoms: C_17  and  C_18
REMARK                            x       y       z     vdW  Elec       q    Type
REMARK                         _______ _______ _______ _____ _____    ______ ____
ROOT
ATOM      1  C   UNL     1       2.343  -0.011  -0.843  0.00  0.00    +0.100 C 
ATOM      2  C   UNL     1       2.331   1.429  -0.402  0.00  0.00    +0.009 A 
ATOM      3  C   UNL     1       3.510   2.150  -0.402  0.00  0.00    +0.031 A 
ATOM      4  C   UNL     1       3.515   3.478  -0.000  0.00  0.00    +0.025 A 
ATOM      5  C   UNL     1       2.331   4.082   0.405  0.00  0.00    +0.026 A 
ATOM      6  C   UNL     1       1.155   3.361   0.406  0.00  0.00    +0.048 A 
ATOM      7  C   UNL     1       1.151   2.031   0.002  0.00  0.00    +0.136 A 
ATOM      8  O   UNL     1      -0.016   1.338   0.009  0.00  0.00    -0.425 OA
ATOM      9  C   UNL     1       0.002  -0.004   0.002  0.00  0.00    +0.299 C 
ATOM     10  C   UNL     1       1.088  -0.703  -0.390  0.00  0.00    +0.121 C 
ENDROOT
BRANCH   1  14
ATOM     11  C   UNL     1       2.591  -0.175  -5.104  0.00  0.00    +0.000 A 
ATOM     12  C   UNL     1       3.586  -0.744  -4.332  0.00  0.00    +0.000 A 
ATOM     13  C   UNL     1       3.506  -0.691  -2.953  0.00  0.00    +0.004 A 
ATOM     14  C   UNL     1       2.430  -0.069  -2.346  0.00  0.00    -0.035 A 
ATOM     15  C   UNL     1       1.433   0.495  -3.119  0.00  0.00    +0.004 A 
ATOM     16  C   UNL     1       1.515   0.446  -4.498  0.00  0.00    +0.000 A 
ENDBRANCH   1  14
BRANCH   4  17
ATOM     17  N   UNL     1       4.709   4.207  -0.002  0.00  0.00    -0.358 N 
ATOM     18  H   UNL     1       4.711   5.135   0.280  0.00  0.00    +0.142 HD
ATOM     19  H   UNL     1       5.535   3.784  -0.285  0.00  0.00    +0.142 HD
ENDBRANCH   4  17
BRANCH  10  20
ATOM     20  C   UNL     1       1.044  -2.135  -0.374  0.00  0.00    +0.103 C 
ATOM     21  N   UNL     1       1.009  -3.270  -0.362  0.00  0.00    -0.191 NA
ENDBRANCH  10  20
BRANCH   9  22
ATOM     22  O   UNL     1      -1.100  -0.676   0.400  0.00  0.00    -0.479 OA
ATOM     23  H   UNL     1      -1.834  -0.105   0.665  0.00  0.00    +0.295 HD
ENDBRANCH   9  22
TORSDOF 4
