REMARK  Name = ZINC16952794
REMARK  3 active torsions:
REMARK  status: ('A' for Active; 'I' for Inactive)
REMARK    1  A    between atoms: C_1  and  C_2
REMARK    2  A    between atoms: C_7  and  N_8
REMARK    3  A    between atoms: C_9  and  C_11
REMARK                            x       y       z     vdW  Elec       q    Type
REMARK                         _______ _______ _______ _____ _____    ______ ____
ROOT
ATOM      1  C   UNL     1      -1.738   6.868  -1.706  0.00  0.00    +0.122 C 
ATOM      2  C   UNL     1      -1.596   5.897  -0.761  0.00  0.00    +0.098 C 
ATOM      3  C   UNL     1      -2.735   5.031  -0.362  0.00  0.00    +0.257 C 
ATOM      4  O   UNL     1      -3.873   5.457  -0.416  0.00  0.00    -0.269 OA
ATOM      5  N   UNL     1      -2.506   3.781   0.059  0.00  0.00    -0.280 N 
ATOM      6  C   UNL     1      -1.270   3.151   0.047  0.00  0.00    +0.048 A 
ATOM      7  C   UNL     1      -1.243   1.756   0.039  0.00  0.00    +0.024 A 
ATOM      8  C   UNL     1      -0.042   1.080   0.026  0.00  0.00    +0.002 A 
ATOM      9  C   UNL     1       1.154   1.778   0.010  0.00  0.00    +0.001 A 
ATOM     10  C   UNL     1       1.145   3.158   0.015  0.00  0.00    +0.017 A 
ATOM     11  C   UNL     1      -0.062   3.848   0.034  0.00  0.00    +0.034 A 
ATOM     12  S   UNL     1      -0.047   5.613   0.045  0.00  0.00    -0.081 S 
ATOM     13 CL   UNL     1      -3.276   7.114  -2.473  0.00  0.00    -0.077 Cl
ATOM     14  H   UNL     1      -3.263   3.276   0.397  0.00  0.00    +0.155 HD
ENDROOT
BRANCH   1  16
ATOM     15  N   UNL     1      -0.772   8.637  -2.998  0.00  0.00    -0.281 N 
ATOM     16  C   UNL     1      -0.631   7.676  -2.063  0.00  0.00    +0.261 C 
ATOM     17  O   UNL     1       0.448   7.504  -1.524  0.00  0.00    -0.269 OA
ATOM     18  H   UNL     1      -1.607   8.722  -3.483  0.00  0.00    +0.155 HD
BRANCH  15  25
ATOM     19  C   UNL     1      -0.670   9.873  -5.558  0.00  0.00    +0.046 C 
ATOM     20  C   UNL     1       0.375  10.135  -4.505  0.00  0.00    -0.028 A 
ATOM     21  C   UNL     1       1.421  10.997  -4.768  0.00  0.00    +0.025 A 
ATOM     22  C   UNL     1       2.381  11.238  -3.802  0.00  0.00    +0.041 A 
ATOM     23  C   UNL     1       2.296  10.617  -2.568  0.00  0.00    +0.022 A 
ATOM     24  C   UNL     1       1.249   9.759  -2.297  0.00  0.00    +0.025 A 
ATOM     25  C   UNL     1       0.287   9.510  -3.268  0.00  0.00    +0.037 A 
ATOM     26 CL   UNL     1       3.695  12.323  -4.137  0.00  0.00    -0.084 Cl
ENDBRANCH  15  25
ENDBRANCH   1  16
TORSDOF 2
