REMARK  Name = ZINC40472753
REMARK  8 active torsions:
REMARK  status: ('A' for Active; 'I' for Inactive)
REMARK    1  A    between atoms: C_1  and  C_2
REMARK    2  A    between atoms: C_2  and  C_3
REMARK    3  A    between atoms: C_3  and  C_4
REMARK    4  A    between atoms: C_4  and  C_6
REMARK    5  A    between atoms: C_4  and  N_19
REMARK    6  A    between atoms: N_8  and  C_9
REMARK    7  A    between atoms: C_12  and  C_16
REMARK    8  A    between atoms: C_13  and  O_15
REMARK                            x       y       z     vdW  Elec       q    Type
REMARK                         _______ _______ _______ _____ _____    ______ ____
ROOT
ATOM      1  C   UNL     1      -2.821  -2.587  -0.109  0.00  0.00    +0.203 C 
ATOM      2  O   UNL     1      -3.402  -2.984   0.879  0.00  0.00    -0.277 OA
ATOM      3  N   UNL     1      -3.433  -2.620  -1.310  0.00  0.00    -0.287 N 
ATOM      4  H   UNL     1      -2.995  -2.241  -2.088  0.00  0.00    +0.155 HD
ENDROOT
BRANCH   3   5
ATOM      5  C   UNL     1      -4.696  -3.197  -1.432  0.00  0.00    +0.037 A 
ATOM      6  C   UNL     1      -5.620  -3.072  -0.396  0.00  0.00    +0.024 A 
ATOM      7  C   UNL     1      -6.859  -3.632  -0.505  0.00  0.00    +0.020 A 
ATOM      8  C   UNL     1      -7.210  -4.339  -1.662  0.00  0.00    +0.105 A 
ATOM      9  C   UNL     1      -6.282  -4.468  -2.709  0.00  0.00    +0.133 A 
ATOM     10  C   UNL     1      -5.030  -3.889  -2.589  0.00  0.00    +0.069 A 
BRANCH   8  11
ATOM     11  C   UNL     1      -8.543  -4.944  -1.780  0.00  0.00    +0.390 C 
ATOM     12  O   UNL     1      -9.350  -4.831  -0.866  0.00  0.00    -0.240 OA
ATOM     13  O   UNL     1      -8.848  -5.561  -2.792  0.00  0.00    -0.240 OA
ENDBRANCH   8  11
BRANCH   9  14
ATOM     14  O   UNL     1      -6.612  -5.150  -3.833  0.00  0.00    -0.506 OA
ATOM     15  H   UNL     1      -7.014  -4.603  -4.522  0.00  0.00    +0.292 HD
ENDBRANCH   9  14
ENDBRANCH   3   5
BRANCH   1  16
ATOM     16  C   UNL     1      -1.415  -2.057   0.005  0.00  0.00    +0.013 C 
BRANCH  16  17
ATOM     17  N   UNL     1      -0.806  -2.549   1.249  0.00  0.00    +0.386 N 
ATOM     18  H   UNL     1       0.136  -2.194   1.325  0.00  0.00    -0.089 HD
ATOM     19  H   UNL     1      -1.350  -2.232   2.037  0.00  0.00    -0.089 HD
ATOM     20  H   UNL     1      -0.786  -3.557   1.237  0.00  0.00    -0.089 HD
ENDBRANCH  16  17
BRANCH  16  21
ATOM     21  C   UNL     1      -1.446  -0.528   0.022  0.00  0.00    -0.007 C 
BRANCH  21  23
ATOM     22  C   UNL     1      -0.045   1.541   0.029  0.00  0.00    +0.004 C 
ATOM     23  C   UNL     1      -0.014   0.011   0.012  0.00  0.00    -0.005 C 
ENDBRANCH  21  23
ENDBRANCH  16  21
ENDBRANCH   1  16
TORSDOF 7
