REMARK  Name = ZINC21084090
REMARK  10 active torsions:
REMARK  status: ('A' for Active; 'I' for Inactive)
REMARK    1  A    between atoms: C_1  and  C_2
REMARK    2  A    between atoms: C_2  and  C_3
REMARK    3  A    between atoms: C_3  and  C_4
REMARK    4  A    between atoms: C_4  and  N_5
REMARK    5  A    between atoms: C_6  and  N_27
REMARK    6  A    between atoms: C_7  and  N_14
REMARK    7  A    between atoms: N_14  and  C_15
REMARK    8  A    between atoms: C_15  and  C_16
REMARK    9  A    between atoms: C_17  and  C_19
REMARK   10  A    between atoms: C_19  and  C_20
REMARK                            x       y       z     vdW  Elec       q    Type
REMARK                         _______ _______ _______ _____ _____    ______ ____
ROOT
ATOM      1  N   UNL     1      -2.779  -2.596   0.054  0.00  0.00    -0.280 N 
ATOM      2  C   UNL     1      -3.449  -2.848   1.228  0.00  0.00    +0.127 A 
ATOM      3  C   UNL     1      -4.755  -3.288   1.177  0.00  0.00    +0.140 A 
ATOM      4  C   UNL     1      -5.364  -3.466  -0.079  0.00  0.00    +0.277 A 
ATOM      5  O   UNL     1      -6.518  -3.853  -0.153  0.00  0.00    -0.266 OA
ATOM      6  N   UNL     1      -4.663  -3.205  -1.200  0.00  0.00    -0.273 N 
ATOM      7  H   UNL     1      -5.082  -3.327  -2.067  0.00  0.00    +0.173 HD
ATOM      8  C   UNL     1      -3.392  -2.771  -1.131  0.00  0.00    +0.331 A 
ATOM      9  O   UNL     1      -2.784  -2.538  -2.158  0.00  0.00    -0.246 OA
ENDROOT
BRANCH   3  10
ATOM     10  N   UNL     1      -5.469  -3.556   2.365  0.00  0.00    -0.264 N 
ATOM     11  C   UNL     1      -5.840  -4.819   2.659  0.00  0.00    +0.224 C 
ATOM     12  O   UNL     1      -5.641  -5.711   1.861  0.00  0.00    -0.275 OA
BRANCH  10  13
ATOM     13  C   UNL     1      -5.808  -2.462   3.278  0.00  0.00    +0.110 C 
ATOM     14  C   UNL     1      -7.219  -1.957   2.970  0.00  0.00    +0.025 C 
ENDBRANCH  10  13
BRANCH  11  15
ATOM     15  C   UNL     1      -6.502  -5.123   3.978  0.00  0.00    +0.131 C 
BRANCH  15  16
ATOM     16  C   UNL     1      -6.814  -6.595   4.057  0.00  0.00    -0.039 A 
ATOM     17  C   UNL     1      -8.027  -7.070   3.596  0.00  0.00    +0.005 A 
ATOM     18  C   UNL     1      -8.313  -8.421   3.668  0.00  0.00    +0.015 A 
ATOM     19  C   UNL     1      -7.385  -9.297   4.201  0.00  0.00    +0.018 A 
ATOM     20  C   UNL     1      -6.171  -8.821   4.662  0.00  0.00    +0.015 A 
ATOM     21  C   UNL     1      -5.883  -7.471   4.585  0.00  0.00    +0.005 A 
ATOM     22 BR   UNL     1      -7.776 -11.144   4.300  0.00  0.00    -0.050 Br
ENDBRANCH  15  16
ENDBRANCH  11  15
ENDBRANCH   3  10
BRANCH   2  23
ATOM     23  N   UNL     1      -2.824  -2.664   2.438  0.00  0.00    -0.343 N 
ATOM     24  H   UNL     1      -1.885  -2.420   2.468  0.00  0.00    +0.144 HD
ATOM     25  H   UNL     1      -3.321  -2.779   3.264  0.00  0.00    +0.144 HD
ENDBRANCH   2  23
BRANCH   1  26
ATOM     26  C   UNL     1      -1.391  -2.128   0.093  0.00  0.00    +0.128 C 
BRANCH  26  27
ATOM     27  C   UNL     1      -1.369  -0.599   0.144  0.00  0.00    +0.021 C 
BRANCH  27  29
ATOM     28  C   UNL     1       0.102   1.418   0.235  0.00  0.00    +0.004 C 
ATOM     29  C   UNL     1       0.080  -0.111   0.185  0.00  0.00    -0.002 C 
ENDBRANCH  27  29
ENDBRANCH  26  27
ENDBRANCH   1  26
TORSDOF 8
