REMARK  Name = ZINC59854392
REMARK  5 active torsions:
REMARK  status: ('A' for Active; 'I' for Inactive)
REMARK    1  A    between atoms: C_4  and  C_32
REMARK    2  A    between atoms: C_5  and  C_7
REMARK    3  A    between atoms: C_13  and  S_15
REMARK    4  A    between atoms: S_15  and  C_16
REMARK    5  A    between atoms: C_16  and  C_17
REMARK                            x       y       z     vdW  Elec       q    Type
REMARK                         _______ _______ _______ _____ _____    ______ ____
ROOT
ATOM      1  C   UNL     1      -3.102  -7.953   7.666  0.00  0.00    +0.251 C 
ATOM      2  O   UNL     1      -2.191  -8.681   8.006  0.00  0.00    -0.270 OA
ATOM      3  N   UNL     1      -3.306  -7.693   6.359  0.00  0.00    -0.259 N 
ATOM      4  C   UNL     1      -2.473  -8.259   5.400  0.00  0.00    +0.189 A 
ATOM      5  N   UNL     1      -1.440  -9.073   5.544  0.00  0.00    -0.125 NA
ATOM      6  N   UNL     1      -0.782  -9.501   4.556  0.00  0.00    -0.133 NA
ATOM      7  C   UNL     1      -1.086  -9.160   3.312  0.00  0.00    +0.160 A 
ATOM      8  S   UNL     1      -2.497  -8.100   3.616  0.00  0.00    -0.024 S 
ATOM      9  H   UNL     1      -4.033  -7.112   6.088  0.00  0.00    +0.157 HD
ENDROOT
BRANCH   1  14
ATOM     10  C   UNL     1      -6.189  -6.982   9.578  0.00  0.00    +0.001 A 
ATOM     11  C   UNL     1      -5.655  -6.220  10.602  0.00  0.00    +0.001 A 
ATOM     12  C   UNL     1      -4.291  -6.014  10.682  0.00  0.00    +0.016 A 
ATOM     13  C   UNL     1      -3.444  -6.575   9.728  0.00  0.00    +0.075 A 
ATOM     14  C   UNL     1      -3.988  -7.351   8.687  0.00  0.00    +0.051 A 
ATOM     15  C   UNL     1      -5.364  -7.547   8.623  0.00  0.00    +0.014 A 
BRANCH  13  16
ATOM     16  C   UNL     1      -1.986  -6.357   9.809  0.00  0.00    +0.387 C 
ATOM     17  O   UNL     1      -1.518  -5.680  10.713  0.00  0.00    -0.241 OA
ATOM     18  O   UNL     1      -1.246  -6.855   8.972  0.00  0.00    -0.241 OA
ENDBRANCH  13  16
ENDBRANCH   1  14
BRANCH   7  19
ATOM     19  S   UNL     1      -0.325  -9.623   1.792  0.00  0.00    -0.087 S 
BRANCH  19  20
ATOM     20  C   UNL     1       1.030 -10.719   2.297  0.00  0.00    +0.175 C 
BRANCH  20  21
ATOM     21  C   UNL     1       1.774 -11.193   1.075  0.00  0.00    +0.242 C 
ATOM     22  O   UNL     1       1.487 -10.757  -0.015  0.00  0.00    -0.271 OA
ATOM     23  N   UNL     1       2.759 -12.105   1.197  0.00  0.00    -0.287 N 
ATOM     24  C   UNL     1       4.096 -11.832   1.290  0.00  0.00    +0.030 A 
ATOM     25  C   UNL     1       4.761 -13.004   1.400  0.00  0.00    -0.023 A 
ATOM     26  C   UNL     1       3.811 -14.033   1.375  0.00  0.00    -0.023 A 
ATOM     27  C   UNL     1       2.592 -13.461   1.256  0.00  0.00    +0.030 A 
ATOM     28  C   UNL     1       1.298 -14.234   1.196  0.00  0.00    +0.054 C 
ATOM     29  C   UNL     1       1.621 -15.699   0.880  0.00  0.00    +0.006 C 
ATOM     30  C   UNL     1       2.714 -16.197   1.830  0.00  0.00    +0.005 C 
ATOM     31  C   UNL     1       4.044 -15.520   1.469  0.00  0.00    +0.037 C 
ATOM     32  C   UNL     1       6.259 -13.120   1.522  0.00  0.00    +0.037 C 
ATOM     33  C   UNL     1       6.886 -11.789   1.091  0.00  0.00    +0.005 C 
ATOM     34  C   UNL     1       6.189 -10.637   1.820  0.00  0.00    +0.006 C 
ATOM     35  C   UNL     1       4.763 -10.479   1.280  0.00  0.00    +0.054 C 
ENDBRANCH  20  21
ENDBRANCH  19  20
ENDBRANCH   7  19
TORSDOF 5
