REMARK  Name = ZINC66960980
REMARK  7 active torsions:
REMARK  status: ('A' for Active; 'I' for Inactive)
REMARK    1  A    between atoms: C_1  and  C_2
REMARK    2  A    between atoms: C_2  and  C_4
REMARK    3  A    between atoms: C_2  and  S_18
REMARK    4  A    between atoms: N_6  and  C_7
REMARK    5  A    between atoms: C_9  and  N_15
REMARK    6  A    between atoms: S_18  and  C_19
REMARK    7  A    between atoms: C_22  and  N_25
REMARK                            x       y       z     vdW  Elec       q    Type
REMARK                         _______ _______ _______ _____ _____    ______ ____
ROOT
ATOM      1  C   UNL     1       0.409  -0.781   1.457  0.00  0.00    +0.230 C 
ATOM      2  O   UNL     1      -0.355  -1.200   2.301  0.00  0.00    -0.274 OA
ATOM      3  N   UNL     1       1.737  -0.793   1.687  0.00  0.00    -0.282 N 
ATOM      4  H   UNL     1       2.344  -0.387   1.048  0.00  0.00    +0.155 HD
ENDROOT
BRANCH   3   5
ATOM      5  C   UNL     1       2.243  -1.393   2.848  0.00  0.00    +0.071 A 
ATOM      6  C   UNL     1       1.477  -2.320   3.541  0.00  0.00    +0.061 A 
ATOM      7  C   UNL     1       1.977  -2.910   4.686  0.00  0.00    +0.163 A 
ATOM      8  C   UNL     1       3.241  -2.578   5.143  0.00  0.00    +0.156 A 
ATOM      9  C   UNL     1       4.007  -1.653   4.455  0.00  0.00    +0.081 A 
ATOM     10  C   UNL     1       3.514  -1.064   3.305  0.00  0.00    +0.147 A 
ATOM     11  F   UNL     1       4.264  -0.166   2.629  0.00  0.00    -0.203 F 
ATOM     12  F   UNL     1       3.726  -3.156   6.263  0.00  0.00    -0.203 F 
BRANCH   7  13
ATOM     13  N   UNL     1       1.159  -3.899   5.425  0.00  0.00    +0.059 N 
ATOM     14  O   UNL     1       0.056  -4.189   5.026  0.00  0.00    -0.126 OA
ATOM     15  O   UNL     1       1.596  -4.416   6.427  0.00  0.00    -0.126 OA
ENDBRANCH   7  13
ENDBRANCH   3   5
BRANCH   1  17
ATOM     16  C   UNL     1      -0.159   1.280   0.202  0.00  0.00    +0.029 C 
ATOM     17  C   UNL     1      -0.126  -0.249   0.153  0.00  0.00    +0.134 C 
BRANCH  17  18
ATOM     18  S   UNL     1      -1.804  -0.882  -0.116  0.00  0.00    -0.113 S 
BRANCH  18  19
ATOM     19  C   UNL     1      -1.573  -2.612  -0.358  0.00  0.00    +0.009 A 
ATOM     20  C   UNL     1      -0.290  -3.141  -0.421  0.00  0.00    +0.017 A 
ATOM     21  C   UNL     1      -0.113  -4.497  -0.611  0.00  0.00    +0.034 A 
ATOM     22  C   UNL     1      -1.210  -5.329  -0.737  0.00  0.00    +0.126 A 
ATOM     23  C   UNL     1      -2.489  -4.806  -0.675  0.00  0.00    +0.034 A 
ATOM     24  C   UNL     1      -2.674  -3.451  -0.480  0.00  0.00    +0.017 A 
BRANCH  22  25
ATOM     25  N   UNL     1      -1.017  -6.782  -0.940  0.00  0.00    +0.056 N 
ATOM     26  O   UNL     1       0.101  -7.241  -0.995  0.00  0.00    -0.126 OA
ATOM     27  O   UNL     1      -1.975  -7.510  -1.051  0.00  0.00    -0.126 OA
ENDBRANCH  22  25
ENDBRANCH  18  19
ENDBRANCH  17  18
ENDBRANCH   1  17
TORSDOF 6
