REMARK  Name = ZINC12131776
REMARK  10 active torsions:
REMARK  status: ('A' for Active; 'I' for Inactive)
REMARK    1  A    between atoms: C_1  and  C_2
REMARK    2  A    between atoms: C_2  and  C_3
REMARK    3  A    between atoms: C_6  and  C_9
REMARK    4  A    between atoms: C_9  and  N_64
REMARK    5  A    between atoms: C_11  and  N_20
REMARK    6  A    between atoms: C_14  and  C_16
REMARK    7  A    between atoms: C_16  and  O_18
REMARK    8  A    between atoms: O_18  and  C_19
REMARK    9  A    between atoms: C_21  and  C_23
REMARK   10  A    between atoms: C_33  and  N_66
REMARK                            x       y       z     vdW  Elec       q    Type
REMARK                         _______ _______ _______ _____ _____    ______ ____
ROOT
ATOM      1  C   UNL     1      -2.372   1.422  -1.290  0.00  0.00    -0.055 C 
ATOM      2  C   UNL     1      -1.969   1.462   0.206  0.00  0.00    +0.055 C 
ATOM      3  C   UNL     1      -3.098   2.338   0.811  0.00  0.00    +0.016 C 
ATOM      4  C   UNL     1      -4.337   1.925  -0.011  0.00  0.00    +0.045 C 
ATOM      5  N   UNL     1      -3.846   1.342  -1.270  0.00  0.00    +0.392 N 
ATOM      6  H   UNL     1      -4.134   0.357  -1.323  0.00  0.00    -0.080 HD
ENDROOT
BRANCH   2   7
ATOM      7  N   UNL     1      -0.661   2.098   0.380  0.00  0.00    -0.316 N 
ATOM      8  C   UNL     1       0.461   1.352   0.339  0.00  0.00    +0.200 C 
ATOM      9  O   UNL     1       0.388   0.155   0.159  0.00  0.00    -0.278 OA
ATOM     10  H   UNL     1      -0.602   3.055   0.525  0.00  0.00    +0.149 HD
BRANCH   8  11
ATOM     11  C   UNL     1       1.808   2.007   0.513  0.00  0.00    +0.024 C 
ATOM     12  C   UNL     1       2.375   2.385  -0.856  0.00  0.00    +0.029 C 
ATOM     13  C   UNL     1       3.813   2.815  -0.716  0.00  0.00    -0.047 A 
ATOM     14  C   UNL     1       4.395   3.524  -1.756  0.00  0.00    +0.004 A 
ATOM     15  C   UNL     1       5.710   3.933  -1.670  0.00  0.00    +0.000 A 
ATOM     16  C   UNL     1       6.451   3.635  -0.541  0.00  0.00    +0.000 A 
ATOM     17  C   UNL     1       5.872   2.930   0.494  0.00  0.00    +0.002 A 
ATOM     18  C   UNL     1       4.550   2.519   0.410  0.00  0.00    -0.061 A 
ATOM     19  C   UNL     1       3.959   1.761   1.570  0.00  0.00    -0.042 C 
ATOM     20  C   UNL     1       2.095   0.406   2.309  0.00  0.00    -0.095 C 
ATOM     21  N   UNL     1       2.741   1.052   1.144  0.00  0.00    +0.388 N 
ATOM     22  H   UNL     1       2.996   0.330   0.460  0.00  0.00    -0.081 HD
ENDBRANCH   8  11
ENDBRANCH   2   7
BRANCH   4  23
ATOM     23  C   UNL     1      -5.197   3.133  -0.282  0.00  0.00    +0.293 C 
ATOM     24  O   UNL     1      -4.717   4.112  -0.803  0.00  0.00    -0.253 OA
BRANCH  23  25
ATOM     25  O   UNL     1      -6.496   3.120   0.054  0.00  0.00    -0.469 OA
ATOM     26  C   UNL     1      -7.264   4.318  -0.236  0.00  0.00    +0.280 C 
ENDBRANCH  23  25
ENDBRANCH   4  23
BRANCH   5  27
ATOM     27  C   UNL     1      -4.414   2.076  -2.431  0.00  0.00    -0.042 C 
BRANCH  27  31
ATOM     28  C   UNL     1      -2.817   0.459  -6.047  0.00  0.00    -0.048 A 
ATOM     29  C   UNL     1      -3.978  -0.065  -5.510  0.00  0.00    +0.004 A 
ATOM     30  C   UNL     1      -4.494   0.458  -4.339  0.00  0.00    +0.002 A 
ATOM     31  C   UNL     1      -3.851   1.506  -3.707  0.00  0.00    -0.064 A 
ATOM     32  C   UNL     1      -2.693   2.033  -4.247  0.00  0.00    +0.002 A 
ATOM     33  C   UNL     1      -2.173   1.506  -5.415  0.00  0.00    +0.004 A 
BRANCH  28  35
ATOM     34  C   UNL     1      -2.842   0.637  -8.521  0.00  0.00    +0.009 C 
ATOM     35  C   UNL     1      -2.253  -0.112  -7.323  0.00  0.00    +0.032 C 
ENDBRANCH  28  35
ENDBRANCH  27  31
ENDBRANCH   5  27
TORSDOF 7
