REMARK  Name = ZINC23344713
REMARK  7 active torsions:
REMARK  status: ('A' for Active; 'I' for Inactive)
REMARK    1  A    between atoms: C_1  and  C_2
REMARK    2  A    between atoms: C_2  and  C_4
REMARK    3  A    between atoms: C_2  and  O_17
REMARK    4  A    between atoms: N_6  and  C_7
REMARK    5  A    between atoms: O_17  and  C_18
REMARK    6  A    between atoms: C_18  and  C_20
REMARK    7  A    between atoms: C_23  and  N_25
REMARK                            x       y       z     vdW  Elec       q    Type
REMARK                         _______ _______ _______ _____ _____    ______ ____
ROOT
ATOM      1  C   UNL     1       0.734  -0.499   1.223  0.00  0.00    +0.258 C 
ATOM      2  O   UNL     1       1.775  -1.109   1.101  0.00  0.00    -0.271 OA
ATOM      3  N   UNL     1       0.223  -0.277   2.451  0.00  0.00    -0.282 N 
ATOM      4  H   UNL     1      -0.574   0.267   2.553  0.00  0.00    +0.155 HD
ENDROOT
BRANCH   3   5
ATOM      5  C   UNL     1       0.841  -0.827   3.574  0.00  0.00    +0.043 A 
ATOM      6  C   UNL     1       2.213  -0.956   3.620  0.00  0.00    +0.024 A 
ATOM      7  C   UNL     1       2.836  -1.504   4.737  0.00  0.00    +0.004 A 
ATOM      8  C   UNL     1       2.113  -1.927   5.811  0.00  0.00    +0.028 A 
ATOM      9  C   UNL     1       0.713  -1.815   5.804  0.00  0.00    +0.073 A 
ATOM     10  C   UNL     1       0.069  -1.252   4.675  0.00  0.00    +0.022 A 
ATOM     11  C   UNL     1      -1.331  -1.135   4.675  0.00  0.00    +0.013 A 
ATOM     12  C   UNL     1      -2.015  -1.567   5.776  0.00  0.00    +0.020 A 
ATOM     13  C   UNL     1      -1.322  -2.105   6.857  0.00  0.00    +0.111 A 
ATOM     14  N   UNL     1      -0.016  -2.225   6.848  0.00  0.00    -0.255 NA
ENDBRANCH   3   5
BRANCH   1  16
ATOM     15  C   UNL     1      -0.003   1.539   0.019  0.00  0.00    +0.062 C 
ATOM     16  C   UNL     1       0.011   0.009   0.003  0.00  0.00    +0.259 C 
BRANCH  16  17
ATOM     17  O   UNL     1       0.681  -0.449  -1.173  0.00  0.00    -0.448 OA
BRANCH  17  18
ATOM     18  C   UNL     1      -0.076  -0.648  -2.272  0.00  0.00    +0.347 C 
ATOM     19  O   UNL     1      -1.274  -0.439  -2.231  0.00  0.00    -0.244 OA
BRANCH  18  20
ATOM     20  C   UNL     1       0.543  -1.117  -3.512  0.00  0.00    +0.098 A 
ATOM     21  C   UNL     1      -0.047  -1.376  -4.741  0.00  0.00    +0.025 A 
ATOM     22  C   UNL     1       0.801  -1.809  -5.731  0.00  0.00    +0.041 A 
ATOM     23  C   UNL     1       2.121  -1.951  -5.453  0.00  0.00    +0.164 A 
ATOM     24  S   UNL     1       2.254  -1.495  -3.841  0.00  0.00    -0.058 S 
BRANCH  23  25
ATOM     25  N   UNL     1       3.199  -2.400  -6.363  0.00  0.00    +0.063 N 
ATOM     26  O   UNL     1       2.941  -2.691  -7.508  0.00  0.00    -0.126 OA
ATOM     27  O   UNL     1       4.337  -2.475  -5.961  0.00  0.00    -0.126 OA
ENDBRANCH  23  25
ENDBRANCH  18  20
ENDBRANCH  17  18
ENDBRANCH  16  17
ENDBRANCH   1  16
TORSDOF 6
