REMARK  Name = ZINC04828580
REMARK  7 active torsions:
REMARK  status: ('A' for Active; 'I' for Inactive)
REMARK    1  A    between atoms: C_1  and  C_2
REMARK    2  A    between atoms: C_5  and  N_11
REMARK    3  A    between atoms: C_6  and  N_8
REMARK    4  A    between atoms: C_12  and  C_14
REMARK    5  A    between atoms: C_14  and  C_15
REMARK    6  A    between atoms: C_15  and  C_16
REMARK    7  A    between atoms: C_16  and  N_17
REMARK                            x       y       z     vdW  Elec       q    Type
REMARK                         _______ _______ _______ _____ _____    ______ ____
ROOT
ATOM      1  N   UNL     1      -1.337   4.186   2.300  0.00  0.00    -0.284 N 
ATOM      2  C   UNL     1      -0.757   3.526   1.278  0.00  0.00    +0.217 C 
ATOM      3  O   UNL     1      -0.262   4.144   0.359  0.00  0.00    -0.275 OA
ATOM      4  H   UNL     1      -1.803   3.694   2.993  0.00  0.00    +0.155 HD
ENDROOT
BRANCH   1   9
ATOM      5  C   UNL     1      -1.048   9.847   2.545  0.00  0.00    +0.044 C 
ATOM      6  C   UNL     1      -1.125   8.343   2.480  0.00  0.00    -0.048 A 
ATOM      7  C   UNL     1      -0.156   7.632   1.796  0.00  0.00    +0.005 A 
ATOM      8  C   UNL     1      -0.223   6.254   1.735  0.00  0.00    +0.026 A 
ATOM      9  C   UNL     1      -1.266   5.582   2.360  0.00  0.00    +0.064 A 
ATOM     10  C   UNL     1      -2.240   6.300   3.041  0.00  0.00    +0.148 A 
ATOM     11  C   UNL     1      -2.164   7.678   3.104  0.00  0.00    +0.038 A 
BRANCH  10  12
ATOM     12  N   UNL     1      -3.356   5.589   3.704  0.00  0.00    +0.058 N 
ATOM     13  O   UNL     1      -4.258   6.221   4.224  0.00  0.00    -0.126 OA
ATOM     14  O   UNL     1      -3.372   4.371   3.730  0.00  0.00    -0.126 OA
ENDBRANCH  10  12
ENDBRANCH   1   9
BRANCH   2  15
ATOM     15  C   UNL     1      -0.725   2.019   1.277  0.00  0.00    +0.097 C 
BRANCH  15  16
ATOM     16  C   UNL     1      -0.016   1.525   0.014  0.00  0.00    +0.029 C 
BRANCH  16  17
ATOM     17  C   UNL     1       0.017  -0.004   0.013  0.00  0.00    +0.117 C 
BRANCH  17  18
ATOM     18  N   UNL     1       0.696  -0.477  -1.196  0.00  0.00    -0.234 N 
ATOM     19  C   UNL     1       0.078  -0.749  -2.360  0.00  0.00    +0.254 C 
ATOM     20  O   UNL     1      -1.113  -0.642  -2.571  0.00  0.00    -0.270 OA
ATOM     21  C   UNL     1       1.091  -1.196  -3.339  0.00  0.00    +0.049 A 
ATOM     22  C   UNL     1       1.045  -1.597  -4.664  0.00  0.00    +0.014 A 
ATOM     23  C   UNL     1       2.214  -1.970  -5.310  0.00  0.00    +0.001 A 
ATOM     24  C   UNL     1       3.423  -1.945  -4.641  0.00  0.00    +0.001 A 
ATOM     25  C   UNL     1       3.484  -1.545  -3.315  0.00  0.00    +0.014 A 
ATOM     26  C   UNL     1       2.324  -1.170  -2.656  0.00  0.00    +0.049 A 
ATOM     27  C   UNL     1       2.019  -0.703  -1.288  0.00  0.00    +0.254 C 
ATOM     28  O   UNL     1       2.828  -0.548  -0.395  0.00  0.00    -0.270 OA
ENDBRANCH  17  18
ENDBRANCH  16  17
ENDBRANCH  15  16
ENDBRANCH   2  15
TORSDOF 6
