REMARK  Name = ZINC00028194
REMARK  3 active torsions:
REMARK  status: ('A' for Active; 'I' for Inactive)
REMARK    1  A    between atoms: C_6  and  C_7
REMARK    2  A    between atoms: N_8  and  N_9
REMARK    3  A    between atoms: C_10  and  C_12
REMARK                            x       y       z     vdW  Elec       q    Type
REMARK                         _______ _______ _______ _____ _____    ______ ____
ROOT
ATOM      1  N   UNL     1       4.786   1.498   0.069  0.00  0.00    -0.203 N 
ATOM      2  C   UNL     1       3.613   2.156  -0.019  0.00  0.00    +0.270 C 
ATOM      3  O   UNL     1       3.600   3.369  -0.106  0.00  0.00    -0.268 OA
ATOM      4  H   UNL     1       4.800   0.528   0.063  0.00  0.00    +0.178 HD
ENDROOT
BRANCH   2   5
ATOM      5  C   UNL     1       2.347   1.407  -0.011  0.00  0.00    +0.119 A 
ATOM      6  C   UNL     1       1.133   2.064   0.017  0.00  0.00    +0.106 A 
ATOM      7  N   UNL     1      -0.016   1.338   0.026  0.00  0.00    -0.314 N 
ATOM      8  H   UNL     1      -0.895   1.815   0.046  0.00  0.00    +0.170 HD
ATOM      9  C   UNL     1       0.002  -0.004   0.007  0.00  0.00    +0.327 A 
ATOM     10  O   UNL     1      -1.054  -0.606   0.015  0.00  0.00    -0.247 OA
ATOM     11  N   UNL     1       1.149  -0.703  -0.021  0.00  0.00    -0.274 N 
ATOM     12  H   UNL     1       1.122  -1.702  -0.035  0.00  0.00    +0.173 HD
ATOM     13  C   UNL     1       2.339  -0.065  -0.031  0.00  0.00    +0.266 A 
ATOM     14  O   UNL     1       3.381  -0.693  -0.055  0.00  0.00    -0.267 OA
ENDBRANCH   2   5
BRANCH   1  16
ATOM     15  C   UNL     1       7.115   1.582   0.252  0.00  0.00    +0.138 C 
ATOM     16  N   UNL     1       5.985   2.215   0.167  0.00  0.00    -0.187 NA
BRANCH  15  22
ATOM     17  C   UNL     1       8.361   3.734   0.358  0.00  0.00    +0.010 A 
ATOM     18  C   UNL     1       9.545   4.434   0.461  0.00  0.00    +0.016 A 
ATOM     19  C   UNL     1      10.749   3.755   0.551  0.00  0.00    +0.018 A 
ATOM     20  C   UNL     1      10.772   2.371   0.545  0.00  0.00    +0.016 A 
ATOM     21  C   UNL     1       9.595   1.659   0.447  0.00  0.00    +0.010 A 
ATOM     22  C   UNL     1       8.377   2.337   0.356  0.00  0.00    -0.005 A 
ATOM     23 BR   UNL     1      12.367   4.723   0.684  0.00  0.00    -0.050 Br
ENDBRANCH  15  22
ENDBRANCH   1  16
TORSDOF 3
