REMARK  Name = ZINC20705587
REMARK  6 active torsions:
REMARK  status: ('A' for Active; 'I' for Inactive)
REMARK    1  A    between atoms: C_1  and  C_2
REMARK    2  A    between atoms: C_2  and  C_3
REMARK    3  A    between atoms: C_2  and  C_4
REMARK    4  A    between atoms: N_6  and  C_7
REMARK    5  A    between atoms: C_20  and  C_23
REMARK    6  A    between atoms: C_27  and  N_29
REMARK                            x       y       z     vdW  Elec       q    Type
REMARK                         _______ _______ _______ _____ _____    ______ ____
ROOT
ATOM      1  C   UNL     1      -1.245   5.145   2.304  0.00  0.00    +0.034 A 
ATOM      2  C   UNL     1      -0.654   5.813   1.240  0.00  0.00    +0.025 A 
ATOM      3  C   UNL     1      -0.567   7.189   1.249  0.00  0.00    +0.025 A 
ATOM      4  C   UNL     1      -1.058   7.918   2.326  0.00  0.00    +0.031 A 
ATOM      5  C   UNL     1      -1.657   7.242   3.394  0.00  0.00    -0.018 A 
ATOM      6  C   UNL     1      -1.746   5.867   3.379  0.00  0.00    +0.029 A 
ATOM      7  C   UNL     1      -2.191   8.058   4.506  0.00  0.00    +0.049 C 
ATOM      8  C   UNL     1      -2.295   7.527   5.890  0.00  0.00    -0.023 C 
ATOM      9  C   UNL     1      -2.137   8.532   6.743  0.00  0.00    -0.030 C 
ATOM     10  C   UNL     1      -1.876   9.831   5.978  0.00  0.00    +0.033 C 
ATOM     11  C   UNL     1      -1.254   9.289   4.689  0.00  0.00    +0.029 C 
ATOM     12  C   UNL     1      -1.447  10.133   3.441  0.00  0.00    +0.105 C 
ATOM     13  N   UNL     1      -0.930   9.315   2.323  0.00  0.00    -0.336 N 
ATOM     14  H   UNL     1      -0.435   9.800   1.469  0.00  0.00    +0.147 HD
ENDROOT
BRANCH  12  15
ATOM     15  C   UNL     1      -0.663  11.416   3.554  0.00  0.00    -0.025 A 
ATOM     16  C   UNL     1       0.696  11.420   3.300  0.00  0.00    +0.005 A 
ATOM     17  C   UNL     1       1.413  12.597   3.398  0.00  0.00    +0.003 A 
ATOM     18  C   UNL     1       0.774  13.768   3.761  0.00  0.00    +0.033 A 
ATOM     19  C   UNL     1      -0.583  13.763   4.021  0.00  0.00    +0.127 A 
ATOM     20  C   UNL     1      -1.302  12.586   3.917  0.00  0.00    +0.038 A 
BRANCH  19  21
ATOM     21  N   UNL     1      -1.267  15.016   4.410  0.00  0.00    +0.056 N 
ATOM     22  O   UNL     1      -2.463  15.012   4.639  0.00  0.00    -0.126 OA
ATOM     23  O   UNL     1      -0.634  16.053   4.501  0.00  0.00    -0.126 OA
ENDBRANCH  19  21
ENDBRANCH  12  15
BRANCH   1  26
ATOM     24  C   UNL     1      -1.500   3.089   1.131  0.00  0.00    +0.220 C 
ATOM     25  O   UNL     1      -1.672   3.710   0.103  0.00  0.00    -0.275 OA
ATOM     26  N   UNL     1      -1.332   3.747   2.295  0.00  0.00    -0.285 N 
ATOM     27  H   UNL     1      -1.264   3.185   3.239  0.00  0.00    +0.155 HD
BRANCH  24  29
ATOM     28  C   UNL     1      -1.687   1.093  -0.329  0.00  0.00    +0.017 C 
ATOM     29  C   UNL     1      -1.474   1.583   1.105  0.00  0.00    +0.069 C 
ATOM     30  C   UNL     1      -0.121   1.087   1.618  0.00  0.00    +0.017 C 
ENDBRANCH  24  29
ENDBRANCH   1  26
TORSDOF 4
