REMARK  Name = ZINC35554775
REMARK  8 active torsions:
REMARK  status: ('A' for Active; 'I' for Inactive)
REMARK    1  A    between atoms: C_1  and  C_2
REMARK    2  A    between atoms: C_7  and  C_10
REMARK    3  A    between atoms: C_11  and  C_13
REMARK    4  A    between atoms: N_26  and  C_29
REMARK    5  A    between atoms: C_29  and  C_30
REMARK    6  A    between atoms: N_32  and  C_33
REMARK    7  A    between atoms: C_33  and  C_34
REMARK    8  A    between atoms: C_33  and  C_35
REMARK                            x       y       z     vdW  Elec       q    Type
REMARK                         _______ _______ _______ _____ _____    ______ ____
ROOT
ATOM      1  C   UNL     1       4.195   0.967  -1.988  0.00  0.00    +0.098 C 
ATOM      2  C   UNL     1       4.295   1.853  -0.747  0.00  0.00    +0.051 C 
ATOM      3  C   UNL     1       3.502   3.115  -0.967  0.00  0.00    -0.026 A 
ATOM      4  C   UNL     1       3.001   3.799   0.127  0.00  0.00    +0.005 A 
ATOM      5  C   UNL     1       2.267   4.955  -0.053  0.00  0.00    +0.000 A 
ATOM      6  C   UNL     1       2.030   5.434  -1.329  0.00  0.00    +0.002 A 
ATOM      7  C   UNL     1       2.528   4.758  -2.424  0.00  0.00    +0.023 A 
ATOM      8  C   UNL     1       3.270   3.595  -2.245  0.00  0.00    +0.033 A 
ATOM      9  N   UNL     1       3.774   2.936  -3.377  0.00  0.00    -0.329 N 
ATOM     10  C   UNL     1       4.625   1.767  -3.223  0.00  0.00    +0.069 C 
ATOM     11  C   UNL     1       4.616   0.847  -4.434  0.00  0.00    -0.055 C 
ATOM     12  N   UNL     1       4.581   1.596  -5.689  0.00  0.00    +0.388 N 
ATOM     13  C   UNL     1       3.342   2.387  -5.736  0.00  0.00    -0.059 C 
ATOM     14  C   UNL     1       3.435   3.495  -4.689  0.00  0.00    +0.087 C 
ATOM     15  H   UNL     1       5.378   2.213  -5.737  0.00  0.00    -0.081 HD
ENDROOT
BRANCH   1  24
ATOM     16  C   UNL     1       3.578  -3.082  -2.350  0.00  0.00    +0.039 C 
ATOM     17  C   UNL     1       3.047  -2.818  -0.939  0.00  0.00    +0.133 C 
ATOM     18  C   UNL     1       3.218  -1.334  -0.597  0.00  0.00    +0.139 C 
ATOM     19  N   UNL     1       2.316  -0.552  -1.458  0.00  0.00    -0.296 N 
ATOM     20  C   UNL     1       0.903  -0.957  -1.528  0.00  0.00    +0.139 C 
ATOM     21  C   UNL     1       0.845  -2.460  -1.826  0.00  0.00    +0.133 C 
ATOM     22  O   UNL     1       1.660  -3.159  -0.880  0.00  0.00    -0.371 OA
ATOM     23  C   UNL     1      -0.601  -2.947  -1.715  0.00  0.00    +0.039 C 
ATOM     24  C   UNL     1       2.771   0.504  -2.161  0.00  0.00    +0.221 C 
ATOM     25  O   UNL     1       2.035   1.081  -2.933  0.00  0.00    -0.275 OA
ENDBRANCH   1  24
BRANCH  12  26
ATOM     26  C   UNL     1       4.611   0.661  -6.821  0.00  0.00    +0.019 C 
BRANCH  26  27
ATOM     27  C   UNL     1       4.698   1.436  -8.111  0.00  0.00    +0.197 C 
ATOM     28  O   UNL     1       4.732   2.648  -8.088  0.00  0.00    -0.278 OA
ATOM     29  N   UNL     1       4.739   0.782  -9.288  0.00  0.00    -0.315 N 
ATOM     30  H   UNL     1       4.712  -0.187  -9.306  0.00  0.00    +0.149 HD
BRANCH  29  31
ATOM     31  C   UNL     1       4.824   1.536 -10.542  0.00  0.00    +0.067 C 
ATOM     32  C   UNL     1       6.288   1.865 -10.841  0.00  0.00    +0.027 C 
ATOM     33  C   UNL     1       4.246   0.695 -11.682  0.00  0.00    +0.027 C 
ENDBRANCH  29  31
ENDBRANCH  26  27
ENDBRANCH  12  26
TORSDOF 4
