REMARK  Name = ZINC36242891
REMARK  3 active torsions:
REMARK  status: ('A' for Active; 'I' for Inactive)
REMARK    1  A    between atoms: C_1  and  C_2
REMARK    2  A    between atoms: C_4  and  N_18
REMARK    3  A    between atoms: N_8  and  C_9
REMARK                            x       y       z     vdW  Elec       q    Type
REMARK                         _______ _______ _______ _____ _____    ______ ____
ROOT
ATOM      1  C   UNL     1      -0.592   1.466   0.047  0.00  0.00    +0.045 C 
ATOM      2  C   UNL     1      -0.424  -0.031   0.029  0.00  0.00    -0.030 A 
ATOM      3  C   UNL     1      -0.520  -0.733  -1.165  0.00  0.00    +0.031 A 
ATOM      4  C   UNL     1      -0.358  -2.112  -1.137  0.00  0.00    +0.065 A 
ATOM      5  C   UNL     1      -0.105  -2.739   0.087  0.00  0.00    +0.144 A 
ATOM      6  N   UNL     1      -0.022  -2.030   1.200  0.00  0.00    -0.238 NA
ATOM      7  C   UNL     1      -0.167  -0.717   1.199  0.00  0.00    +0.116 A 
ATOM      8  N   UNL     1       0.060  -4.121   0.134  0.00  0.00    -0.297 N 
ATOM      9  H   UNL     1       0.091  -4.634  -0.689  0.00  0.00    +0.154 HD
ENDROOT
BRANCH   8  10
ATOM     10  C   UNL     1       0.180  -4.769   1.367  0.00  0.00    +0.052 A 
ATOM     11  C   UNL     1      -0.413  -4.226   2.499  0.00  0.00    +0.046 A 
ATOM     12  C   UNL     1      -0.292  -4.869   3.717  0.00  0.00    +0.061 A 
ATOM     13  C   UNL     1       0.420  -6.053   3.809  0.00  0.00    +0.061 A 
ATOM     14  C   UNL     1       1.012  -6.597   2.683  0.00  0.00    +0.043 A 
ATOM     15  C   UNL     1       0.889  -5.961   1.461  0.00  0.00    +0.064 A 
ATOM     16 CL   UNL     1       1.626  -6.647   0.047  0.00  0.00    -0.082 Cl
ATOM     17 CL   UNL     1       0.571  -6.857   5.340  0.00  0.00    -0.082 Cl
ATOM     18 CL   UNL     1      -1.033  -4.191   5.133  0.00  0.00    -0.082 Cl
ENDBRANCH   8  10
BRANCH   4  19
ATOM     19  N   UNL     1      -0.447  -2.862  -2.315  0.00  0.00    -0.355 N 
ATOM     20  H   UNL     1      -0.623  -2.420  -3.160  0.00  0.00    +0.142 HD
ATOM     21  H   UNL     1      -0.333  -3.825  -2.286  0.00  0.00    +0.142 HD
ENDBRANCH   4  19
TORSDOF 2
