REMARK  Name = ZINC50839013
REMARK  4 active torsions:
REMARK  status: ('A' for Active; 'I' for Inactive)
REMARK    1  A    between atoms: C_7  and  S_11
REMARK    2  A    between atoms: S_11  and  C_12
REMARK    3  A    between atoms: C_12  and  C_13
REMARK    4  A    between atoms: C_14  and  N_18
REMARK                            x       y       z     vdW  Elec       q    Type
REMARK                         _______ _______ _______ _____ _____    ______ ____
ROOT
ATOM      1  C   UNL     1      -0.016   1.360   0.009  0.00  0.00    +0.001 A 
ATOM      2  C   UNL     1       1.168   2.091   0.002  0.00  0.00    +0.002 A 
ATOM      3  C   UNL     1       2.380   1.465  -0.013  0.00  0.00    +0.028 A 
ATOM      4  C   UNL     1       2.435   0.065  -0.021  0.00  0.00    +0.075 A 
ATOM      5  C   UNL     1       1.229  -0.676  -0.013  0.00  0.00    +0.032 A 
ATOM      6  C   UNL     1       0.002  -0.004   0.002  0.00  0.00    +0.012 A 
ATOM      7  C   UNL     1       1.313  -2.091  -0.021  0.00  0.00    +0.108 A 
ATOM      8  N   UNL     1       2.518  -2.647  -0.035  0.00  0.00    -0.229 NA
ATOM      9  C   UNL     1       3.618  -1.912  -0.043  0.00  0.00    +0.223 A 
ATOM     10  N   UNL     1       3.600  -0.600  -0.036  0.00  0.00    -0.235 NA
ENDROOT
BRANCH   7  11
ATOM     11  S   UNL     1      -0.143  -3.084  -0.011  0.00  0.00    -0.099 S 
BRANCH  11  12
ATOM     12  C   UNL     1       0.487  -4.785  -0.026  0.00  0.00    +0.135 C 
BRANCH  12  13
ATOM     13  C   UNL     1      -0.671  -5.750  -0.019  0.00  0.00    +0.103 A 
ATOM     14  C   UNL     1      -1.216  -6.213   1.144  0.00  0.00    +0.107 A 
ATOM     15  S   UNL     1      -2.435  -7.223   0.580  0.00  0.00    +0.051 S 
ATOM     16  N   UNL     1      -2.201  -7.017  -1.067  0.00  0.00    -0.108 NA
ATOM     17  N   UNL     1      -1.215  -6.187  -1.132  0.00  0.00    -0.143 NA
BRANCH  14  18
ATOM     18  N   UNL     1      -0.856  -5.923   2.458  0.00  0.00    -0.350 N 
ATOM     19  H   UNL     1      -0.122  -5.314   2.636  0.00  0.00    +0.143 HD
ATOM     20  H   UNL     1      -1.338  -6.330   3.194  0.00  0.00    +0.143 HD
ENDBRANCH  14  18
ENDBRANCH  12  13
ENDBRANCH  11  12
ENDBRANCH   7  11
TORSDOF 4
