REMARK  Name = ZINC16507753
REMARK  10 active torsions:
REMARK  status: ('A' for Active; 'I' for Inactive)
REMARK    1  A    between atoms: C_1  and  C_2
REMARK    2  A    between atoms: C_2  and  C_3
REMARK    3  A    between atoms: C_3  and  N_4
REMARK    4  A    between atoms: N_4  and  C_5
REMARK    5  A    between atoms: C_5  and  C_6
REMARK    6  A    between atoms: C_16  and  C_18
REMARK    7  A    between atoms: C_21  and  O_24
REMARK    8  A    between atoms: O_24  and  C_25
REMARK    9  A    between atoms: C_26  and  C_28
REMARK   10  A    between atoms: C_32  and  N_34
REMARK                            x       y       z     vdW  Elec       q    Type
REMARK                         _______ _______ _______ _____ _____    ______ ____
ROOT
ATOM      1  C   UNL     1       1.559   7.941   1.449  0.00  0.00    +0.234 C 
ATOM      2  O   UNL     1       1.543   7.177   2.391  0.00  0.00    -0.274 OA
ATOM      3  N   UNL     1       1.335   9.255   1.643  0.00  0.00    -0.289 N 
ATOM      4  C   UNL     1       1.272  10.178   0.500  0.00  0.00    +0.114 C 
ATOM      5  C   UNL     1      -0.160  10.745   0.422  0.00  0.00    +0.062 C 
ATOM      6  C   UNL     1      -0.610  11.099   1.802  0.00  0.00    -0.003 A 
ATOM      7  C   UNL     1      -0.069  10.702   2.986  0.00  0.00    -0.012 A 
ATOM      8  C   UNL     1      -0.686  11.171   4.144  0.00  0.00    +0.013 A 
ATOM      9  C   UNL     1      -1.765  11.982   4.055  0.00  0.00    +0.046 A 
ATOM     10  S   UNL     1      -1.972  12.126   2.286  0.00  0.00    -0.101 S 
ATOM     11  C   UNL     1       1.155   9.788   3.001  0.00  0.00    +0.137 C 
ENDROOT
BRANCH  11  12
ATOM     12  C   UNL     1       0.935   8.654   3.969  0.00  0.00    -0.022 A 
ATOM     13  C   UNL     1      -0.219   7.897   3.893  0.00  0.00    +0.009 A 
ATOM     14  C   UNL     1      -0.421   6.853   4.776  0.00  0.00    +0.046 A 
ATOM     15  C   UNL     1       0.531   6.573   5.746  0.00  0.00    +0.120 A 
ATOM     16  C   UNL     1       1.685   7.338   5.823  0.00  0.00    +0.046 A 
ATOM     17  C   UNL     1       1.885   8.377   4.934  0.00  0.00    +0.009 A 
BRANCH  15  18
ATOM     18  O   UNL     1       0.332   5.551   6.619  0.00  0.00    -0.495 OA
ATOM     19  C   UNL     1      -0.880   4.806   6.481  0.00  0.00    +0.277 C 
ENDBRANCH  15  18
ENDBRANCH  11  12
BRANCH   1  20
ATOM     20  C   UNL     1       1.831   7.420   0.061  0.00  0.00    +0.204 C 
BRANCH  20  21
ATOM     21  N   UNL     1       2.041   5.971   0.116  0.00  0.00    -0.289 N 
ATOM     22  C   UNL     1       1.009   5.132  -0.102  0.00  0.00    +0.247 C 
ATOM     23  O   UNL     1       1.168   3.932   0.009  0.00  0.00    -0.270 OA
BRANCH  22  24
ATOM     24  C   UNL     1      -0.316   5.670  -0.475  0.00  0.00    +0.039 A 
ATOM     25  C   UNL     1      -0.863   6.740   0.235  0.00  0.00    +0.013 A 
ATOM     26  C   UNL     1      -2.100   7.239  -0.118  0.00  0.00    +0.003 A 
ATOM     27  C   UNL     1      -2.798   6.680  -1.174  0.00  0.00    +0.033 A 
ATOM     28  C   UNL     1      -2.264   5.616  -1.879  0.00  0.00    +0.127 A 
ATOM     29  C   UNL     1      -1.025   5.112  -1.539  0.00  0.00    +0.045 A 
BRANCH  28  30
ATOM     30  N   UNL     1      -3.020   5.021  -3.004  0.00  0.00    +0.056 N 
ATOM     31  O   UNL     1      -4.112   5.468  -3.308  0.00  0.00    -0.126 OA
ATOM     32  O   UNL     1      -2.551   4.085  -3.625  0.00  0.00    -0.126 OA
ENDBRANCH  28  30
ENDBRANCH  22  24
BRANCH  21  33
ATOM     33  C   UNL     1       3.373   5.435   0.407  0.00  0.00    +0.108 C 
BRANCH  33  35
ATOM     34  C   UNL     1       5.573   4.789  -0.584  0.00  0.00    +0.005 C 
ATOM     35  C   UNL     1       4.182   5.349  -0.888  0.00  0.00    +0.016 C 
ENDBRANCH  33  35
ENDBRANCH  21  33
ENDBRANCH  20  21
ENDBRANCH   1  20
TORSDOF 8
