REMARK  Name = ZINC12882358
REMARK  7 active torsions:
REMARK  status: ('A' for Active; 'I' for Inactive)
REMARK    1  A    between atoms: C_1  and  C_2
REMARK    2  A    between atoms: C_2  and  C_3
REMARK    3  A    between atoms: C_14  and  C_16
REMARK    4  A    between atoms: C_16  and  C_17
REMARK    5  A    between atoms: N_25  and  C_28
REMARK    6  A    between atoms: C_28  and  C_29
REMARK    7  A    between atoms: C_29  and  C_30
REMARK                            x       y       z     vdW  Elec       q    Type
REMARK                         _______ _______ _______ _____ _____    ______ ____
ROOT
ATOM      1  C   UNL     1      -5.498  -0.117   4.262  0.00  0.00    -0.047 A 
ATOM      2  C   UNL     1      -6.836  -0.426   4.428  0.00  0.00    +0.005 A 
ATOM      3  C   UNL     1      -7.809   0.491   4.089  0.00  0.00    +0.024 A 
ATOM      4  C   UNL     1      -7.452   1.736   3.577  0.00  0.00    +0.036 A 
ATOM      5  C   UNL     1      -6.102   2.035   3.414  0.00  0.00    -0.027 A 
ATOM      6  C   UNL     1      -5.134   1.117   3.754  0.00  0.00    +0.008 A 
ATOM      7  C   UNL     1      -6.056   3.428   2.852  0.00  0.00    +0.050 C 
ATOM      8  C   UNL     1      -5.344   3.463   1.494  0.00  0.00    +0.088 C 
ATOM      9  C   UNL     1      -4.584   4.819   1.487  0.00  0.00    +0.073 C 
ATOM     10  C   UNL     1      -4.927   5.473   2.842  0.00  0.00    -0.053 C 
ATOM     11  C   UNL     1      -3.131   4.406   1.489  0.00  0.00    +0.224 C 
ATOM     12  O   UNL     1      -2.186   5.165   1.499  0.00  0.00    -0.275 OA
ATOM     13  N   UNL     1      -3.049   3.070   1.476  0.00  0.00    -0.241 N 
ATOM     14  C   UNL     1      -4.229   2.441   1.478  0.00  0.00    +0.225 C 
ATOM     15  O   UNL     1      -4.382   1.238   1.469  0.00  0.00    -0.275 OA
ATOM     16  C   UNL     1      -7.495   3.849   2.729  0.00  0.00    +0.211 C 
ATOM     17  O   UNL     1      -7.905   4.912   2.315  0.00  0.00    -0.277 OA
ATOM     18  N   UNL     1      -8.238   2.815   3.168  0.00  0.00    -0.286 N 
ATOM     19  H   UNL     1      -9.208   2.820   3.197  0.00  0.00    +0.155 HD
ATOM     20  N   UNL     1      -5.308   4.345   3.694  0.00  0.00    +0.394 N 
ATOM     21  H   UNL     1      -4.470   3.882   4.066  0.00  0.00    -0.083 HD
ATOM     22  H   UNL     1      -5.893   4.670   4.473  0.00  0.00    -0.083 HD
ENDROOT
BRANCH   1  24
ATOM     23  C   UNL     1      -4.123  -2.002   3.422  0.00  0.00    +0.009 C 
ATOM     24  C   UNL     1      -4.439  -1.123   4.634  0.00  0.00    +0.032 C 
ENDBRANCH   1  24
BRANCH  10  25
ATOM     25  C   UNL     1      -3.708   6.211   3.400  0.00  0.00    +0.020 C 
BRANCH  25  26
ATOM     26  C   UNL     1      -4.096   6.943   4.659  0.00  0.00    -0.049 A 
ATOM     27  C   UNL     1      -4.555   8.245   4.588  0.00  0.00    +0.003 A 
ATOM     28  C   UNL     1      -4.915   8.915   5.742  0.00  0.00    +0.000 A 
ATOM     29  C   UNL     1      -4.808   8.286   6.968  0.00  0.00    +0.000 A 
ATOM     30  C   UNL     1      -4.345   6.985   7.040  0.00  0.00    +0.000 A 
ATOM     31  C   UNL     1      -3.988   6.314   5.885  0.00  0.00    +0.003 A 
ENDBRANCH  25  26
ENDBRANCH  10  25
BRANCH  13  32
ATOM     32  C   UNL     1      -1.770   2.355   1.466  0.00  0.00    +0.121 C 
BRANCH  32  33
ATOM     33  C   UNL     1      -1.332   2.114   0.020  0.00  0.00    +0.054 C 
BRANCH  33  34
ATOM     34  C   UNL     1      -0.017   1.378   0.010  0.00  0.00    -0.046 A 
ATOM     35  C   UNL     1       1.171   2.086   0.002  0.00  0.00    +0.004 A 
ATOM     36  C   UNL     1       2.377   1.411  -0.015  0.00  0.00    +0.000 A 
ATOM     37  C   UNL     1       2.396   0.029  -0.022  0.00  0.00    +0.000 A 
ATOM     38  C   UNL     1       1.208  -0.679  -0.013  0.00  0.00    +0.000 A 
ATOM     39  C   UNL     1       0.002  -0.004   0.002  0.00  0.00    +0.004 A 
ENDBRANCH  33  34
ENDBRANCH  32  33
ENDBRANCH  13  32
TORSDOF 6
