REMARK  Name = ZINC12716334
REMARK  9 active torsions:
REMARK  status: ('A' for Active; 'I' for Inactive)
REMARK    1  A    between atoms: C_1  and  C_2
REMARK    2  A    between atoms: C_2  and  C_29
REMARK    3  A    between atoms: C_3  and  C_4
REMARK    4  A    between atoms: C_4  and  N_58
REMARK    5  A    between atoms: C_10  and  C_12
REMARK    6  A    between atoms: C_12  and  C_13
REMARK    7  A    between atoms: N_15  and  C_16
REMARK    8  A    between atoms: C_16  and  C_17
REMARK    9  A    between atoms: C_16  and  C_23
REMARK                            x       y       z     vdW  Elec       q    Type
REMARK                         _______ _______ _______ _____ _____    ______ ____
ROOT
ATOM      1  C   UNL     1       1.236   1.797   0.244  0.00  0.00    +0.213 C 
ATOM      2  O   UNL     1       1.332   2.991   0.435  0.00  0.00    -0.276 OA
ATOM      3  N   UNL     1       0.026   1.204   0.280  0.00  0.00    -0.305 N 
ATOM      4  H   UNL     1      -0.051   0.249   0.128  0.00  0.00    +0.150 HD
ENDROOT
BRANCH   1   5
ATOM      5  C   UNL     1       2.469   0.977  -0.033  0.00  0.00    +0.089 C 
BRANCH   5  11
ATOM      6  C   UNL     1       4.843   3.732   0.902  0.00  0.00    -0.058 C 
ATOM      7  C   UNL     1       4.293   4.781  -0.065  0.00  0.00    +0.085 C 
ATOM      8  N   UNL     1       3.781   4.133  -1.269  0.00  0.00    -0.318 N 
ATOM      9  C   UNL     1       3.482   2.830  -1.322  0.00  0.00    +0.200 C 
ATOM     10  O   UNL     1       3.033   2.379  -2.354  0.00  0.00    -0.278 OA
ATOM     11  C   UNL     1       3.680   1.903  -0.157  0.00  0.00    +0.028 C 
ATOM     12  H   UNL     1       3.651   4.670  -2.066  0.00  0.00    +0.149 HD
ATOM     13  N   UNL     1       3.810   2.691   1.083  0.00  0.00    +0.391 N 
ATOM     14  H   UNL     1       2.911   3.143   1.290  0.00  0.00    -0.080 HD
BRANCH  13  15
ATOM     15  C   UNL     1       4.174   1.804   2.212  0.00  0.00    -0.050 C 
BRANCH  15  18
ATOM     16  C   UNL     1       2.756   1.251   4.585  0.00  0.00    +0.038 C 
ATOM     17  C   UNL     1       3.708   2.418   4.529  0.00  0.00    -0.081 C 
ATOM     18  C   UNL     1       4.406   2.643   3.443  0.00  0.00    -0.047 C 
ATOM     19  C   UNL     1       3.858   3.326   5.722  0.00  0.00    +0.038 C 
ENDBRANCH  15  18
ENDBRANCH  13  15
ENDBRANCH   5  11
ENDBRANCH   1   5
BRANCH   3  20
ATOM     20  C   UNL     1      -1.174   2.003   0.543  0.00  0.00    +0.134 C 
BRANCH  20  21
ATOM     21  C   UNL     1      -1.664   2.612  -0.745  0.00  0.00    -0.023 A 
ATOM     22  C   UNL     1      -1.633   1.876  -1.914  0.00  0.00    +0.006 A 
ATOM     23  C   UNL     1      -2.087   2.433  -3.095  0.00  0.00    +0.000 A 
ATOM     24  C   UNL     1      -2.563   3.730  -3.108  0.00  0.00    +0.000 A 
ATOM     25  C   UNL     1      -2.590   4.469  -1.940  0.00  0.00    +0.000 A 
ATOM     26  C   UNL     1      -2.140   3.910  -0.758  0.00  0.00    +0.006 A 
ENDBRANCH  20  21
BRANCH  20  27
ATOM     27  C   UNL     1      -2.248   1.119   1.122  0.00  0.00    -0.023 A 
ATOM     28  C   UNL     1      -2.437  -0.156   0.625  0.00  0.00    +0.006 A 
ATOM     29  C   UNL     1      -3.419  -0.969   1.159  0.00  0.00    +0.000 A 
ATOM     30  C   UNL     1      -4.221  -0.501   2.184  0.00  0.00    +0.000 A 
ATOM     31  C   UNL     1      -4.036   0.776   2.678  0.00  0.00    +0.000 A 
ATOM     32  C   UNL     1      -3.050   1.587   2.147  0.00  0.00    +0.006 A 
ENDBRANCH  20  27
ENDBRANCH   3  20
TORSDOF 7
