REMARK  Name = ZINC36205778
REMARK  10 active torsions:
REMARK  status: ('A' for Active; 'I' for Inactive)
REMARK    1  A    between atoms: C_1  and  C_2
REMARK    2  A    between atoms: C_7  and  C_8
REMARK    3  A    between atoms: C_17  and  C_19
REMARK    4  A    between atoms: C_19  and  N_20
REMARK    5  A    between atoms: N_20  and  C_21
REMARK    6  A    between atoms: N_20  and  C_26
REMARK    7  A    between atoms: C_21  and  C_22
REMARK    8  A    between atoms: C_22  and  C_23
REMARK    9  A    between atoms: C_22  and  C_24
REMARK   10  A    between atoms: C_22  and  O_25
REMARK                            x       y       z     vdW  Elec       q    Type
REMARK                         _______ _______ _______ _____ _____    ______ ____
ROOT
ATOM      1  C   UNL     1      -0.912  -0.225   2.053  0.00  0.00    +0.004 A 
ATOM      2  C   UNL     1       0.273  -0.407   2.685  0.00  0.00    +0.056 A 
ATOM      3  S   UNL     1       0.112   0.587   4.156  0.00  0.00    -0.076 S 
ATOM      4  C   UNL     1      -1.526   1.217   3.891  0.00  0.00    +0.116 A 
ATOM      5  C   UNL     1      -1.907   0.647   2.665  0.00  0.00    +0.080 A 
ATOM      6  C   UNL     1      -3.214   0.998   2.198  0.00  0.00    +0.260 A 
ATOM      7  O   UNL     1      -3.637   0.549   1.147  0.00  0.00    -0.267 OA
ATOM      8  N   UNL     1      -3.969   1.831   2.939  0.00  0.00    -0.312 N 
ATOM      9  H   UNL     1      -4.856   2.072   2.627  0.00  0.00    +0.170 HD
ATOM     10  C   UNL     1      -3.515   2.339   4.113  0.00  0.00    +0.094 A 
ATOM     11  N   UNL     1      -2.331   2.030   4.569  0.00  0.00    -0.229 NA
ENDROOT
BRANCH   1  18
ATOM     12  C   UNL     1      -1.261   1.365  -0.339  0.00  0.00    +0.044 C 
ATOM     13  C   UNL     1      -1.358  -0.138  -0.399  0.00  0.00    -0.043 A 
ATOM     14  C   UNL     1      -1.610  -0.767  -1.601  0.00  0.00    +0.004 A 
ATOM     15  C   UNL     1      -1.699  -2.146  -1.657  0.00  0.00    +0.000 A 
ATOM     16  C   UNL     1      -1.537  -2.903  -0.510  0.00  0.00    +0.001 A 
ATOM     17  C   UNL     1      -1.286  -2.284   0.698  0.00  0.00    +0.009 A 
ATOM     18  C   UNL     1      -1.188  -0.895   0.759  0.00  0.00    -0.014 A 
ENDBRANCH   1  18
BRANCH  10  19
ATOM     19  C   UNL     1      -4.396   3.268   4.908  0.00  0.00    -0.003 C 
BRANCH  19  20
ATOM     20  N   UNL     1      -3.756   3.566   6.196  0.00  0.00    +0.388 N 
ATOM     21  H   UNL     1      -2.825   3.920   6.035  0.00  0.00    -0.081 HD
BRANCH  20  22
ATOM     22  C   UNL     1      -4.547   4.575   6.913  0.00  0.00    -0.068 C 
ATOM     23  C   UNL     1      -4.503   5.898   6.146  0.00  0.00    -0.015 C 
ATOM     24  C   UNL     1      -5.326   6.949   6.893  0.00  0.00    -0.002 C 
ATOM     25  C   UNL     1      -4.744   7.152   8.293  0.00  0.00    -0.000 C 
ATOM     26  C   UNL     1      -4.788   5.830   9.061  0.00  0.00    -0.002 C 
ATOM     27  C   UNL     1      -3.965   4.779   8.314  0.00  0.00    -0.015 C 
ENDBRANCH  20  22
BRANCH  20  28
ATOM     28  C   UNL     1      -3.682   2.340   7.002  0.00  0.00    -0.043 C 
BRANCH  28  29
ATOM     29  C   UNL     1      -4.989   1.557   6.861  0.00  0.00    +0.046 C 
ATOM     30  C   UNL     1      -4.983   0.376   7.834  0.00  0.00    +0.039 C 
ATOM     31  C   UNL     1      -6.170   2.476   7.181  0.00  0.00    +0.039 C 
BRANCH  29  32
ATOM     32  O   UNL     1      -5.112   1.071   5.523  0.00  0.00    -0.391 OA
ATOM     33  H   UNL     1      -4.396   0.481   5.252  0.00  0.00    +0.210 HD
ENDBRANCH  29  32
ENDBRANCH  28  29
ENDBRANCH  20  28
ENDBRANCH  19  20
ENDBRANCH  10  19
TORSDOF 7
