REMARK  Name = ZINC02366616
REMARK  5 active torsions:
REMARK  status: ('A' for Active; 'I' for Inactive)
REMARK    1  A    between atoms: C_9  and  C_12
REMARK    2  A    between atoms: N_14  and  N_15
REMARK    3  A    between atoms: C_16  and  C_17
REMARK    4  A    between atoms: C_20  and  O_24
REMARK    5  A    between atoms: C_21  and  O_23
REMARK                            x       y       z     vdW  Elec       q    Type
REMARK                         _______ _______ _______ _____ _____    ______ ____
ROOT
ATOM      1  C   UNL     1      -1.183  -2.069   0.002  0.00  0.00    +0.276 C 
ATOM      2  O   UNL     1      -0.125  -2.661  -0.011  0.00  0.00    -0.270 OA
ATOM      3  N   UNL     1      -1.202  -0.721   0.010  0.00  0.00    -0.204 N 
ATOM      4  H   UNL     1      -2.048  -0.247   0.020  0.00  0.00    +0.177 HD
ENDROOT
BRANCH   1  13
ATOM      5  C   UNL     1      -5.308  -6.841  -0.705  0.00  0.00    +0.004 A 
ATOM      6  C   UNL     1      -4.196  -7.281  -0.011  0.00  0.00    +0.004 A 
ATOM      7  C   UNL     1      -3.160  -6.408   0.263  0.00  0.00    +0.049 A 
ATOM      8  C   UNL     1      -3.234  -5.088  -0.157  0.00  0.00    +0.163 A 
ATOM      9  C   UNL     1      -4.353  -4.646  -0.852  0.00  0.00    +0.162 A 
ATOM     10  C   UNL     1      -5.389  -5.527  -1.125  0.00  0.00    +0.049 A 
ATOM     11  O   UNL     1      -4.449  -3.353  -1.267  0.00  0.00    -0.484 OA
ATOM     12  C   UNL     1      -3.233  -2.597  -1.303  0.00  0.00    +0.283 C 
ATOM     13  C   UNL     1      -2.478  -2.840   0.011  0.00  0.00    +0.297 C 
ATOM     14  O   UNL     1      -2.205  -4.241   0.118  0.00  0.00    -0.472 OA
ENDBRANCH   1  13
BRANCH   3  15
ATOM     15  N   UNL     1       0.002  -0.004   0.002  0.00  0.00    -0.188 NA
ATOM     16  C   UNL     1      -0.015   1.294   0.009  0.00  0.00    +0.138 C 
BRANCH  16  17
ATOM     17  C   UNL     1       1.251   2.048   0.001  0.00  0.00    -0.002 A 
ATOM     18  C   UNL     1       2.471   1.368  -0.014  0.00  0.00    +0.013 A 
ATOM     19  C   UNL     1       3.655   2.075  -0.022  0.00  0.00    +0.050 A 
ATOM     20  C   UNL     1       3.638   3.463  -0.015  0.00  0.00    +0.158 A 
ATOM     21  C   UNL     1       2.425   4.148   0.001  0.00  0.00    +0.159 A 
ATOM     22  C   UNL     1       1.234   3.445   0.003  0.00  0.00    +0.058 A 
BRANCH  21  23
ATOM     23  O   UNL     1       2.412   5.508   0.008  0.00  0.00    -0.503 OA
ATOM     24  H   UNL     1       2.400   5.905  -0.873  0.00  0.00    +0.292 HD
ENDBRANCH  21  23
BRANCH  20  25
ATOM     25  O   UNL     1       4.807   4.155  -0.022  0.00  0.00    -0.503 OA
ATOM     26  H   UNL     1       5.137   4.360  -0.908  0.00  0.00    +0.292 HD
ENDBRANCH  20  25
ENDBRANCH  16  17
ENDBRANCH   3  15
TORSDOF 5
