REMARK  Name = ZINC45382955
REMARK  8 active torsions:
REMARK  status: ('A' for Active; 'I' for Inactive)
REMARK    1  A    between atoms: C_1  and  C_2
REMARK    2  A    between atoms: C_2  and  C_4
REMARK    3  A    between atoms: C_2  and  N_13
REMARK    4  A    between atoms: C_4  and  C_5
REMARK    5  A    between atoms: C_5  and  C_6
REMARK    6  A    between atoms: C_9  and  O_12
REMARK    7  A    between atoms: N_16  and  N_17
REMARK    8  A    between atoms: N_17  and  C_18
REMARK                            x       y       z     vdW  Elec       q    Type
REMARK                         _______ _______ _______ _____ _____    ______ ____
ROOT
ATOM      1  N   UNL     1       0.798  -0.088  -1.333  0.00  0.00    -0.296 N 
ATOM      2  C   UNL     1       0.086  -0.325  -2.453  0.00  0.00    +0.316 C 
ATOM      3  O   UNL     1      -1.075   0.027  -2.521  0.00  0.00    -0.251 OA
ATOM      4  N   UNL     1       0.663  -0.952  -3.498  0.00  0.00    -0.220 N 
ATOM      5  H   UNL     1       1.725  -0.369  -1.279  0.00  0.00    +0.151 HD
ATOM      6  H   UNL     1       0.151  -1.122  -4.303  0.00  0.00    +0.174 HD
ENDROOT
BRANCH   1   8
ATOM      7  C   UNL     1       0.262   2.108  -0.399  0.00  0.00    +0.028 C 
ATOM      8  C   UNL     1       0.172   0.594  -0.198  0.00  0.00    +0.072 C 
BRANCH   8   9
ATOM      9  C   UNL     1       0.897   0.207   1.093  0.00  0.00    +0.026 C 
BRANCH   9  10
ATOM     10  C   UNL     1       0.701  -1.287   1.359  0.00  0.00    +0.037 C 
BRANCH  10  11
ATOM     11  C   UNL     1       1.416  -1.668   2.631  0.00  0.00    -0.047 A 
ATOM     12  C   UNL     1       2.735  -2.079   2.584  0.00  0.00    +0.007 A 
ATOM     13  C   UNL     1       3.392  -2.429   3.748  0.00  0.00    +0.045 A 
ATOM     14  C   UNL     1       2.727  -2.368   4.964  0.00  0.00    +0.117 A 
ATOM     15  C   UNL     1       1.403  -1.954   5.008  0.00  0.00    +0.045 A 
ATOM     16  C   UNL     1       0.753  -1.600   3.842  0.00  0.00    +0.007 A 
BRANCH  14  17
ATOM     17  O   UNL     1       3.371  -2.712   6.110  0.00  0.00    -0.507 OA
ATOM     18  H   UNL     1       3.822  -1.975   6.544  0.00  0.00    +0.292 HD
ENDBRANCH  14  17
ENDBRANCH  10  11
ENDBRANCH   9  10
ENDBRANCH   8   9
ENDBRANCH   1   8
BRANCH   4  19
ATOM     19  N   UNL     1       2.001  -1.358  -3.419  0.00  0.00    -0.258 N 
ATOM     20  H   UNL     1       2.491  -1.258  -2.588  0.00  0.00    +0.170 HD
BRANCH  19  21
ATOM     21  C   UNL     1       2.634  -1.909  -4.542  0.00  0.00    +0.121 A 
ATOM     22  C   UNL     1       2.328  -1.437  -5.813  0.00  0.00    +0.186 A 
ATOM     23  C   UNL     1       2.954  -1.982  -6.922  0.00  0.00    +0.198 A 
ATOM     24  C   UNL     1       3.885  -2.997  -6.764  0.00  0.00    +0.199 A 
ATOM     25  C   UNL     1       4.191  -3.469  -5.497  0.00  0.00    +0.198 A 
ATOM     26  C   UNL     1       3.570  -2.922  -4.386  0.00  0.00    +0.186 A 
ATOM     27  F   UNL     1       3.873  -3.379  -3.151  0.00  0.00    -0.200 F 
ATOM     28  F   UNL     1       5.098  -4.458  -5.346  0.00  0.00    -0.199 F 
ATOM     29  F   UNL     1       4.494  -3.528  -7.847  0.00  0.00    -0.199 F 
ATOM     30  F   UNL     1       2.658  -1.525  -8.158  0.00  0.00    -0.199 F 
ATOM     31  F   UNL     1       1.421  -0.448  -5.968  0.00  0.00    -0.200 F 
ENDBRANCH  19  21
ENDBRANCH   4  19
TORSDOF 7
