REMARK  Name = ZINC35002983
REMARK  12 active torsions:
REMARK  status: ('A' for Active; 'I' for Inactive)
REMARK    1  A    between atoms: C_1  and  C_2
REMARK    2  A    between atoms: C_2  and  O_3
REMARK    3  A    between atoms: O_3  and  C_4
REMARK    4  A    between atoms: C_6  and  C_11
REMARK    5  A    between atoms: C_9  and  O_10
REMARK    6  A    between atoms: C_13  and  C_14
REMARK    7  A    between atoms: C_14  and  C_15
REMARK    8  A    between atoms: C_22  and  C_25
REMARK    9  A    between atoms: N_31  and  C_32
REMARK   10  A    between atoms: C_32  and  C_33
REMARK   11  A    between atoms: C_33  and  O_34
REMARK   12  A    between atoms: O_34  and  C_35
REMARK                            x       y       z     vdW  Elec       q    Type
REMARK                         _______ _______ _______ _____ _____    ______ ____
ROOT
ATOM      1  C   UNL     1       0.583  -4.916  -0.216  0.00  0.00    +0.145 C 
ATOM      2  C   UNL     1       0.737  -5.670   1.084  0.00  0.00    +0.076 C 
ATOM      3  C   UNL     1       0.687  -6.988   0.780  0.00  0.00    +0.249 C 
ATOM      4  O   UNL     1       0.787  -8.002   1.669  0.00  0.00    -0.282 OA
ATOM      5  C   UNL     1       0.504  -7.143  -0.679  0.00  0.00    +0.288 C 
ATOM      6  O   UNL     1       0.421  -8.206  -1.262  0.00  0.00    -0.266 OA
ATOM      7  N   UNL     1       0.443  -5.934  -1.265  0.00  0.00    -0.281 N 
ENDROOT
BRANCH   1  10
ATOM      8  C   UNL     1      -1.653  -1.879   0.015  0.00  0.00    +0.162 A 
ATOM      9  C   UNL     1      -0.522  -2.679  -0.029  0.00  0.00    +0.055 A 
ATOM     10  C   UNL     1      -0.648  -4.048  -0.169  0.00  0.00    -0.019 A 
ATOM     11  C   UNL     1      -1.902  -4.623  -0.266  0.00  0.00    +0.009 A 
ATOM     12  C   UNL     1      -3.034  -3.831  -0.223  0.00  0.00    +0.049 A 
ATOM     13  C   UNL     1      -2.914  -2.458  -0.077  0.00  0.00    +0.158 A 
BRANCH  13  14
ATOM     14  O   UNL     1      -4.027  -1.679  -0.029  0.00  0.00    -0.503 OA
ATOM     15  H   UNL     1      -4.326  -1.365  -0.894  0.00  0.00    +0.292 HD
ENDBRANCH  13  14
BRANCH   8  16
ATOM     16  O   UNL     1      -1.530  -0.532   0.153  0.00  0.00    -0.489 OA
BRANCH  16  18
ATOM     17  C   UNL     1      -0.273   1.532   0.174  0.00  0.00    +0.048 C 
ATOM     18  C   UNL     1      -0.205   0.004   0.130  0.00  0.00    +0.226 C 
ENDBRANCH  16  18
ENDBRANCH   8  16
ENDBRANCH   1  10
BRANCH   2  19
ATOM     19  C   UNL     1       0.908  -5.087   2.418  0.00  0.00    +0.195 C 
ATOM     20  O   UNL     1       0.035  -5.218   3.256  0.00  0.00    -0.287 OA
BRANCH  19  21
ATOM     21  C   UNL     1       2.139  -4.341   2.745  0.00  0.00    +0.023 A 
ATOM     22  C   UNL     1       3.106  -4.109   1.761  0.00  0.00    +0.015 A 
ATOM     23  C   UNL     1       4.249  -3.411   2.066  0.00  0.00    +0.046 A 
ATOM     24  C   UNL     1       4.459  -2.927   3.359  0.00  0.00    +0.124 A 
ATOM     25  C   UNL     1       3.497  -3.167   4.337  0.00  0.00    -0.002 A 
ATOM     26  C   UNL     1       2.346  -3.854   4.040  0.00  0.00    +0.019 A 
ATOM     27  C   UNL     1       4.010  -2.551   5.624  0.00  0.00    +0.083 C 
ATOM     28  C   UNL     1       5.504  -2.320   5.295  0.00  0.00    +0.175 C 
ATOM     29  O   UNL     1       5.502  -2.213   3.861  0.00  0.00    -0.488 OA
ATOM     30  C   UNL     1       6.007  -1.027   5.938  0.00  0.00    +0.052 C 
ENDBRANCH  19  21
ENDBRANCH   2  19
BRANCH   7  31
ATOM     31  C   UNL     1       0.267  -5.677  -2.696  0.00  0.00    +0.137 C 
BRANCH  31  32
ATOM     32  C   UNL     1       1.637  -5.601  -3.373  0.00  0.00    +0.178 C 
BRANCH  32  33
ATOM     33  O   UNL     1       2.279  -6.875  -3.293  0.00  0.00    -0.381 OA
ATOM     34  C   UNL     1       3.573  -6.913  -3.899  0.00  0.00    +0.194 C 
ENDBRANCH  32  33
ENDBRANCH  31  32
ENDBRANCH   7  31
TORSDOF 9
