REMARK  Name = ZINC18179894
REMARK  6 active torsions:
REMARK  status: ('A' for Active; 'I' for Inactive)
REMARK    1  A    between atoms: C_1  and  C_2
REMARK    2  A    between atoms: C_3  and  C_27
REMARK    3  A    between atoms: N_9  and  C_10
REMARK    4  A    between atoms: N_11  and  C_12
REMARK    5  A    between atoms: C_12  and  C_14
REMARK    6  A    between atoms: N_20  and  C_21
REMARK                            x       y       z     vdW  Elec       q    Type
REMARK                         _______ _______ _______ _____ _____    ______ ____
ROOT
ATOM      1  C   UNL     1       1.108  -4.833  -0.089  0.00  0.00    +0.224 C 
ATOM      2  N   UNL     1       2.341  -4.321  -0.090  0.00  0.00    -0.141 NA
ATOM      3  N   UNL     1       0.929  -6.197  -0.096  0.00  0.00    -0.326 N 
ATOM      4  H   UNL     1       0.036  -6.569  -0.033  0.00  0.00    +0.169 HD
ENDROOT
BRANCH   1  13
ATOM      5  C   UNL     1      -1.151  -0.908  -4.519  0.00  0.00    +0.051 C 
ATOM      6  C   UNL     1      -0.807  -1.761  -3.325  0.00  0.00    +0.035 A 
ATOM      7  C   UNL     1      -1.639  -1.785  -2.214  0.00  0.00    +0.050 A 
ATOM      8  N   UNL     1      -1.332  -2.534  -1.169  0.00  0.00    -0.217 NA
ATOM      9  C   UNL     1      -0.229  -3.277  -1.155  0.00  0.00    +0.234 A 
ATOM     10  N   UNL     1       0.624  -3.289  -2.224  0.00  0.00    -0.291 N 
ATOM     11  C   UNL     1       0.341  -2.535  -3.323  0.00  0.00    +0.256 A 
ATOM     12  O   UNL     1       1.167  -2.539  -4.390  0.00  0.00    -0.267 OA
ATOM     13  N   UNL     1       0.050  -4.023  -0.081  0.00  0.00    -0.179 NA
ATOM     14  C   UNL     1      -2.896  -0.953  -2.198  0.00  0.00    +0.066 C 
ATOM     15  H   UNL     1       1.425  -3.836  -2.201  0.00  0.00    +0.172 HD
ENDBRANCH   1  13
BRANCH   3  16
ATOM     16  C   UNL     1       2.036  -7.046  -0.193  0.00  0.00    +0.042 A 
ATOM     17  C   UNL     1       3.233  -6.702   0.421  0.00  0.00    +0.026 A 
ATOM     18  C   UNL     1       4.324  -7.543   0.323  0.00  0.00    +0.002 A 
ATOM     19  C   UNL     1       4.226  -8.726  -0.385  0.00  0.00    +0.000 A 
ATOM     20  C   UNL     1       3.035  -9.072  -0.998  0.00  0.00    +0.002 A 
ATOM     21  C   UNL     1       1.939  -8.238  -0.899  0.00  0.00    +0.026 A 
ENDBRANCH   3  16
BRANCH   2  22
ATOM     22  C   UNL     1       2.519  -3.010   0.085  0.00  0.00    +0.270 C 
ATOM     23  O   UNL     1       1.565  -2.294   0.339  0.00  0.00    -0.268 OA
BRANCH  22  24
ATOM     24  C   UNL     1       3.875  -2.425  -0.031  0.00  0.00    +0.039 A 
ATOM     25  C   UNL     1       4.949  -3.220  -0.431  0.00  0.00    +0.013 A 
ATOM     26  C   UNL     1       6.209  -2.669  -0.536  0.00  0.00    +0.001 A 
ATOM     27  C   UNL     1       6.410  -1.331  -0.246  0.00  0.00    +0.000 A 
ATOM     28  C   UNL     1       5.348  -0.537   0.150  0.00  0.00    +0.001 A 
ATOM     29  C   UNL     1       4.082  -1.075   0.254  0.00  0.00    +0.013 A 
ENDBRANCH  22  24
ENDBRANCH   2  22
TORSDOF 4
