REMARK  Name = ZINC16529519
REMARK  7 active torsions:
REMARK  status: ('A' for Active; 'I' for Inactive)
REMARK    1  A    between atoms: C_1  and  C_2
REMARK    2  A    between atoms: C_7  and  C_8
REMARK    3  A    between atoms: C_18  and  C_20
REMARK    4  A    between atoms: C_20  and  N_21
REMARK    5  A    between atoms: N_21  and  C_22
REMARK    6  A    between atoms: C_25  and  C_27
REMARK    7  A    between atoms: C_31  and  N_33
REMARK                            x       y       z     vdW  Elec       q    Type
REMARK                         _______ _______ _______ _____ _____    ______ ____
ROOT
ATOM      1  C   UNL     1       2.918  -1.036   1.737  0.00  0.00    +0.138 C 
ATOM      2  C   UNL     1       2.708   0.461   1.956  0.00  0.00    -0.012 A 
ATOM      3  C   UNL     1       1.723   0.979   2.796  0.00  0.00    +0.013 A 
ATOM      4  C   UNL     1       1.595   2.317   2.944  0.00  0.00    +0.046 A 
ATOM      5  S   UNL     1       2.896   2.930   1.885  0.00  0.00    -0.101 S 
ATOM      6  C   UNL     1       3.505   1.363   1.322  0.00  0.00    -0.003 A 
ATOM      7  C   UNL     1       4.627   1.089   0.374  0.00  0.00    +0.062 C 
ATOM      8  C   UNL     1       5.037  -0.386   0.508  0.00  0.00    +0.114 C 
ATOM      9  N   UNL     1       3.814  -1.199   0.584  0.00  0.00    -0.289 N 
ATOM     10  C   UNL     1       3.518  -2.082  -0.391  0.00  0.00    +0.234 C 
ATOM     11  O   UNL     1       2.471  -2.693  -0.359  0.00  0.00    -0.274 OA
ENDROOT
BRANCH   1  18
ATOM     12  C   UNL     1       2.169  -3.428   3.174  0.00  0.00    +0.044 C 
ATOM     13  C   UNL     1       1.237  -2.845   2.142  0.00  0.00    -0.045 A 
ATOM     14  C   UNL     1       0.024  -3.456   1.883  0.00  0.00    +0.004 A 
ATOM     15  C   UNL     1      -0.830  -2.922   0.937  0.00  0.00    +0.000 A 
ATOM     16  C   UNL     1      -0.472  -1.777   0.250  0.00  0.00    +0.000 A 
ATOM     17  C   UNL     1       0.739  -1.164   0.512  0.00  0.00    +0.006 A 
ATOM     18  C   UNL     1       1.596  -1.701   1.455  0.00  0.00    -0.020 A 
ENDBRANCH   1  18
BRANCH  10  19
ATOM     19  C   UNL     1       4.490  -2.310  -1.520  0.00  0.00    +0.204 C 
BRANCH  19  20
ATOM     20  N   UNL     1       3.941  -3.308  -2.442  0.00  0.00    -0.286 N 
ATOM     21  C   UNL     1       3.455  -2.925  -3.639  0.00  0.00    +0.247 C 
ATOM     22  O   UNL     1       3.027  -3.756  -4.416  0.00  0.00    -0.270 OA
BRANCH  21  23
ATOM     23  C   UNL     1       3.444  -1.494  -4.008  0.00  0.00    +0.039 A 
ATOM     24  C   UNL     1       3.331  -0.516  -3.018  0.00  0.00    +0.014 A 
ATOM     25  C   UNL     1       3.327   0.818  -3.368  0.00  0.00    +0.023 A 
ATOM     26  C   UNL     1       3.422   1.188  -4.699  0.00  0.00    +0.071 A 
ATOM     27  C   UNL     1       3.528   0.222  -5.686  0.00  0.00    +0.145 A 
ATOM     28  C   UNL     1       3.539  -1.115  -5.348  0.00  0.00    +0.047 A 
ATOM     29 CL   UNL     1       3.408   2.869  -5.132  0.00  0.00    -0.081 Cl
BRANCH  27  30
ATOM     30  N   UNL     1       3.630   0.626  -7.107  0.00  0.00    +0.058 N 
ATOM     31  O   UNL     1       3.723  -0.222  -7.976  0.00  0.00    -0.126 OA
ATOM     32  O   UNL     1       3.619   1.806  -7.407  0.00  0.00    -0.126 OA
ENDBRANCH  27  30
ENDBRANCH  21  23
BRANCH  20  33
ATOM     33  C   UNL     1       3.921  -4.723  -2.062  0.00  0.00    +0.077 C 
ATOM     34  C   UNL     1       3.705  -5.750  -3.176  0.00  0.00    +0.024 C 
ATOM     35  C   UNL     1       2.587  -5.464  -2.170  0.00  0.00    +0.024 C 
ENDBRANCH  20  33
ENDBRANCH  19  20
ENDBRANCH  10  19
TORSDOF 6
