REMARK  Name = ZINC07836345
REMARK  12 active torsions:
REMARK  status: ('A' for Active; 'I' for Inactive)
REMARK    1  A    between atoms: C_1  and  C_2
REMARK    2  A    between atoms: C_2  and  C_4
REMARK    3  A    between atoms: C_2  and  O_14
REMARK    4  A    between atoms: N_9  and  C_10
REMARK    5  A    between atoms: C_10  and  C_11
REMARK    6  A    between atoms: C_10  and  C_12
REMARK    7  A    between atoms: C_10  and  C_13
REMARK    8  A    between atoms: O_14  and  C_15
REMARK    9  A    between atoms: C_15  and  C_17
REMARK   10  A    between atoms: C_18  and  C_26
REMARK   11  A    between atoms: C_26  and  O_27
REMARK   12  A    between atoms: O_27  and  C_28
REMARK                            x       y       z     vdW  Elec       q    Type
REMARK                         _______ _______ _______ _____ _____    ______ ____
ROOT
ATOM      1  O   UNL     1       1.404   7.828   0.033  0.00  0.00    -0.447 OA
ENDROOT
BRANCH   1   3
ATOM      2  C   UNL     1       2.367   9.537   1.476  0.00  0.00    +0.062 C 
ATOM      3  C   UNL     1       2.106   9.099   0.033  0.00  0.00    +0.259 C 
BRANCH   3   4
ATOM      4  C   UNL     1       1.265  10.138  -0.663  0.00  0.00    +0.261 C 
ATOM      5  O   UNL     1       0.145   9.861  -1.035  0.00  0.00    -0.271 OA
ATOM      6  N   UNL     1       1.758  11.375  -0.873  0.00  0.00    -0.237 N 
ATOM      7  C   UNL     1       1.006  12.303  -1.495  0.00  0.00    +0.306 C 
ATOM      8  O   UNL     1      -0.117  12.026  -1.868  0.00  0.00    -0.252 OA
ATOM      9  N   UNL     1       1.499  13.540  -1.705  0.00  0.00    -0.294 N 
ATOM     10  H   UNL     1       2.655  11.596  -0.575  0.00  0.00    +0.159 HD
ATOM     11  H   UNL     1       2.395  13.762  -1.407  0.00  0.00    +0.151 HD
BRANCH   9  12
ATOM     12  C   UNL     1       0.681  14.550  -2.382  0.00  0.00    +0.028 C 
ATOM     13  C   UNL     1      -0.598  14.793  -1.577  0.00  0.00    +0.031 C 
ATOM     14  C   UNL     1       1.471  15.856  -2.491  0.00  0.00    +0.031 C 
ATOM     15  C   UNL     1       0.316  14.055  -3.783  0.00  0.00    +0.031 C 
ENDBRANCH   9  12
ENDBRANCH   3   4
ENDBRANCH   1   3
BRANCH   1  16
ATOM     16  C   UNL     1       2.160   6.711   0.019  0.00  0.00    +0.376 C 
ATOM     17  O   UNL     1       3.373   6.798   0.007  0.00  0.00    -0.241 OA
BRANCH  16  18
ATOM     18  C   UNL     1       1.519   5.391   0.017  0.00  0.00    +0.218 A 
ATOM     19  C   UNL     1       2.177   4.202   0.004  0.00  0.00    +0.038 A 
ATOM     20  C   UNL     1       1.143   3.167   0.008  0.00  0.00    +0.026 A 
ATOM     21  C   UNL     1       1.164   1.770   0.001  0.00  0.00    +0.012 A 
ATOM     22  C   UNL     1      -0.013   1.076   0.008  0.00  0.00    +0.001 A 
ATOM     23  C   UNL     1      -1.227   1.749   0.017  0.00  0.00    +0.004 A 
ATOM     24  C   UNL     1      -1.269   3.126   0.031  0.00  0.00    +0.047 A 
ATOM     25  C   UNL     1      -0.085   3.855   0.024  0.00  0.00    +0.136 A 
ATOM     26  O   UNL     1       0.187   5.174   0.029  0.00  0.00    -0.448 OA
BRANCH  19  27
ATOM     27  C   UNL     1       3.669   3.992  -0.010  0.00  0.00    +0.199 C 
BRANCH  27  28
ATOM     28  O   UNL     1       4.129   3.932  -1.362  0.00  0.00    -0.378 OA
ATOM     29  C   UNL     1       5.538   3.735  -1.488  0.00  0.00    +0.194 C 
ENDBRANCH  27  28
ENDBRANCH  19  27
ENDBRANCH  16  18
ENDBRANCH   1  16
TORSDOF 7
