REMARK  Name = ZINC58008765
REMARK  7 active torsions:
REMARK  status: ('A' for Active; 'I' for Inactive)
REMARK    1  A    between atoms: C_4  and  C_8
REMARK    2  A    between atoms: C_8  and  C_10
REMARK    3  A    between atoms: C_8  and  N_27
REMARK    4  A    between atoms: C_10  and  N_11
REMARK    5  A    between atoms: C_12  and  C_14
REMARK    6  A    between atoms: C_14  and  N_15
REMARK    7  A    between atoms: C_22  and  N_24
REMARK                            x       y       z     vdW  Elec       q    Type
REMARK                         _______ _______ _______ _____ _____    ______ ____
ROOT
ATOM      1  N   UNL     1       4.902  -1.984  -1.766  0.00  0.00    -0.315 N 
ATOM      2  C   UNL     1       5.090  -2.532  -2.983  0.00  0.00    +0.233 C 
ATOM      3  O   UNL     1       4.319  -2.283  -3.885  0.00  0.00    -0.274 OA
ATOM      4  H   UNL     1       5.518  -2.183  -1.044  0.00  0.00    +0.149 HD
ENDROOT
BRANCH   1   5
ATOM      5  C   UNL     1       3.765  -1.089  -1.533  0.00  0.00    +0.093 C 
BRANCH   5   6
ATOM      6  C   UNL     1       3.711  -0.708  -0.052  0.00  0.00    -0.016 C 
BRANCH   6  10
ATOM      7  C   UNL     1       7.149   1.628   0.943  0.00  0.00    +0.004 A 
ATOM      8  C   UNL     1       7.019   0.345   1.441  0.00  0.00    +0.038 A 
ATOM      9  C   UNL     1       5.906  -0.412   1.119  0.00  0.00    +0.126 A 
ATOM     10  C   UNL     1       4.923   0.116   0.299  0.00  0.00    -0.006 A 
ATOM     11  C   UNL     1       5.055   1.400  -0.198  0.00  0.00    +0.045 A 
ATOM     12  C   UNL     1       6.168   2.156   0.125  0.00  0.00    +0.020 A 
ATOM     13 CL   UNL     1       3.823   2.063  -1.226  0.00  0.00    -0.083 Cl
ATOM     14  F   UNL     1       5.779  -1.667   1.605  0.00  0.00    -0.205 F 
ENDBRANCH   6  10
BRANCH   6  15
ATOM     15  N   UNL     1       2.495   0.074   0.208  0.00  0.00    +0.385 N 
ATOM     16  C   UNL     1       1.294  -0.792   0.090  0.00  0.00    -0.078 C 
ATOM     17  C   UNL     1       0.224  -0.028   0.910  0.00  0.00    -0.020 C 
ATOM     18  C   UNL     1       1.039   0.544   2.093  0.00  0.00    -0.020 C 
ATOM     19  C   UNL     1       2.498   0.573   1.600  0.00  0.00    -0.078 C 
ATOM     20  H   UNL     1       2.433   0.847  -0.438  0.00  0.00    -0.081 HD
ENDBRANCH   6  15
ENDBRANCH   5   6
ENDBRANCH   1   5
BRANCH   2  21
ATOM     21  C   UNL     1       6.259  -3.452  -3.222  0.00  0.00    +0.217 C 
BRANCH  21  22
ATOM     22  N   UNL     1       6.242  -3.911  -4.613  0.00  0.00    -0.338 N 
ATOM     23  C   UNL     1       5.681  -5.081  -5.048  0.00  0.00    +0.087 A 
ATOM     24  C   UNL     1       5.838  -5.198  -6.376  0.00  0.00    +0.027 A 
ATOM     25  C   UNL     1       6.559  -4.005  -6.829  0.00  0.00    +0.002 A 
ATOM     26  C   UNL     1       6.784  -3.227  -5.678  0.00  0.00    +0.050 A 
ATOM     27  C   UNL     1       7.454  -2.014  -5.796  0.00  0.00    +0.028 A 
ATOM     28  C   UNL     1       7.885  -1.588  -7.034  0.00  0.00    +0.035 A 
ATOM     29  C   UNL     1       7.658  -2.358  -8.166  0.00  0.00    +0.127 A 
ATOM     30  C   UNL     1       7.009  -3.557  -8.072  0.00  0.00    +0.042 A 
BRANCH  29  31
ATOM     31  N   UNL     1       8.131  -1.881  -9.485  0.00  0.00    +0.056 N 
ATOM     32  O   UNL     1       8.711  -0.824  -9.573  0.00  0.00    -0.126 OA
ATOM     33  O   UNL     1       7.936  -2.548 -10.475  0.00  0.00    -0.126 OA
ENDBRANCH  29  31
ENDBRANCH  21  22
ENDBRANCH   2  21
TORSDOF 7
