REMARK  Name = ZINC39116384
REMARK  5 active torsions:
REMARK  status: ('A' for Active; 'I' for Inactive)
REMARK    1  A    between atoms: C_1  and  C_2
REMARK    2  A    between atoms: C_4  and  C_14
REMARK    3  A    between atoms: C_7  and  C_8
REMARK    4  A    between atoms: C_10  and  C_11
REMARK    5  A    between atoms: C_11  and  C_13
REMARK                            x       y       z     vdW  Elec       q    Type
REMARK                         _______ _______ _______ _____ _____    ______ ____
ROOT
ATOM      1  C   UNL     1      -0.692   0.786  -0.124  0.00  0.00    +0.046 C 
ATOM      2  C   UNL     1      -0.443  -0.683   0.103  0.00  0.00    -0.022 A 
ATOM      3  C   UNL     1      -0.544  -1.700  -0.851  0.00  0.00    +0.026 A 
ATOM      4  C   UNL     1      -0.241  -2.872  -0.243  0.00  0.00    +0.014 A 
ATOM      5  N   UNL     1       0.048  -2.630   1.061  0.00  0.00    -0.355 N 
ATOM      6  H   UNL     1       0.297  -3.297   1.719  0.00  0.00    +0.166 HD
ATOM      7  C   UNL     1      -0.067  -1.277   1.292  0.00  0.00    +0.090 A 
ATOM      8  C   UNL     1      -0.227  -4.225  -0.906  0.00  0.00    +0.063 C 
ENDROOT
BRANCH   7   9
ATOM      9  C   UNL     1       0.165  -0.595   2.565  0.00  0.00    +0.206 C 
ATOM     10  O   UNL     1      -0.796   0.196   3.093  0.00  0.00    -0.286 OA
ATOM     11  C   UNL     1       1.367  -0.759   3.228  0.00  0.00    +0.098 C 
BRANCH  11  12
ATOM     12  C   UNL     1       2.416  -1.439   2.612  0.00  0.00    +0.157 C 
ATOM     13  O   UNL     1       2.312  -1.797   1.454  0.00  0.00    -0.293 OA
ATOM     14  C   UNL     1       3.680  -1.730   3.380  0.00  0.00    +0.091 C 
ENDBRANCH  11  12
ENDBRANCH   7   9
TORSDOF 2
