REMARK  Name = ZINC10017182
REMARK  6 active torsions:
REMARK  status: ('A' for Active; 'I' for Inactive)
REMARK    1  A    between atoms: C_1  and  C_2
REMARK    2  A    between atoms: C_4  and  N_21
REMARK    3  A    between atoms: C_7  and  N_8
REMARK    4  A    between atoms: C_9  and  C_11
REMARK    5  A    between atoms: N_13  and  C_14
REMARK    6  A    between atoms: C_14  and  C_15
REMARK                            x       y       z     vdW  Elec       q    Type
REMARK                         _______ _______ _______ _____ _____    ______ ____
ROOT
ATOM      1  N   UNL     1       0.083  -3.658   3.264  0.00  0.00    -0.278 N 
ATOM      2  C   UNL     1       0.065  -2.331   3.024  0.00  0.00    +0.303 C 
ATOM      3  O   UNL     1       0.057  -1.548   3.951  0.00  0.00    -0.265 OA
ATOM      4  H   UNL     1       0.009  -4.284   2.527  0.00  0.00    +0.155 HD
ENDROOT
BRANCH   1  11
ATOM      5  C   UNL     1      -0.941  -6.245   3.861  0.00  0.00    +0.046 C 
ATOM      6  C   UNL     1      -0.279  -5.387   4.909  0.00  0.00    -0.027 A 
ATOM      7  C   UNL     1      -0.150  -5.853   6.202  0.00  0.00    +0.038 A 
ATOM      8  C   UNL     1       0.452  -5.064   7.166  0.00  0.00    +0.127 A 
ATOM      9  C   UNL     1       0.933  -3.810   6.836  0.00  0.00    +0.034 A 
ATOM     10  C   UNL     1       0.812  -3.340   5.543  0.00  0.00    +0.026 A 
ATOM     11  C   UNL     1       0.207  -4.130   4.573  0.00  0.00    +0.037 A 
BRANCH   8  12
ATOM     12  N   UNL     1       0.583  -5.564   8.553  0.00  0.00    +0.056 N 
ATOM     13  O   UNL     1       1.113  -4.871   9.402  0.00  0.00    -0.126 OA
ATOM     14  O   UNL     1       0.161  -6.669   8.845  0.00  0.00    -0.126 OA
ENDBRANCH   8  12
ENDBRANCH   1  11
BRANCH   2  15
ATOM     15  C   UNL     1       0.057  -1.826   1.619  0.00  0.00    +0.300 C 
ATOM     16  O   UNL     1       0.066  -2.610   0.692  0.00  0.00    -0.265 OA
ATOM     17  N   UNL     1       0.040  -0.500   1.380  0.00  0.00    -0.303 N 
ATOM     18  H   UNL     1       0.033   0.127   2.120  0.00  0.00    +0.149 HD
BRANCH  17  19
ATOM     19  C   UNL     1       0.031  -0.004   0.001  0.00  0.00    +0.140 C 
BRANCH  19  20
ATOM     20  C   UNL     1       0.012   1.502   0.009  0.00  0.00    -0.030 A 
ATOM     21  C   UNL     1      -1.194   2.178   0.009  0.00  0.00    +0.005 A 
ATOM     22  C   UNL     1      -1.212   3.561   0.021  0.00  0.00    +0.000 A 
ATOM     23  C   UNL     1      -0.023   4.267   0.023  0.00  0.00    +0.000 A 
ATOM     24  C   UNL     1       1.183   3.591   0.018  0.00  0.00    +0.000 A 
ATOM     25  C   UNL     1       1.200   2.209   0.011  0.00  0.00    +0.005 A 
ENDBRANCH  19  20
ENDBRANCH  17  19
ENDBRANCH   2  15
TORSDOF 5
