REMARK  Name = ZINC39921248
REMARK  7 active torsions:
REMARK  status: ('A' for Active; 'I' for Inactive)
REMARK    1  A    between atoms: C_1  and  O_2
REMARK    2  A    between atoms: O_2  and  C_3
REMARK    3  A    between atoms: C_6  and  C_11
REMARK    4  A    between atoms: C_7  and  O_9
REMARK    5  A    between atoms: O_9  and  C_10
REMARK    6  A    between atoms: C_26  and  N_30
REMARK    7  A    between atoms: C_27  and  C_28
REMARK                            x       y       z     vdW  Elec       q    Type
REMARK                         _______ _______ _______ _____ _____    ______ ____
ROOT
ATOM      1  C   UNL     1       2.507  -2.495  -4.390  0.00  0.00    +0.087 C 
ATOM      2  C   UNL     1       3.977  -2.068  -4.447  0.00  0.00    +0.154 C 
ATOM      3  C   UNL     1       4.451  -2.442  -5.841  0.00  0.00    +0.129 C 
ATOM      4  C   UNL     1       5.513  -3.327  -5.953  0.00  0.00    +0.035 A 
ATOM      5  C   UNL     1       6.021  -3.707  -7.213  0.00  0.00    +0.013 A 
ATOM      6  C   UNL     1       7.069  -4.573  -7.282  0.00  0.00    +0.001 A 
ATOM      7  C   UNL     1       7.652  -5.096  -6.132  0.00  0.00    +0.002 A 
ATOM      8  C   UNL     1       7.204  -4.769  -4.887  0.00  0.00    +0.024 A 
ATOM      9  C   UNL     1       6.125  -3.882  -4.739  0.00  0.00    +0.044 A 
ATOM     10  N   UNL     1       5.679  -3.568  -3.517  0.00  0.00    -0.284 N 
ATOM     11  C   UNL     1       4.679  -2.719  -3.276  0.00  0.00    +0.229 C 
ATOM     12  O   UNL     1       4.324  -2.472  -2.139  0.00  0.00    -0.275 OA
ATOM     13  O   UNL     1       3.819  -1.916  -6.892  0.00  0.00    -0.444 OA
ATOM     14  C   UNL     1       2.470  -1.835  -6.810  0.00  0.00    +0.198 C 
ATOM     15  C   UNL     1       1.810  -2.087  -5.659  0.00  0.00    +0.095 C 
ATOM     16  H   UNL     1       6.115  -3.978  -2.753  0.00  0.00    +0.155 HD
ENDROOT
BRANCH   1  20
ATOM     17  C   UNL     1       0.606  -0.607  -1.056  0.00  0.00    +0.124 A 
ATOM     18  C   UNL     1       1.173   0.162  -2.062  0.00  0.00    +0.046 A 
ATOM     19  C   UNL     1       1.787  -0.451  -3.138  0.00  0.00    +0.011 A 
ATOM     20  C   UNL     1       1.837  -1.830  -3.215  0.00  0.00    +0.004 A 
ATOM     21  C   UNL     1       1.272  -2.603  -2.211  0.00  0.00    +0.127 A 
ATOM     22  C   UNL     1       0.660  -1.990  -1.127  0.00  0.00    +0.091 A 
BRANCH  17  24
ATOM     23  C   UNL     1      -0.017   1.425   0.010  0.00  0.00    +0.277 C 
ATOM     24  O   UNL     1       0.002  -0.004   0.002  0.00  0.00    -0.495 OA
ENDBRANCH  17  24
BRANCH  21  25
ATOM     25  O   UNL     1       1.322  -3.959  -2.286  0.00  0.00    -0.495 OA
ATOM     26  C   UNL     1       0.719  -4.691  -1.217  0.00  0.00    +0.277 C 
ENDBRANCH  21  25
ENDBRANCH   1  20
BRANCH  14  27
ATOM     27  N   UNL     1       1.753  -1.486  -7.927  0.00  0.00    -0.328 N 
ATOM     28  H   UNL     1       2.213  -1.301  -8.761  0.00  0.00    +0.145 HD
ATOM     29  H   UNL     1       0.786  -1.424  -7.883  0.00  0.00    +0.145 HD
ENDBRANCH  14  27
BRANCH  15  30
ATOM     30  C   UNL     1       0.384  -1.961  -5.647  0.00  0.00    +0.100 C 
ATOM     31  N   UNL     1      -0.748  -1.861  -5.637  0.00  0.00    -0.191 NA
ENDBRANCH  15  30
TORSDOF 5
