REMARK  Name = ZINC08590800
REMARK  10 active torsions:
REMARK  status: ('A' for Active; 'I' for Inactive)
REMARK    1  A    between atoms: C_1  and  C_2
REMARK    2  A    between atoms: C_7  and  C_8
REMARK    3  A    between atoms: N_11  and  C_13
REMARK    4  A    between atoms: C_13  and  C_14
REMARK    5  A    between atoms: N_16  and  C_17
REMARK    6  A    between atoms: C_18  and  C_31
REMARK    7  A    between atoms: C_23  and  C_27
REMARK    8  A    between atoms: C_27  and  C_28
REMARK    9  A    between atoms: C_27  and  C_29
REMARK   10  A    between atoms: C_27  and  C_30
REMARK                            x       y       z     vdW  Elec       q    Type
REMARK                         _______ _______ _______ _____ _____    ______ ____
ROOT
ATOM      1  C   UNL     1      -0.917   2.607   8.411  0.00  0.00    +0.241 C 
ATOM      2  O   UNL     1      -0.262   1.639   8.085  0.00  0.00    -0.273 OA
ATOM      3  N   UNL     1      -1.427   3.424   7.468  0.00  0.00    -0.277 N 
ATOM      4  H   UNL     1      -1.951   4.198   7.728  0.00  0.00    +0.155 HD
ENDROOT
BRANCH   3   5
ATOM      5  C   UNL     1      -1.204   3.157   6.124  0.00  0.00    +0.090 A 
ATOM      6  C   UNL     1      -1.642   3.873   5.020  0.00  0.00    +0.084 A 
ATOM      7  C   UNL     1      -1.267   3.378   3.707  0.00  0.00    -0.018 A 
ATOM      8  C   UNL     1      -0.519   2.252   3.708  0.00  0.00    -0.004 A 
ATOM      9  S   UNL     1      -0.311   1.851   5.420  0.00  0.00    -0.077 S 
ATOM     10  C   UNL     1       0.010   1.518   2.515  0.00  0.00    +0.047 C 
ATOM     11  C   UNL     1      -0.735   2.019   1.269  0.00  0.00    -0.000 C 
ATOM     12  C   UNL     1      -0.751   3.550   1.284  0.00  0.00    +0.009 C 
ATOM     13  C   UNL     1      -1.668   4.051   2.400  0.00  0.00    +0.037 C 
BRANCH  11  14
ATOM     14  C   UNL     1      -0.019   1.526   0.010  0.00  0.00    -0.035 C 
ATOM     15  C   UNL     1       0.002  -0.004   0.002  0.00  0.00    +0.011 C 
ATOM     16  C   UNL     1       1.417   2.055  -0.000  0.00  0.00    +0.011 C 
ATOM     17  C   UNL     1      -0.759   2.033  -1.229  0.00  0.00    +0.011 C 
ENDBRANCH  11  14
BRANCH   6  18
ATOM     18  C   UNL     1      -2.435   5.056   5.168  0.00  0.00    +0.102 C 
ATOM     19  N   UNL     1      -3.064   5.994   5.286  0.00  0.00    -0.191 NA
ENDBRANCH   6  18
ENDBRANCH   3   5
BRANCH   1  20
ATOM     20  C   UNL     1      -1.159   2.897   9.870  0.00  0.00    +0.264 C 
BRANCH  20  24
ATOM     21  C   UNL     1       0.934   0.831  11.821  0.00  0.00    +0.205 A 
ATOM     22  N   UNL     1      -0.191   0.103  11.771  0.00  0.00    -0.108 NA
ATOM     23  N   UNL     1      -1.048   0.771  11.076  0.00  0.00    -0.045 NA
ATOM     24  N   UNL     1      -0.505   1.871  10.686  0.00  0.00    -0.154 N 
ATOM     25  N   UNL     1       0.703   1.931  11.131  0.00  0.00    -0.130 NA
BRANCH  21  32
ATOM     26  C   UNL     1       1.111  -1.675  13.255  0.00  0.00    +0.044 C 
ATOM     27  C   UNL     1       2.289  -0.736  13.208  0.00  0.00    -0.040 A 
ATOM     28  C   UNL     1       3.464  -1.069  13.853  0.00  0.00    +0.004 A 
ATOM     29  C   UNL     1       4.545  -0.208  13.811  0.00  0.00    +0.000 A 
ATOM     30  C   UNL     1       4.457   0.990  13.125  0.00  0.00    +0.001 A 
ATOM     31  C   UNL     1       3.289   1.330  12.473  0.00  0.00    +0.012 A 
ATOM     32  C   UNL     1       2.194   0.469  12.516  0.00  0.00    +0.026 A 
ENDBRANCH  21  32
ENDBRANCH  20  24
ENDBRANCH   1  20
TORSDOF 6
