REMARK  Name = ZINC05120927
REMARK  21 active torsions:
REMARK  status: ('A' for Active; 'I' for Inactive)
REMARK    1  A    between atoms: C_1  and  C_2
REMARK    2  A    between atoms: C_2  and  C_3
REMARK    3  A    between atoms: C_3  and  C_4
REMARK    4  A    between atoms: C_4  and  N_67
REMARK    5  A    between atoms: C_5  and  C_6
REMARK    6  A    between atoms: C_5  and  C_7
REMARK    7  A    between atoms: C_5  and  C_8
REMARK    8  A    between atoms: C_5  and  N_67
REMARK    9  A    between atoms: C_8  and  C_10
REMARK   10  A    between atoms: C_8  and  S_15
REMARK   11  A    between atoms: S_15  and  S_16
REMARK   12  A    between atoms: S_16  and  C_17
REMARK   13  A    between atoms: C_17  and  C_19
REMARK   14  A    between atoms: C_17  and  C_24
REMARK   15  A    between atoms: C_24  and  C_25
REMARK   16  A    between atoms: C_24  and  C_26
REMARK   17  A    between atoms: C_24  and  N_70
REMARK   18  A    between atoms: C_27  and  C_28
REMARK   19  A    between atoms: C_27  and  N_70
REMARK   20  A    between atoms: C_28  and  C_29
REMARK   21  A    between atoms: C_29  and  C_30
REMARK                            x       y       z     vdW  Elec       q    Type
REMARK                         _______ _______ _______ _____ _____    ______ ____
ROOT
ATOM      1  S   UNL     1      -4.978   1.059  -2.138  0.00  0.00    -0.085 S 
ENDROOT
BRANCH   1   2
ATOM      2  C   UNL     1      -5.845   2.296  -1.133  0.00  0.00    +0.083 C 
BRANCH   2   3
ATOM      3  C   UNL     1      -5.247   2.327   0.250  0.00  0.00    +0.002 A 
ATOM      4  C   UNL     1      -4.677   3.365   0.910  0.00  0.00    +0.012 A 
ATOM      5  C   UNL     1      -4.191   3.160   2.188  0.00  0.00    +0.008 A 
ATOM      6  C   UNL     1      -4.300   1.929   2.743  0.00  0.00    +0.045 A 
ATOM      7  S   UNL     1      -5.115   1.010   1.448  0.00  0.00    -0.101 S 
ENDBRANCH   2   3
BRANCH   2   8
ATOM      8  C   UNL     1      -7.327   1.929  -1.040  0.00  0.00    -0.057 C 
ATOM      9  C   UNL     1      -8.064   2.988  -0.218  0.00  0.00    -0.009 C 
ATOM     10  C   UNL     1      -7.926   1.866  -2.447  0.00  0.00    -0.009 C 
BRANCH   8  11
ATOM     11  N   UNL     1      -7.459   0.613  -0.386  0.00  0.00    +0.383 N 
ATOM     12  H   UNL     1      -6.960  -0.092  -0.940  0.00  0.00    -0.085 HD
ATOM     13  H   UNL     1      -7.052   0.660   0.555  0.00  0.00    -0.085 HD
BRANCH  11  14
ATOM     14  C   UNL     1      -8.881   0.233  -0.283  0.00  0.00    -0.082 C 
BRANCH  14  15
ATOM     15  C   UNL     1      -8.986  -1.133   0.398  0.00  0.00    -0.019 C 
BRANCH  15  17
ATOM     16  C   UNL     1     -10.564  -2.901   1.191  0.00  0.00    +0.004 C 
ATOM     17  C   UNL     1     -10.458  -1.535   0.509  0.00  0.00    -0.005 C 
ENDBRANCH  15  17
ENDBRANCH  14  15
ENDBRANCH  11  14
ENDBRANCH   8  11
ENDBRANCH   2   8
ENDBRANCH   1   2
BRANCH   1  18
ATOM     18  S   UNL     1      -3.071   1.796  -2.295  0.00  0.00    -0.085 S 
BRANCH  18  19
ATOM     19  C   UNL     1      -2.249   1.211  -0.788  0.00  0.00    +0.083 C 
BRANCH  19  20
ATOM     20  C   UNL     1      -2.055  -0.282  -0.869  0.00  0.00    +0.002 A 
ATOM     21  C   UNL     1      -2.528  -1.250  -0.047  0.00  0.00    +0.012 A 
ATOM     22  C   UNL     1      -2.221  -2.570  -0.319  0.00  0.00    +0.008 A 
ATOM     23  C   UNL     1      -1.454  -2.857  -1.400  0.00  0.00    +0.045 A 
ATOM     24  S   UNL     1      -1.149  -1.234  -2.077  0.00  0.00    -0.101 S 
ENDBRANCH  19  20
BRANCH  19  25
ATOM     25  C   UNL     1      -0.887   1.895  -0.651  0.00  0.00    -0.057 C 
ATOM     26  C   UNL     1      -1.090   3.397  -0.444  0.00  0.00    -0.009 C 
ATOM     27  C   UNL     1      -0.069   1.662  -1.923  0.00  0.00    -0.009 C 
BRANCH  25  28
ATOM     28  N   UNL     1      -0.175   1.326   0.509  0.00  0.00    +0.383 N 
ATOM     29  H   UNL     1      -0.045   0.318   0.365  0.00  0.00    -0.085 HD
ATOM     30  H   UNL     1      -0.731   1.482   1.358  0.00  0.00    -0.085 HD
BRANCH  28  31
ATOM     31  C   UNL     1       1.144   1.969   0.665  0.00  0.00    -0.082 C 
BRANCH  31  32
ATOM     32  C   UNL     1       1.858   1.360   1.873  0.00  0.00    -0.019 C 
BRANCH  32  33
ATOM     33  C   UNL     1       3.227   2.021   2.043  0.00  0.00    -0.005 C 
ATOM     34  C   UNL     1       3.942   1.412   3.251  0.00  0.00    +0.004 C 
ENDBRANCH  32  33
ENDBRANCH  31  32
ENDBRANCH  28  31
ENDBRANCH  25  28
ENDBRANCH  19  25
ENDBRANCH  18  19
ENDBRANCH   1  18
TORSDOF 15
