REMARK  Name = ZINC27099798
REMARK  9 active torsions:
REMARK  status: ('A' for Active; 'I' for Inactive)
REMARK    1  A    between atoms: C_1  and  C_2
REMARK    2  A    between atoms: C_2  and  O_3
REMARK    3  A    between atoms: O_3  and  C_4
REMARK    4  A    between atoms: C_4  and  C_6
REMARK    5  A    between atoms: C_9  and  O_12
REMARK    6  A    between atoms: O_12  and  C_13
REMARK    7  A    between atoms: C_22  and  O_31
REMARK    8  A    between atoms: C_23  and  C_24
REMARK    9  A    between atoms: C_24  and  N_25
REMARK                            x       y       z     vdW  Elec       q    Type
REMARK                         _______ _______ _______ _____ _____    ______ ____
ROOT
ATOM      1  C   UNL     1       3.550   3.558  -0.009  0.00  0.00    +0.210 A 
ATOM      2  C   UNL     1       2.326   4.124  -0.014  0.00  0.00    +0.245 A 
ATOM      3  O   UNL     1       1.196   3.405  -0.006  0.00  0.00    -0.459 OA
ATOM      4  C   UNL     1       1.197   2.057   0.005  0.00  0.00    +0.143 A 
ATOM      5  C   UNL     1       2.418   1.359   0.011  0.00  0.00    +0.068 A 
ATOM      6  C   UNL     1       3.668   2.139   0.004  0.00  0.00    +0.235 A 
ATOM      7  O   UNL     1       4.758   1.592   0.008  0.00  0.00    -0.283 OA
ATOM      8  C   UNL     1       2.432  -0.036   0.025  0.00  0.00    +0.019 A 
ATOM      9  C   UNL     1       1.252  -0.724   0.033  0.00  0.00    +0.046 A 
ATOM     10  C   UNL     1       0.037  -0.042   0.027  0.00  0.00    +0.122 A 
ATOM     11  C   UNL     1       0.007   1.343   0.013  0.00  0.00    +0.020 A 
ENDROOT
BRANCH  10  12
ATOM     12  O   UNL     1      -1.127  -0.740   0.035  0.00  0.00    -0.506 OA
ATOM     13  H   UNL     1      -2.088  -0.205   0.030  0.00  0.00    +0.292 HD
ENDBRANCH  10  12
BRANCH   1  14
ATOM     14  O   UNL     1       4.665   4.338  -0.017  0.00  0.00    -0.449 OA
BRANCH  14  18
ATOM     15  C   UNL     1       6.588   4.937  -3.620  0.00  0.00    +0.059 A 
ATOM     16  C   UNL     1       7.146   5.430  -2.437  0.00  0.00    +0.018 A 
ATOM     17  C   UNL     1       6.502   5.228  -1.237  0.00  0.00    +0.047 A 
ATOM     18  C   UNL     1       5.297   4.535  -1.201  0.00  0.00    +0.129 A 
ATOM     19  C   UNL     1       4.741   4.039  -2.375  0.00  0.00    +0.047 A 
ATOM     20  C   UNL     1       5.376   4.241  -3.579  0.00  0.00    +0.018 A 
BRANCH  15  21
ATOM     21  C   UNL     1       7.274   5.152  -4.907  0.00  0.00    +0.339 C 
ATOM     22  O   UNL     1       8.326   5.758  -4.941  0.00  0.00    -0.245 OA
BRANCH  21  23
ATOM     23  O   UNL     1       6.734   4.676  -6.046  0.00  0.00    -0.461 OA
BRANCH  23  25
ATOM     24  C   UNL     1       6.702   4.314  -8.454  0.00  0.00    +0.048 C 
ATOM     25  C   UNL     1       7.464   4.924  -7.276  0.00  0.00    +0.229 C 
ENDBRANCH  23  25
ENDBRANCH  21  23
ENDBRANCH  15  21
ENDBRANCH  14  18
ENDBRANCH   1  14
BRANCH  11  26
ATOM     26  C   UNL     1      -1.312   2.071   0.001  0.00  0.00    -0.035 C 
BRANCH  26  27
ATOM     27  N   UNL     1      -1.747   2.321   1.381  0.00  0.00    +0.385 N 
ATOM     28  C   UNL     1      -2.903   3.232   1.414  0.00  0.00    -0.074 C 
ATOM     29  C   UNL     1      -3.496   3.214   2.825  0.00  0.00    +0.008 C 
ATOM     30  C   UNL     1      -2.401   3.403   3.837  0.00  0.00    -0.035 C 
ATOM     31  C   UNL     1      -1.144   3.245   3.554  0.00  0.00    -0.050 C 
ATOM     32  C   UNL     1      -0.648   2.867   2.188  0.00  0.00    -0.051 C 
ATOM     33  H   UNL     1      -2.048   1.356   1.815  0.00  0.00    -0.081 HD
ENDBRANCH  26  27
ENDBRANCH  11  26
TORSDOF 8
