REMARK  Name = ZINC36593745
REMARK  11 active torsions:
REMARK  status: ('A' for Active; 'I' for Inactive)
REMARK    1  A    between atoms: C_1  and  O_2
REMARK    2  A    between atoms: O_2  and  C_3
REMARK    3  A    between atoms: C_6  and  C_9
REMARK    4  A    between atoms: N_22  and  C_23
REMARK    5  A    between atoms: C_23  and  C_25
REMARK    6  A    between atoms: C_23  and  C_29
REMARK    7  A    between atoms: C_25  and  C_26
REMARK    8  A    between atoms: C_26  and  S_27
REMARK    9  A    between atoms: S_27  and  C_28
REMARK   10  A    between atoms: C_29  and  O_31
REMARK   11  A    between atoms: O_31  and  C_32
REMARK                            x       y       z     vdW  Elec       q    Type
REMARK                         _______ _______ _______ _____ _____    ______ ____
ROOT
ATOM      1  C   UNL     1       2.599  -2.555   4.319  0.00  0.00    +0.156 C 
ATOM      2  C   UNL     1       3.925  -3.120   3.867  0.00  0.00    +0.062 A 
ATOM      3  C   UNL     1       4.161  -4.439   3.701  0.00  0.00    +0.040 A 
ATOM      4  N   UNL     1       5.452  -4.563   3.286  0.00  0.00    -0.349 N 
ATOM      5  H   UNL     1       5.915  -5.390   3.080  0.00  0.00    +0.166 HD
ATOM      6  C   UNL     1       5.968  -3.314   3.215  0.00  0.00    +0.171 A 
ATOM      7  N   UNL     1       5.044  -2.457   3.566  0.00  0.00    -0.348 N 
ATOM      8  C   UNL     1       3.153  -5.531   3.947  0.00  0.00    +0.074 C 
ATOM      9  C   UNL     1       1.749  -4.912   3.972  0.00  0.00    +0.116 C 
ATOM     10  N   UNL     1       1.777  -3.686   4.786  0.00  0.00    -0.273 N 
ATOM     11  C   UNL     1       1.070  -3.599   5.930  0.00  0.00    +0.304 C 
ATOM     12  O   UNL     1       0.474  -4.571   6.352  0.00  0.00    -0.253 OA
ATOM     13  N   UNL     1       1.022  -2.434   6.606  0.00  0.00    -0.286 N 
ATOM     14  H   UNL     1       1.434  -1.639   6.232  0.00  0.00    +0.151 HD
ATOM     15  H   UNL     1       5.155  -1.494   3.602  0.00  0.00    +0.167 HD
ENDROOT
BRANCH   1  19
ATOM     16  C   UNL     1       0.663  -0.599   1.050  0.00  0.00    +0.120 A 
ATOM     17  C   UNL     1       0.860   0.076   2.247  0.00  0.00    +0.046 A 
ATOM     18  C   UNL     1       1.486  -0.559   3.302  0.00  0.00    +0.009 A 
ATOM     19  C   UNL     1       1.917  -1.865   3.166  0.00  0.00    -0.021 A 
ATOM     20  C   UNL     1       1.723  -2.540   1.975  0.00  0.00    +0.009 A 
ATOM     21  C   UNL     1       1.092  -1.911   0.919  0.00  0.00    +0.046 A 
BRANCH  16  23
ATOM     22  C   UNL     1      -0.367   1.376   0.217  0.00  0.00    +0.277 C 
ATOM     23  O   UNL     1       0.048   0.024   0.011  0.00  0.00    -0.495 OA
ENDBRANCH  16  23
ENDBRANCH   1  19
BRANCH  13  24
ATOM     24  C   UNL     1       0.350  -2.368   7.906  0.00  0.00    +0.184 C 
BRANCH  24  25
ATOM     25  C   UNL     1       1.308  -2.792   8.989  0.00  0.00    +0.327 C 
ATOM     26  O   UNL     1       2.437  -3.115   8.705  0.00  0.00    -0.249 OA
BRANCH  25  27
ATOM     27  O   UNL     1       0.907  -2.810  10.270  0.00  0.00    -0.467 OA
ATOM     28  C   UNL     1       1.868  -3.222  11.245  0.00  0.00    +0.280 C 
ENDBRANCH  25  27
ENDBRANCH  24  25
BRANCH  24  29
ATOM     29  C   UNL     1      -0.114  -0.934   8.168  0.00  0.00    +0.044 C 
BRANCH  29  30
ATOM     30  C   UNL     1      -1.180  -0.547   7.141  0.00  0.00    +0.071 C 
BRANCH  30  31
ATOM     31  S   UNL     1      -1.731   1.153   7.451  0.00  0.00    -0.164 S 
ATOM     32  C   UNL     1      -2.976   1.453   6.166  0.00  0.00    +0.084 C 
ENDBRANCH  30  31
ENDBRANCH  29  30
ENDBRANCH  24  29
ENDBRANCH  13  24
TORSDOF 8
