REMARK  Name = ZINC14539257
REMARK  12 active torsions:
REMARK  status: ('A' for Active; 'I' for Inactive)
REMARK    1  A    between atoms: C_1  and  C_2
REMARK    2  A    between atoms: C_2  and  N_3
REMARK    3  A    between atoms: C_7  and  C_9
REMARK    4  A    between atoms: C_9  and  N_10
REMARK    5  A    between atoms: C_11  and  C_13
REMARK    6  A    between atoms: N_16  and  C_18
REMARK    7  A    between atoms: C_18  and  C_19
REMARK    8  A    between atoms: C_19  and  O_20
REMARK    9  A    between atoms: O_20  and  C_21
REMARK   10  A    between atoms: N_24  and  C_26
REMARK   11  A    between atoms: C_26  and  C_27
REMARK   12  A    between atoms: C_28  and  C_35
REMARK                            x       y       z     vdW  Elec       q    Type
REMARK                         _______ _______ _______ _____ _____    ______ ____
ROOT
ATOM      1  C   UNL     1      -0.150   2.236  -2.503  0.00  0.00    +0.152 A 
ATOM      2  C   UNL     1      -0.559   2.229  -1.161  0.00  0.00    +0.020 A 
ATOM      3  C   UNL     1      -1.696   2.970  -1.115  0.00  0.00    +0.046 A 
ATOM      4  N   UNL     1      -1.945   3.396  -2.362  0.00  0.00    -0.265 N 
ATOM      5  N   UNL     1      -1.036   2.960  -3.166  0.00  0.00    -0.166 NA
ATOM      6  C   UNL     1      -2.468   3.209   0.158  0.00  0.00    +0.071 C 
ATOM      7  C   UNL     1      -1.988   2.184   1.196  0.00  0.00    +0.091 C 
ATOM      8  N   UNL     1      -0.519   2.180   1.250  0.00  0.00    -0.292 NA
ATOM      9  C   UNL     1       0.063   1.572   0.039  0.00  0.00    +0.124 C 
ENDROOT
BRANCH   1  11
ATOM     10  N   UNL     1       1.306   1.659  -4.384  0.00  0.00    -0.312 N 
ATOM     11  C   UNL     1       1.039   1.564  -3.066  0.00  0.00    +0.264 C 
ATOM     12  O   UNL     1       1.777   0.926  -2.341  0.00  0.00    -0.268 OA
ATOM     13  H   UNL     1       0.639   2.237  -5.040  0.00  0.00    +0.149 HD
BRANCH  10  14
ATOM     14  C   UNL     1       2.486   0.994  -4.942  0.00  0.00    +0.089 C 
BRANCH  14  19
ATOM     15  N   UNL     1       1.273   0.475  -7.031  0.00  0.00    +0.382 N 
ATOM     16  C   UNL     1       1.645  -0.169  -8.305  0.00  0.00    -0.078 C 
ATOM     17  C   UNL     1       3.152   0.081  -8.520  0.00  0.00    -0.020 C 
ATOM     18  C   UNL     1       3.669   0.361  -7.085  0.00  0.00    -0.016 C 
ATOM     19  C   UNL     1       2.474   1.128  -6.466  0.00  0.00    -0.051 C 
ATOM     20  H   UNL     1       0.896  -0.283  -6.330  0.00  0.00    -0.081 HD
BRANCH  15  22
ATOM     21  C   UNL     1      -0.989   0.762  -7.925  0.00  0.00    -0.017 C 
ATOM     22  C   UNL     1       0.190   1.447  -7.229  0.00  0.00    -0.082 C 
ENDBRANCH  15  22
ENDBRANCH  14  19
ENDBRANCH  10  14
ENDBRANCH   1  11
BRANCH   4  23
ATOM     23  C   UNL     1      -3.082   4.232  -2.753  0.00  0.00    +0.171 C 
BRANCH  23  24
ATOM     24  C   UNL     1      -2.692   5.708  -2.642  0.00  0.00    +0.182 C 
BRANCH  24  25
ATOM     25  O   UNL     1      -3.802   6.524  -3.023  0.00  0.00    -0.381 OA
ATOM     26  C   UNL     1      -3.542   7.927  -2.954  0.00  0.00    +0.194 C 
ENDBRANCH  24  25
ENDBRANCH  23  24
ENDBRANCH   4  23
BRANCH   8  27
ATOM     27  C   UNL     1      -0.037   1.503   2.462  0.00  0.00    +0.140 C 
BRANCH  27  28
ATOM     28  C   UNL     1      -0.451   2.294   3.676  0.00  0.00    +0.061 A 
ATOM     29  C   UNL     1       0.260   3.270   4.266  0.00  0.00    +0.062 A 
ATOM     30  N   UNL     1      -0.442   3.732   5.312  0.00  0.00    -0.226 NA
ATOM     31  C   UNL     1      -1.559   3.069   5.397  0.00  0.00    +0.178 A 
ATOM     32  N   UNL     1      -1.635   2.140   4.393  0.00  0.00    -0.296 N 
ATOM     33  C   UNL     1      -2.767   1.357   4.351  0.00  0.00    +0.100 A 
ATOM     34  C   UNL     1      -3.735   1.508   5.254  0.00  0.00    +0.067 A 
ATOM     35  S   UNL     1      -3.088   2.826   6.271  0.00  0.00    -0.058 S 
ATOM     36  C   UNL     1       1.613   3.765   3.824  0.00  0.00    +0.067 C 
ENDBRANCH  27  28
ENDBRANCH   8  27
TORSDOF 9
