REMARK  Name = ZINC36530307
REMARK  15 active torsions:
REMARK  status: ('A' for Active; 'I' for Inactive)
REMARK    1  A    between atoms: C_1  and  C_2
REMARK    2  A    between atoms: C_5  and  C_8
REMARK    3  A    between atoms: C_8  and  C_10
REMARK    4  A    between atoms: C_8  and  N_21
REMARK    5  A    between atoms: N_12  and  C_13
REMARK    6  A    between atoms: C_13  and  C_14
REMARK    7  A    between atoms: C_13  and  C_15
REMARK    8  A    between atoms: C_13  and  C_16
REMARK    9  A    between atoms: C_16  and  C_17
REMARK   10  A    between atoms: C_17  and  C_18
REMARK   11  A    between atoms: C_17  and  C_19
REMARK   12  A    between atoms: C_17  and  C_20
REMARK   13  A    between atoms: N_21  and  C_22
REMARK   14  A    between atoms: C_23  and  C_25
REMARK   15  A    between atoms: C_27  and  N_32
REMARK                            x       y       z     vdW  Elec       q    Type
REMARK                         _______ _______ _______ _____ _____    ______ ____
ROOT
ATOM      1  C   UNL     1      -0.939  -4.141  -1.469  0.00  0.00    +0.192 C 
ENDROOT
BRANCH   1   6
ATOM      2  C   UNL     1      -2.631  -1.673   3.474  0.00  0.00    +0.044 C 
ATOM      3  C   UNL     1      -2.190  -2.316   2.185  0.00  0.00    -0.050 A 
ATOM      4  C   UNL     1      -2.369  -3.674   1.994  0.00  0.00    +0.004 A 
ATOM      5  C   UNL     1      -1.964  -4.264   0.811  0.00  0.00    +0.006 A 
ATOM      6  C   UNL     1      -1.381  -3.497  -0.180  0.00  0.00    -0.018 A 
ATOM      7  C   UNL     1      -1.203  -2.140   0.011  0.00  0.00    +0.006 A 
ATOM      8  C   UNL     1      -1.611  -1.549   1.192  0.00  0.00    +0.004 A 
ENDBRANCH   1   6
BRANCH   1   9
ATOM      9  C   UNL     1      -2.006  -5.093  -1.947  0.00  0.00    +0.238 C 
ATOM     10  O   UNL     1      -1.750  -6.270  -2.086  0.00  0.00    -0.273 OA
ATOM     11  N   UNL     1      -3.244  -4.635  -2.219  0.00  0.00    -0.308 N 
ATOM     12  H   UNL     1      -3.448  -3.693  -2.108  0.00  0.00    +0.149 HD
BRANCH  11  13
ATOM     13  C   UNL     1      -4.281  -5.560  -2.684  0.00  0.00    +0.030 C 
ATOM     14  C   UNL     1      -3.777  -6.313  -3.917  0.00  0.00    +0.031 C 
ATOM     15  C   UNL     1      -4.607  -6.560  -1.573  0.00  0.00    +0.031 C 
BRANCH  13  16
ATOM     16  C   UNL     1      -5.541  -4.772  -3.047  0.00  0.00    +0.031 C 
BRANCH  16  17
ATOM     17  C   UNL     1      -5.585  -3.477  -2.233  0.00  0.00    -0.036 C 
ATOM     18  C   UNL     1      -4.620  -2.458  -2.844  0.00  0.00    +0.010 C 
ATOM     19  C   UNL     1      -7.006  -2.910  -2.254  0.00  0.00    +0.010 C 
ATOM     20  C   UNL     1      -5.173  -3.768  -0.789  0.00  0.00    +0.010 C 
ENDBRANCH  16  17
ENDBRANCH  13  16
ENDBRANCH  11  13
ENDBRANCH   1   9
BRANCH   1  21
ATOM     21  N   UNL     1       0.307  -4.878  -1.244  0.00  0.00    -0.285 N 
ATOM     22  C   UNL     1       0.315  -6.056  -0.373  0.00  0.00    +0.133 C 
ATOM     23  C   UNL     1       1.446  -4.472  -1.839  0.00  0.00    +0.251 C 
ATOM     24  O   UNL     1       1.462  -3.440  -2.482  0.00  0.00    -0.270 OA
BRANCH  23  25
ATOM     25  C   UNL     1       2.674  -5.281  -1.712  0.00  0.00    +0.086 A 
ATOM     26  C   UNL     1       2.633  -6.660  -1.933  0.00  0.00    +0.049 A 
ATOM     27  C   UNL     1       3.783  -7.409  -1.812  0.00  0.00    +0.127 A 
ATOM     28  C   UNL     1       4.981  -6.801  -1.472  0.00  0.00    +0.036 A 
ATOM     29  C   UNL     1       5.035  -5.440  -1.250  0.00  0.00    +0.054 A 
ATOM     30  C   UNL     1       3.889  -4.669  -1.374  0.00  0.00    +0.191 A 
ATOM     31  O   UNL     1       3.942  -3.330  -1.163  0.00  0.00    -0.287 OA
BRANCH  27  32
ATOM     32  N   UNL     1       3.738  -8.870  -2.045  0.00  0.00    +0.056 N 
ATOM     33  O   UNL     1       2.694  -9.403  -2.342  0.00  0.00    -0.126 OA
ATOM     34  O   UNL     1       4.745  -9.530  -1.940  0.00  0.00    -0.126 OA
ENDBRANCH  27  32
ENDBRANCH  23  25
ENDBRANCH   1  21
TORSDOF 8
