REMARK  Name = ZINC10289657
REMARK  5 active torsions:
REMARK  status: ('A' for Active; 'I' for Inactive)
REMARK    1  A    between atoms: N_8  and  C_11
REMARK    2  A    between atoms: C_11  and  C_12
REMARK    3  A    between atoms: C_12  and  C_13
REMARK    4  A    between atoms: N_15  and  N_16
REMARK    5  A    between atoms: C_17  and  C_19
REMARK                            x       y       z     vdW  Elec       q    Type
REMARK                         _______ _______ _______ _____ _____    ______ ____
ROOT
ATOM      1  C   UNL     1       2.369   1.025  -0.015  0.00  0.00    +0.231 C 
ATOM      2  O   UNL     1       2.385  -0.188  -0.022  0.00  0.00    -0.274 OA
ATOM      3  N   UNL     1       1.193   1.683  -0.000  0.00  0.00    -0.234 N 
ATOM      4  H   UNL     1       1.179   2.653   0.005  0.00  0.00    +0.173 HD
ENDROOT
BRANCH   3   5
ATOM      5  N   UNL     1      -0.011   0.966   0.007  0.00  0.00    -0.230 N 
ATOM      6  C   UNL     1      -1.187   1.624   0.017  0.00  0.00    +0.267 C 
ATOM      7  O   UNL     1      -1.204   2.841   0.023  0.00  0.00    -0.268 OA
ATOM      8  H   UNL     1       0.002  -0.004   0.002  0.00  0.00    +0.173 HD
BRANCH   6   9
ATOM      9  C   UNL     1      -2.447   0.874   0.018  0.00  0.00    +0.076 A 
ATOM     10  C   UNL     1      -3.741   1.345   0.027  0.00  0.00    +0.024 A 
ATOM     11  C   UNL     1      -4.785   0.416   0.014  0.00  0.00    -0.036 A 
ATOM     12  C   UNL     1      -4.445  -0.888   0.052  0.00  0.00    -0.006 A 
ATOM     13  S   UNL     1      -2.708  -0.888   0.002  0.00  0.00    -0.088 S 
ATOM     14  C   UNL     1      -5.253  -2.152   0.185  0.00  0.00    +0.043 C 
ATOM     15  C   UNL     1      -6.751  -1.873   0.316  0.00  0.00    +0.005 C 
ATOM     16  C   UNL     1      -7.366  -1.588  -1.044  0.00  0.00    +0.000 C 
ATOM     17  C   UNL     1      -6.452  -0.780  -1.944  0.00  0.00    +0.000 C 
ATOM     18  C   UNL     1      -6.658   0.695  -1.586  0.00  0.00    +0.005 C 
ATOM     19  C   UNL     1      -6.212   0.921  -0.142  0.00  0.00    +0.036 C 
ENDBRANCH   6   9
ENDBRANCH   3   5
BRANCH   1  20
ATOM     20  C   UNL     1       3.663   1.796  -0.023  0.00  0.00    +0.119 C 
BRANCH  20  21
ATOM     21  C   UNL     1       4.840   0.818  -0.040  0.00  0.00    +0.135 C 
BRANCH  21  29
ATOM     22  C   UNL     1       8.715   3.101   2.215  0.00  0.00    +0.023 A 
ATOM     23  C   UNL     1       9.847   3.777   1.962  0.00  0.00    +0.048 A 
ATOM     24  S   UNL     1       9.906   3.832   0.181  0.00  0.00    -0.077 S 
ATOM     25  C   UNL     1       8.410   2.945  -0.171  0.00  0.00    +0.115 A 
ATOM     26  C   UNL     1       7.907   2.631   1.105  0.00  0.00    +0.072 A 
ATOM     27  C   UNL     1       6.676   1.899   1.122  0.00  0.00    +0.262 A 
ATOM     28  O   UNL     1       6.160   1.580   2.179  0.00  0.00    -0.267 OA
ATOM     29  N   UNL     1       6.098   1.567  -0.048  0.00  0.00    -0.298 N 
ATOM     30  C   UNL     1       6.661   1.909  -1.235  0.00  0.00    +0.203 A 
ATOM     31  N   UNL     1       7.780   2.581  -1.284  0.00  0.00    -0.230 NA
ENDBRANCH  21  29
ENDBRANCH  20  21
ENDBRANCH   1  20
TORSDOF 5
