REMARK  Name = ZINC13064418
REMARK  8 active torsions:
REMARK  status: ('A' for Active; 'I' for Inactive)
REMARK    1  A    between atoms: C_1  and  C_2
REMARK    2  A    between atoms: C_2  and  C_3
REMARK    3  A    between atoms: C_3  and  C_5
REMARK    4  A    between atoms: C_3  and  N_75
REMARK    5  A    between atoms: N_9  and  C_10
REMARK    6  A    between atoms: C_16  and  C_17
REMARK    7  A    between atoms: C_16  and  N_75
REMARK    8  A    between atoms: C_33  and  N_75
REMARK                            x       y       z     vdW  Elec       q    Type
REMARK                         _______ _______ _______ _____ _____    ______ ____
ROOT
ATOM      1  N   UNL     1       0.920   3.526  -0.967  0.00  0.00    +0.391 N 
ATOM      2  H   UNL     1      -0.014   3.364  -0.573  0.00  0.00    -0.080 HD
ENDROOT
BRANCH   1   3
ATOM      3  C   UNL     1       0.944   3.036  -2.362  0.00  0.00    -0.067 C 
ATOM      4  C   UNL     1       2.285   3.365  -3.022  0.00  0.00    -0.015 C 
ATOM      5  C   UNL     1       2.283   2.850  -4.463  0.00  0.00    -0.002 C 
ATOM      6  C   UNL     1       1.151   3.522  -5.244  0.00  0.00    -0.000 C 
ATOM      7  C   UNL     1      -0.189   3.193  -4.583  0.00  0.00    -0.002 C 
ATOM      8  C   UNL     1      -0.187   3.708  -3.142  0.00  0.00    -0.015 C 
ENDBRANCH   1   3
BRANCH   1   9
ATOM      9  C   UNL     1       1.916   2.794  -0.157  0.00  0.00    +0.003 C 
BRANCH   9  10
ATOM     10  C   UNL     1       3.279   3.418  -0.308  0.00  0.00    +0.138 A 
ATOM     11  N   UNL     1       3.715   4.107  -1.335  0.00  0.00    -0.115 NA
ATOM     12  N   UNL     1       4.925   4.471  -1.085  0.00  0.00    -0.023 NA
ATOM     13  N   UNL     1       5.273   4.031   0.074  0.00  0.00    -0.044 NA
ATOM     14  N   UNL     1       4.285   3.377   0.585  0.00  0.00    -0.228 N 
BRANCH  14  15
ATOM     15  C   UNL     1       4.263   2.714   1.891  0.00  0.00    +0.111 C 
ATOM     16  C   UNL     1       4.736   3.692   2.968  0.00  0.00    +0.027 C 
ATOM     17  C   UNL     1       4.713   2.999   4.332  0.00  0.00    +0.002 C 
ATOM     18  C   UNL     1       5.643   1.784   4.302  0.00  0.00    +0.000 C 
ATOM     19  C   UNL     1       5.169   0.806   3.225  0.00  0.00    +0.002 C 
ATOM     20  C   UNL     1       5.192   1.499   1.861  0.00  0.00    +0.027 C 
ENDBRANCH  14  15
ENDBRANCH   9  10
BRANCH   9  22
ATOM     21  C   UNL     1       0.630   0.658  -0.320  0.00  0.00    +0.002 C 
ATOM     22  C   UNL     1       1.969   1.335  -0.617  0.00  0.00    -0.011 C 
ENDBRANCH   9  22
ENDBRANCH   1   9
BRANCH   1  23
ATOM     23  C   UNL     1       1.210   4.975  -0.936  0.00  0.00    -0.036 C 
BRANCH  23  24
ATOM     24  C   UNL     1       0.734   5.534   0.380  0.00  0.00    +0.001 A 
ATOM     25  C   UNL     1       1.611   5.691   1.405  0.00  0.00    +0.017 A 
ATOM     26  C   UNL     1       1.119   6.241   2.667  0.00  0.00    +0.002 A 
ATOM     27  C   UNL     1       1.979   6.429   3.757  0.00  0.00    +0.059 A 
ATOM     28  C   UNL     1       1.486   6.946   4.936  0.00  0.00    +0.163 A 
ATOM     29  C   UNL     1       0.134   7.282   5.047  0.00  0.00    +0.164 A 
ATOM     30  C   UNL     1      -0.723   7.099   3.975  0.00  0.00    +0.075 A 
ATOM     31  C   UNL     1      -0.243   6.578   2.781  0.00  0.00    +0.053 A 
ATOM     32  N   UNL     1      -1.084   6.389   1.702  0.00  0.00    -0.322 N 
ATOM     33  H   UNL     1      -2.022   6.621   1.781  0.00  0.00    +0.169 HD
ATOM     34  C   UNL     1      -0.620   5.887   0.544  0.00  0.00    +0.251 A 
ATOM     35  O   UNL     1      -1.391   5.734  -0.387  0.00  0.00    -0.268 OA
ATOM     36  O   UNL     1      -0.359   7.797   6.206  0.00  0.00    -0.485 OA
ATOM     37  C   UNL     1       0.440   7.621   7.380  0.00  0.00    +0.270 C 
ATOM     38  C   UNL     1       1.889   7.988   7.036  0.00  0.00    +0.270 C 
ATOM     39  O   UNL     1       2.334   7.120   5.988  0.00  0.00    -0.485 OA
ENDBRANCH  23  24
ENDBRANCH   1  23
TORSDOF 7
