REMARK  Name = ZINC12338888
REMARK  7 active torsions:
REMARK  status: ('A' for Active; 'I' for Inactive)
REMARK    1  A    between atoms: C_1  and  C_2
REMARK    2  A    between atoms: C_2  and  C_3
REMARK    3  A    between atoms: C_6  and  N_9
REMARK    4  A    between atoms: C_11  and  C_23
REMARK    5  A    between atoms: C_14  and  C_21
REMARK    6  A    between atoms: C_17  and  C_20
REMARK    7  A    between atoms: C_21  and  O_22
REMARK                            x       y       z     vdW  Elec       q    Type
REMARK                         _______ _______ _______ _____ _____    ______ ____
ROOT
ATOM      1  N   UNL     1       2.638  -1.823  -4.648  0.00  0.00    -0.325 N 
ATOM      2  C   UNL     1       3.772  -1.269  -5.017  0.00  0.00    +0.212 A 
ATOM      3  C   UNL     1       4.536  -1.798  -6.165  0.00  0.00    +0.097 A 
ATOM      4  C   UNL     1       5.352  -0.917  -6.840  0.00  0.00    +0.030 A 
ATOM      5  C   UNL     1       5.393   0.465  -6.357  0.00  0.00    +0.027 A 
ATOM      6  C   UNL     1       5.974   1.491  -7.111  0.00  0.00    +0.007 A 
ATOM      7  C   UNL     1       5.972   2.770  -6.591  0.00  0.00    +0.117 A 
ATOM      8  N   UNL     1       5.436   3.029  -5.413  0.00  0.00    -0.256 NA
ATOM      9  C   UNL     1       4.878   2.097  -4.667  0.00  0.00    +0.081 A 
ATOM     10  C   UNL     1       4.835   0.781  -5.104  0.00  0.00    +0.159 A 
ATOM     11  O   UNL     1       4.270  -0.193  -4.357  0.00  0.00    -0.437 OA
ATOM     12  C   UNL     1       4.285   2.463  -3.331  0.00  0.00    +0.069 C 
ATOM     13  H   UNL     1       2.250  -2.534  -5.181  0.00  0.00    +0.169 HD
ENDROOT
BRANCH   1  17
ATOM     14  C   UNL     1       0.726  -0.530  -1.215  0.00  0.00    -0.047 A 
ATOM     15  C   UNL     1      -0.003  -0.736  -2.373  0.00  0.00    +0.005 A 
ATOM     16  C   UNL     1       0.628  -1.167  -3.521  0.00  0.00    +0.026 A 
ATOM     17  C   UNL     1       2.006  -1.395  -3.514  0.00  0.00    +0.042 A 
ATOM     18  C   UNL     1       2.736  -1.185  -2.341  0.00  0.00    +0.026 A 
ATOM     19  C   UNL     1       2.092  -0.749  -1.201  0.00  0.00    +0.005 A 
BRANCH  14  21
ATOM     20  C   UNL     1       0.017   1.471   0.067  0.00  0.00    +0.009 C 
ATOM     21  C   UNL     1       0.029  -0.059   0.036  0.00  0.00    +0.032 C 
ENDBRANCH  14  21
ENDBRANCH   1  17
BRANCH   3  22
ATOM     22  C   UNL     1       4.429  -3.212  -6.572  0.00  0.00    +0.247 C 
ATOM     23  O   UNL     1       3.637  -3.947  -6.015  0.00  0.00    -0.270 OA
ATOM     24  N   UNL     1       5.211  -3.689  -7.561  0.00  0.00    -0.325 N 
ATOM     25  H   UNL     1       5.894  -3.124  -7.955  0.00  0.00    +0.145 HD
ATOM     26  H   UNL     1       5.090  -4.597  -7.879  0.00  0.00    +0.145 HD
ENDBRANCH   3  22
BRANCH   6  27
ATOM     27  C   UNL     1       6.587   1.207  -8.457  0.00  0.00    +0.193 C 
BRANCH  27  28
ATOM     28  O   UNL     1       7.106   2.419  -9.010  0.00  0.00    -0.390 OA
ATOM     29  H   UNL     1       7.517   2.311  -9.879  0.00  0.00    +0.210 HD
ENDBRANCH  27  28
ENDBRANCH   6  27
TORSDOF 5
