REMARK  Name = ZINC09924158
REMARK  8 active torsions:
REMARK  status: ('A' for Active; 'I' for Inactive)
REMARK    1  A    between atoms: C_1  and  N_2
REMARK    2  A    between atoms: N_2  and  C_3
REMARK    3  A    between atoms: C_6  and  C_12
REMARK    4  A    between atoms: C_8  and  N_9
REMARK    5  A    between atoms: C_12  and  O_14
REMARK    6  A    between atoms: O_14  and  C_15
REMARK    7  A    between atoms: C_15  and  C_16
REMARK    8  A    between atoms: N_18  and  C_19
REMARK                            x       y       z     vdW  Elec       q    Type
REMARK                         _______ _______ _______ _____ _____    ______ ____
ROOT
ATOM      1  C   UNL     1      -0.637   1.373  -0.026  0.00  0.00    +0.340 C 
ATOM      2  O   UNL     1      -0.638   0.158  -0.037  0.00  0.00    -0.245 OA
ENDROOT
BRANCH   1   6
ATOM      3  C   UNL     1      -4.303   3.501   0.074  0.00  0.00    +0.058 A 
ATOM      4  C   UNL     1      -3.095   4.193   0.053  0.00  0.00    +0.026 A 
ATOM      5  C   UNL     1      -1.913   3.509   0.026  0.00  0.00    +0.017 A 
ATOM      6  C   UNL     1      -1.912   2.111   0.008  0.00  0.00    +0.061 A 
ATOM      7  C   UNL     1      -3.125   1.414   0.030  0.00  0.00    +0.049 A 
ATOM      8  C   UNL     1      -4.312   2.109   0.062  0.00  0.00    +0.148 A 
BRANCH   3  10
ATOM      9  C   UNL     1      -5.495   5.662   0.240  0.00  0.00    +0.125 C 
ATOM     10  N   UNL     1      -5.503   4.203   0.107  0.00  0.00    -0.345 N 
ATOM     11  H   UNL     1      -6.345   3.726   0.042  0.00  0.00    +0.146 HD
ENDBRANCH   3  10
BRANCH   8  12
ATOM     12  N   UNL     1      -5.599   1.377   0.085  0.00  0.00    +0.058 N 
ATOM     13  O   UNL     1      -5.607   0.163   0.178  0.00  0.00    -0.126 OA
ATOM     14  O   UNL     1      -6.649   1.989   0.010  0.00  0.00    -0.126 OA
ENDBRANCH   8  12
ENDBRANCH   1   6
BRANCH   1  15
ATOM     15  O   UNL     1       0.530   2.046  -0.052  0.00  0.00    -0.452 OA
BRANCH  15  16
ATOM     16  C   UNL     1       1.747   1.254  -0.092  0.00  0.00    +0.328 C 
BRANCH  16  17
ATOM     17  C   UNL     1       2.942   2.171  -0.117  0.00  0.00    +0.255 C 
ATOM     18  O   UNL     1       2.785   3.373  -0.103  0.00  0.00    -0.272 OA
ATOM     19  N   UNL     1       4.187   1.655  -0.155  0.00  0.00    -0.282 N 
ATOM     20  H   UNL     1       4.315   0.694  -0.105  0.00  0.00    +0.155 HD
BRANCH  19  21
ATOM     21  C   UNL     1       5.293   2.504  -0.268  0.00  0.00    +0.047 A 
ATOM     22  C   UNL     1       5.278   3.751   0.343  0.00  0.00    +0.024 A 
ATOM     23  C   UNL     1       6.374   4.585   0.234  0.00  0.00    +0.002 A 
ATOM     24  C   UNL     1       7.481   4.183  -0.491  0.00  0.00    +0.001 A 
ATOM     25  C   UNL     1       7.498   2.944  -1.104  0.00  0.00    +0.016 A 
ATOM     26  C   UNL     1       6.407   2.103  -0.995  0.00  0.00    +0.035 A 
ATOM     27  I   UNL     1       6.433   0.226  -1.925  0.00  0.00    -0.042 I 
ENDBRANCH  19  21
ENDBRANCH  16  17
ENDBRANCH  15  16
ENDBRANCH   1  15
TORSDOF 7
