REMARK  Name = ZINC63375376
REMARK  6 active torsions:
REMARK  status: ('A' for Active; 'I' for Inactive)
REMARK    1  A    between atoms: C_1  and  C_2
REMARK    2  A    between atoms: C_2  and  C_3
REMARK    3  A    between atoms: C_3  and  C_5
REMARK    4  A    between atoms: C_3  and  N_6
REMARK    5  A    between atoms: C_9  and  C_16
REMARK    6  A    between atoms: N_30  and  C_31
REMARK                            x       y       z     vdW  Elec       q    Type
REMARK                         _______ _______ _______ _____ _____    ______ ____
ROOT
ATOM      1  C   UNL     1       4.553   1.986  -3.192  0.00  0.00    -0.000 C 
ATOM      2  C   UNL     1       3.873   3.356  -3.145  0.00  0.00    +0.097 C 
ATOM      3  C   UNL     1       4.405   4.136  -4.343  0.00  0.00    -0.041 C 
ATOM      4  C   UNL     1       4.877   5.279  -3.866  0.00  0.00    -0.001 A 
ATOM      5  C   UNL     1       5.431   6.468  -4.535  0.00  0.00    +0.010 A 
ATOM      6  C   UNL     1       5.842   7.476  -3.721  0.00  0.00    +0.001 A 
ATOM      7  C   UNL     1       5.760   7.421  -2.326  0.00  0.00    +0.002 A 
ATOM      8  C   UNL     1       5.259   6.371  -1.628  0.00  0.00    +0.026 A 
ATOM      9  C   UNL     1       4.789   5.252  -2.374  0.00  0.00    +0.043 A 
ATOM     10  N   UNL     1       4.237   4.128  -1.959  0.00  0.00    -0.379 N 
ATOM     11  C   UNL     1       4.418   3.538  -5.729  0.00  0.00    +0.015 C 
ATOM     12  C   UNL     1       5.008   2.123  -5.579  0.00  0.00    -0.074 C 
ATOM     13  N   UNL     1       4.312   1.393  -4.517  0.00  0.00    +0.384 N 
ATOM     14  C   UNL     1       4.779   0.000  -4.509  0.00  0.00    -0.095 C 
ATOM     15  H   UNL     1       4.099   3.854  -1.039  0.00  0.00    +0.160 HD
ATOM     16  H   UNL     1       3.321   1.405  -4.706  0.00  0.00    -0.081 HD
ENDROOT
BRANCH   1  20
ATOM     17  N   UNL     1       2.125  -0.091  -1.209  0.00  0.00    -0.258 N 
ATOM     18  C   UNL     1       2.623   0.707  -2.174  0.00  0.00    +0.262 A 
ATOM     19  O   UNL     1       1.908   1.090  -3.084  0.00  0.00    -0.267 OA
ATOM     20  C   UNL     1       3.974   1.095  -2.124  0.00  0.00    +0.070 A 
ATOM     21  H   UNL     1       4.755  -0.475   0.599  0.00  0.00    +0.173 HD
ATOM     22  C   UNL     1       4.753   0.653  -1.096  0.00  0.00    +0.259 A 
ATOM     23  N   UNL     1       4.205  -0.158  -0.135  0.00  0.00    -0.275 N 
ATOM     24  C   UNL     1       2.908  -0.513  -0.200  0.00  0.00    +0.332 A 
ATOM     25  O   UNL     1       2.439  -1.228   0.664  0.00  0.00    -0.246 OA
ATOM     26  O   UNL     1       6.053   1.010  -1.024  0.00  0.00    -0.267 OA
BRANCH  17  27
ATOM     27  C   UNL     1       0.718  -0.497  -1.257  0.00  0.00    +0.092 C 
ATOM     28  C   UNL     1       0.630  -2.023  -1.329  0.00  0.00    +0.031 C 
BRANCH  27  30
ATOM     29  C   UNL     1      -0.019   1.526   0.010  0.00  0.00    +0.006 C 
ATOM     30  C   UNL     1       0.002  -0.004   0.002  0.00  0.00    +0.022 C 
ENDBRANCH  27  30
ENDBRANCH  17  27
ENDBRANCH   1  20
TORSDOF 3
