REMARK  Name = ZINC56221119
REMARK  7 active torsions:
REMARK  status: ('A' for Active; 'I' for Inactive)
REMARK    1  A    between atoms: C_1  and  C_2
REMARK    2  A    between atoms: N_10  and  C_11
REMARK    3  A    between atoms: C_11  and  C_12
REMARK    4  A    between atoms: C_12  and  O_13
REMARK    5  A    between atoms: O_13  and  C_14
REMARK    6  A    between atoms: C_14  and  C_16
REMARK    7  A    between atoms: C_20  and  N_26
REMARK                            x       y       z     vdW  Elec       q    Type
REMARK                         _______ _______ _______ _____ _____    ______ ____
ROOT
ATOM      1  C   UNL     1      -2.600   0.442   4.950  0.00  0.00    +0.356 C 
ATOM      2  O   UNL     1      -3.623   0.219   4.331  0.00  0.00    -0.243 OA
ENDROOT
BRANCH   1   3
ATOM      3  C   UNL     1      -2.670   0.903   6.342  0.00  0.00    +0.125 A 
ATOM      4  C   UNL     1      -3.813   1.113   7.047  0.00  0.00    +0.043 A 
ATOM      5  C   UNL     1      -3.447   1.551   8.343  0.00  0.00    +0.003 A 
ATOM      6  C   UNL     1      -4.181   1.913   9.479  0.00  0.00    +0.042 A 
ATOM      7  C   UNL     1      -3.530   2.304  10.613  0.00  0.00    +0.127 A 
ATOM      8  C   UNL     1      -2.141   2.347  10.651  0.00  0.00    +0.035 A 
ATOM      9  C   UNL     1      -1.397   1.996   9.547  0.00  0.00    +0.028 A 
ATOM     10  C   UNL     1      -2.039   1.594   8.379  0.00  0.00    +0.047 A 
ATOM     11  N   UNL     1      -1.583   1.189   7.147  0.00  0.00    -0.349 N 
ATOM     12  H   UNL     1      -0.652   1.117   6.885  0.00  0.00    +0.166 HD
BRANCH   7  13
ATOM     13  N   UNL     1      -4.309   2.686  11.812  0.00  0.00    +0.056 N 
ATOM     14  O   UNL     1      -5.517   2.651  11.784  0.00  0.00    -0.126 OA
ATOM     15  O   UNL     1      -3.737   3.033  12.819  0.00  0.00    -0.126 OA
ENDBRANCH   7  13
ENDBRANCH   1   3
BRANCH   1  16
ATOM     16  O   UNL     1      -1.402   0.265   4.357  0.00  0.00    -0.458 OA
BRANCH  16  17
ATOM     17  C   UNL     1      -1.409  -0.186   3.001  0.00  0.00    +0.254 C 
BRANCH  17  18
ATOM     18  C   UNL     1       0.031  -0.327   2.503  0.00  0.00    +0.164 C 
BRANCH  18  28
ATOM     19  C   UNL     1      -0.018   1.503   0.010  0.00  0.00    +0.086 C 
ATOM     20  C   UNL     1       0.002  -0.004   0.002  0.00  0.00    +0.108 A 
ATOM     21  N   UNL     1       0.008  -0.744  -1.069  0.00  0.00    -0.233 NA
ATOM     22  C   UNL     1       0.027  -2.055  -0.717  0.00  0.00    +0.089 A 
ATOM     23  C   UNL     1       0.040  -3.248  -1.446  0.00  0.00    +0.030 A 
ATOM     24  C   UNL     1       0.058  -4.446  -0.789  0.00  0.00    +0.002 A 
ATOM     25  C   UNL     1       0.064  -4.493   0.598  0.00  0.00    +0.002 A 
ATOM     26  C   UNL     1       0.052  -3.329   1.337  0.00  0.00    +0.028 A 
ATOM     27  C   UNL     1       0.033  -2.103   0.687  0.00  0.00    +0.069 A 
ATOM     28  N   UNL     1       0.023  -0.789   1.113  0.00  0.00    -0.324 N 
ENDBRANCH  18  28
ENDBRANCH  17  18
ENDBRANCH  16  17
ENDBRANCH   1  16
TORSDOF 6
