REMARK  Name = ZINC03449743
REMARK  10 active torsions:
REMARK  status: ('A' for Active; 'I' for Inactive)
REMARK    1  A    between atoms: C_1  and  O_2
REMARK    2  A    between atoms: O_2  and  C_3
REMARK    3  A    between atoms: C_6  and  C_11
REMARK    4  A    between atoms: C_8  and  O_9
REMARK    5  A    between atoms: O_9  and  C_10
REMARK    6  A    between atoms: C_14  and  C_34
REMARK    7  A    between atoms: C_17  and  C_19
REMARK    8  A    between atoms: C_19  and  O_20
REMARK    9  A    between atoms: O_20  and  C_21
REMARK   10  A    between atoms: C_21  and  C_23
REMARK                            x       y       z     vdW  Elec       q    Type
REMARK                         _______ _______ _______ _____ _____    ______ ____
ROOT
ATOM      1  C   UNL     1       2.507  -2.501  -4.386  0.00  0.00    +0.152 C 
ATOM      2  C   UNL     1       4.011  -2.441  -4.238  0.00  0.00    +0.027 C 
ATOM      3  C   UNL     1       4.487  -1.749  -5.275  0.00  0.00    +0.057 C 
ATOM      4  N   UNL     1       3.464  -1.330  -6.116  0.00  0.00    -0.260 N 
ATOM      5  N   UNL     1       2.221  -1.762  -5.627  0.00  0.00    -0.208 N 
ATOM      6  C   UNL     1       1.011  -1.543  -6.178  0.00  0.00    +0.270 C 
ATOM      7  O   UNL     1       0.013  -1.977  -5.643  0.00  0.00    -0.270 OA
ATOM      8  H   UNL     1       3.591  -0.814  -6.927  0.00  0.00    +0.170 HD
ENDROOT
BRANCH   1  12
ATOM      9  C   UNL     1       0.606  -0.608  -1.056  0.00  0.00    +0.162 A 
ATOM     10  C   UNL     1       1.173   0.159  -2.062  0.00  0.00    +0.050 A 
ATOM     11  C   UNL     1       1.787  -0.456  -3.137  0.00  0.00    +0.009 A 
ATOM     12  C   UNL     1       1.837  -1.836  -3.212  0.00  0.00    -0.018 A 
ATOM     13  C   UNL     1       1.273  -2.606  -2.212  0.00  0.00    +0.055 A 
ATOM     14  C   UNL     1       0.662  -1.996  -1.129  0.00  0.00    +0.162 A 
BRANCH   9  16
ATOM     15  C   UNL     1      -0.017   1.425   0.010  0.00  0.00    +0.277 C 
ATOM     16  O   UNL     1       0.002  -0.004   0.002  0.00  0.00    -0.491 OA
ENDBRANCH   9  16
BRANCH  14  17
ATOM     17  O   UNL     1       0.112  -2.753  -0.142  0.00  0.00    -0.491 OA
ATOM     18  C   UNL     1       0.206  -4.171  -0.283  0.00  0.00    +0.277 C 
ENDBRANCH  14  17
ENDBRANCH   1  12
BRANCH   3  19
ATOM     19  C   UNL     1       5.916  -1.465  -5.499  0.00  0.00    +0.034 A 
ATOM     20  C   UNL     1       6.508  -0.765  -6.518  0.00  0.00    +0.017 A 
ATOM     21  C   UNL     1       7.878  -0.628  -6.517  0.00  0.00    +0.008 A 
ATOM     22  C   UNL     1       8.599  -1.187  -5.511  0.00  0.00    +0.046 A 
ATOM     23  S   UNL     1       7.325  -1.935  -4.509  0.00  0.00    -0.095 S 
ENDBRANCH   3  19
BRANCH   6  24
ATOM     24  C   UNL     1       0.897  -0.760  -7.461  0.00  0.00    +0.329 C 
BRANCH  24  25
ATOM     25  O   UNL     1      -0.477  -0.665  -7.841  0.00  0.00    -0.452 OA
BRANCH  25  26
ATOM     26  C   UNL     1      -0.751   0.007  -8.970  0.00  0.00    +0.352 C 
ATOM     27  O   UNL     1       0.145   0.498  -9.614  0.00  0.00    -0.247 OA
BRANCH  26  28
ATOM     28  C   UNL     1      -2.178   0.149  -9.434  0.00  0.00    +0.318 C 
ATOM     29  C   UNL     1      -2.967   0.999  -8.429  0.00  0.00    +0.285 C 
ATOM     30  O   UNL     1      -4.311   1.125  -8.906  0.00  0.00    -0.484 OA
ATOM     31  C   UNL     1      -4.466   1.440 -10.222  0.00  0.00    +0.162 A 
ATOM     32  C   UNL     1      -5.686   1.928 -10.666  0.00  0.00    +0.049 A 
ATOM     33  C   UNL     1      -5.859   2.249 -11.998  0.00  0.00    +0.004 A 
ATOM     34  C   UNL     1      -4.818   2.086 -12.893  0.00  0.00    +0.004 A 
ATOM     35  C   UNL     1      -3.599   1.602 -12.456  0.00  0.00    +0.049 A 
ATOM     36  C   UNL     1      -3.418   1.278 -11.120  0.00  0.00    +0.163 A 
ATOM     37  O   UNL     1      -2.209   0.810 -10.704  0.00  0.00    -0.471 OA
ENDBRANCH  26  28
ENDBRANCH  25  26
ENDBRANCH  24  25
ENDBRANCH   6  24
TORSDOF 8
