REMARK  Name = ZINC39698201
REMARK  8 active torsions:
REMARK  status: ('A' for Active; 'I' for Inactive)
REMARK    1  A    between atoms: C_1  and  C_2
REMARK    2  A    between atoms: C_5  and  N_9
REMARK    3  A    between atoms: C_7  and  C_8
REMARK    4  A    between atoms: C_10  and  O_29
REMARK    5  A    between atoms: C_12  and  C_16
REMARK    6  A    between atoms: C_13  and  C_15
REMARK    7  A    between atoms: C_17  and  C_18
REMARK    8  A    between atoms: C_17  and  C_20
REMARK                            x       y       z     vdW  Elec       q    Type
REMARK                         _______ _______ _______ _____ _____    ______ ____
ROOT
ATOM      1  N   UNL     1      -0.185  -4.330   0.364  0.00  0.00    -0.221 N 
ATOM      2  C   UNL     1       0.123  -5.077  -0.867  0.00  0.00    +0.253 C 
ATOM      3  C   UNL     1      -0.092  -6.527  -0.492  0.00  0.00    +0.019 C 
ATOM      4  C   UNL     1      -0.473  -6.545   0.802  0.00  0.00    +0.026 C 
ATOM      5  N   UNL     1      -0.531  -5.288   1.325  0.00  0.00    -0.266 N 
ATOM      6  C   UNL     1      -0.790  -7.800   1.574  0.00  0.00    +0.062 C 
ATOM      7  H   UNL     1      -0.780  -5.085   2.240  0.00  0.00    +0.170 HD
ENDROOT
BRANCH   1  12
ATOM      8  C   UNL     1       0.012   1.292   1.077  0.00  0.00    +0.044 C 
ATOM      9  C   UNL     1      -0.040  -0.202   0.887  0.00  0.00    -0.047 A 
ATOM     10  C   UNL     1       0.275  -0.753  -0.341  0.00  0.00    +0.005 A 
ATOM     11  C   UNL     1       0.228  -2.122  -0.518  0.00  0.00    +0.025 A 
ATOM     12  C   UNL     1      -0.136  -2.946   0.540  0.00  0.00    +0.051 A 
ATOM     13  C   UNL     1      -0.452  -2.389   1.772  0.00  0.00    +0.028 A 
ATOM     14  C   UNL     1      -0.398  -1.019   1.944  0.00  0.00    -0.046 A 
ATOM     15  C   UNL     1      -0.734  -0.415   3.283  0.00  0.00    +0.044 C 
ENDBRANCH   1  12
BRANCH   3  16
ATOM     16  C   UNL     1       0.074  -7.645  -1.333  0.00  0.00    +0.027 C 
ATOM     17  C   UNL     1       0.910  -8.653  -0.967  0.00  0.00    +0.072 C 
BRANCH  17  18
ATOM     18  C   UNL     1       0.990  -9.905  -1.802  0.00  0.00    +0.216 C 
ATOM     19  N   UNL     1       2.374 -10.134  -2.235  0.00  0.00    -0.359 N 
ATOM     20  C   UNL     1       2.752 -11.280  -1.748  0.00  0.00    +0.060 A 
ATOM     21  C   UNL     1       4.008 -12.038  -1.835  0.00  0.00    +0.027 A 
ATOM     22  C   UNL     1       4.111 -13.229  -1.212  0.00  0.00    +0.002 A 
ATOM     23  C   UNL     1       3.057 -13.790  -0.471  0.00  0.00    +0.002 A 
ATOM     24  C   UNL     1       1.863 -13.180  -0.328  0.00  0.00    +0.027 A 
ATOM     25  C   UNL     1       1.635 -11.875  -0.964  0.00  0.00    +0.060 A 
ATOM     26  N   UNL     1       0.611 -11.073  -0.996  0.00  0.00    -0.359 N 
ATOM     27  H   UNL     1       2.909  -9.539  -2.784  0.00  0.00    +0.162 HD
ATOM     28  H   UNL     1      -0.246 -11.219  -0.566  0.00  0.00    +0.162 HD
ENDBRANCH  17  18
BRANCH  17  29
ATOM     29  C   UNL     1       1.713  -8.525   0.211  0.00  0.00    +0.099 C 
ATOM     30  N   UNL     1       2.351  -8.423   1.146  0.00  0.00    -0.191 NA
ENDBRANCH  17  29
ENDBRANCH   3  16
BRANCH   2  31
ATOM     31  O   UNL     1      -0.766  -4.694  -1.919  0.00  0.00    -0.369 OA
ATOM     32  H   UNL     1      -0.552  -5.086  -2.776  0.00  0.00    +0.212 HD
ENDBRANCH   2  31
TORSDOF 5
