REMARK  Name = ZINC44020739
REMARK  8 active torsions:
REMARK  status: ('A' for Active; 'I' for Inactive)
REMARK    1  A    between atoms: C_1  and  C_2
REMARK    2  A    between atoms: C_13  and  C_15
REMARK    3  A    between atoms: N_17  and  C_18
REMARK    4  A    between atoms: C_18  and  C_19
REMARK    5  A    between atoms: C_18  and  C_20
REMARK    6  A    between atoms: C_18  and  C_21
REMARK    7  A    between atoms: C_23  and  O_34
REMARK    8  A    between atoms: C_27  and  C_33
REMARK                            x       y       z     vdW  Elec       q    Type
REMARK                         _______ _______ _______ _____ _____    ______ ____
ROOT
ATOM      1  C   UNL     1       0.086   1.560  -0.721  0.00  0.00    +0.012 C 
ATOM      2  C   UNL     1       0.102   0.031  -0.775  0.00  0.00    -0.018 C 
ATOM      3  C   UNL     1       1.069  -0.433  -1.847  0.00  0.00    +0.008 C 
ATOM      4  C   UNL     1       2.432   0.211  -1.545  0.00  0.00    +0.005 C 
ATOM      5  C   UNL     1       2.921  -0.155  -0.148  0.00  0.00    +0.004 C 
ATOM      6  C   UNL     1       1.887   0.219   0.927  0.00  0.00    -0.001 C 
ATOM      7  C   UNL     1       0.604  -0.537   0.580  0.00  0.00    -0.001 C 
ATOM      8  C   UNL     1      -0.597  -0.265   1.493  0.00  0.00    +0.005 C 
ATOM      9  C   UNL     1      -1.808  -0.637   0.595  0.00  0.00    +0.013 C 
ATOM     10  C   UNL     1      -1.325  -0.497  -0.871  0.00  0.00    +0.081 C 
ATOM     11  C   UNL     1       2.406  -0.195   2.304  0.00  0.00    +0.037 C 
ATOM     12  C   UNL     1       3.731   0.517   2.595  0.00  0.00    +0.136 C 
ATOM     13  C   UNL     1       4.748   0.139   1.519  0.00  0.00    +0.112 C 
ATOM     14  C   UNL     1       4.222   0.581   0.166  0.00  0.00    +0.010 C 
ATOM     15  C   UNL     1       5.266   0.297  -0.880  0.00  0.00    -0.013 C 
ATOM     16  C   UNL     1       6.552   0.469  -0.565  0.00  0.00    +0.063 C 
ATOM     17  C   UNL     1       6.901   0.941   0.787  0.00  0.00    +0.237 C 
ATOM     18  O   UNL     1       7.965   1.496   0.987  0.00  0.00    -0.271 OA
ATOM     19  N   UNL     1       6.036   0.785   1.764  0.00  0.00    -0.306 N 
ATOM     20  C   UNL     1       3.954   2.087   0.204  0.00  0.00    +0.018 C 
ATOM     21  H   UNL     1       6.270   1.086   2.656  0.00  0.00    +0.149 HD
ENDROOT
BRANCH  10  22
ATOM     22  C   UNL     1      -1.341  -1.838  -1.557  0.00  0.00    +0.217 C 
ATOM     23  O   UNL     1      -1.139  -2.849  -0.917  0.00  0.00    -0.275 OA
ATOM     24  N   UNL     1      -1.582  -1.915  -2.881  0.00  0.00    -0.310 N 
ATOM     25  H   UNL     1      -1.744  -1.107  -3.392  0.00  0.00    +0.149 HD
BRANCH  24  26
ATOM     26  C   UNL     1      -1.598  -3.220  -3.548  0.00  0.00    +0.026 C 
ATOM     27  C   UNL     1      -2.683  -4.098  -2.924  0.00  0.00    +0.031 C 
ATOM     28  C   UNL     1      -1.891  -3.027  -5.037  0.00  0.00    +0.031 C 
ATOM     29  C   UNL     1      -0.235  -3.895  -3.379  0.00  0.00    +0.031 C 
ENDBRANCH  24  26
ENDBRANCH  10  22
BRANCH  12  30
ATOM     30  O   UNL     1       3.526   1.931   2.584  0.00  0.00    -0.390 OA
ATOM     31  H   UNL     1       2.886   2.241   3.239  0.00  0.00    +0.210 HD
ENDBRANCH  12  30
TORSDOF 3
