REMARK  Name = ZINC11912400
REMARK  4 active torsions:
REMARK  status: ('A' for Active; 'I' for Inactive)
REMARK    1  A    between atoms: C_5  and  N_7
REMARK    2  A    between atoms: C_12  and  N_67
REMARK    3  A    between atoms: N_23  and  C_26
REMARK    4  A    between atoms: C_26  and  C_27
REMARK                            x       y       z     vdW  Elec       q    Type
REMARK                         _______ _______ _______ _____ _____    ______ ____
ROOT
ATOM      1  C   UNL     1      -0.766   6.931   5.035  0.00  0.00    -0.063 C 
ATOM      2  C   UNL     1       0.542   6.358   4.480  0.00  0.00    -0.010 C 
ATOM      3  C   UNL     1       0.246   5.456   3.281  0.00  0.00    +0.035 C 
ATOM      4  C   UNL     1      -0.803   4.426   3.687  0.00  0.00    -0.023 A 
ATOM      5  C   UNL     1      -1.579   4.624   4.774  0.00  0.00    -0.006 A 
ATOM      6  S   UNL     1      -2.627   3.196   4.856  0.00  0.00    -0.073 S 
ATOM      7  C   UNL     1      -2.019   2.337   3.427  0.00  0.00    +0.116 A 
ATOM      8  C   UNL     1      -1.020   3.191   2.934  0.00  0.00    +0.076 A 
ATOM      9  C   UNL     1      -0.339   2.736   1.758  0.00  0.00    +0.262 A 
ATOM     10  O   UNL     1       0.548   3.405   1.256  0.00  0.00    -0.267 OA
ATOM     11  N   UNL     1      -0.698   1.558   1.213  0.00  0.00    -0.298 N 
ATOM     12  C   UNL     1      -1.680   0.797   1.762  0.00  0.00    +0.203 A 
ATOM     13  N   UNL     1      -2.315   1.183   2.836  0.00  0.00    -0.230 NA
ATOM     14  C   UNL     1      -1.555   5.797   5.705  0.00  0.00    +0.027 C 
ENDROOT
BRANCH   1  20
ATOM     15  N   UNL     1      -0.574   9.217   8.582  0.00  0.00    -0.331 N 
ATOM     16  C   UNL     1      -1.337   9.764   7.451  0.00  0.00    +0.086 C 
ATOM     17  C   UNL     1      -1.697   8.630   6.487  0.00  0.00    -0.059 C 
ATOM     18  C   UNL     1       0.297   7.431   7.152  0.00  0.00    -0.059 C 
ATOM     19  C   UNL     1       0.657   8.564   8.116  0.00  0.00    +0.086 C 
ATOM     20  N   UNL     1      -0.450   7.997   6.010  0.00  0.00    +0.384 N 
ATOM     21  H   UNL     1       0.131   8.708   5.550  0.00  0.00    -0.081 HD
BRANCH  15  26
ATOM     22  C   UNL     1       0.736  12.308  10.082  0.00  0.00    +0.002 A 
ATOM     23  C   UNL     1       0.277  12.185  11.380  0.00  0.00    +0.003 A 
ATOM     24  C   UNL     1      -0.465  11.079  11.753  0.00  0.00    +0.040 A 
ATOM     25  C   UNL     1      -0.754  10.094  10.826  0.00  0.00    +0.144 A 
ATOM     26  C   UNL     1      -0.288  10.213   9.521  0.00  0.00    +0.065 A 
ATOM     27  C   UNL     1       0.456  11.326   9.152  0.00  0.00    +0.026 A 
ATOM     28  F   UNL     1      -1.483   9.017  11.189  0.00  0.00    -0.204 F 
ENDBRANCH  15  26
ENDBRANCH   1  20
BRANCH  11  29
ATOM     29  C   UNL     1      -0.013   1.086   0.008  0.00  0.00    +0.129 C 
BRANCH  29  30
ATOM     30  C   UNL     1      -0.753   1.593  -1.232  0.00  0.00    +0.009 C 
ATOM     31  C   UNL     1      -2.147   0.964  -1.286  0.00  0.00    +0.005 C 
ATOM     32  C   UNL     1      -2.886   1.471  -2.526  0.00  0.00    +0.000 C 
ATOM     33  C   UNL     1      -2.103   1.083  -3.781  0.00  0.00    +0.000 C 
ATOM     34  C   UNL     1      -0.709   1.712  -3.727  0.00  0.00    +0.000 C 
ATOM     35  C   UNL     1       0.031   1.205  -2.487  0.00  0.00    +0.005 C 
ENDBRANCH  29  30
ENDBRANCH  11  29
TORSDOF 4
