REMARK  Name = ZINC00085347
REMARK  6 active torsions:
REMARK  status: ('A' for Active; 'I' for Inactive)
REMARK    1  A    between atoms: C_1  and  C_2
REMARK    2  A    between atoms: C_5  and  C_11
REMARK    3  A    between atoms: C_7  and  N_8
REMARK    4  A    between atoms: C_11  and  C_13
REMARK    5  A    between atoms: C_13  and  C_14
REMARK    6  A    between atoms: C_14  and  O_24
REMARK                            x       y       z     vdW  Elec       q    Type
REMARK                         _______ _______ _______ _____ _____    ______ ____
ROOT
ATOM      1  C   UNL     1       1.577   2.555  -1.327  0.00  0.00    +0.129 C 
ENDROOT
BRANCH   1   2
ATOM      2  C   UNL     1       1.375   1.782  -0.022  0.00  0.00    +0.175 C 
ATOM      3  C   UNL     1       1.960   0.393  -0.134  0.00  0.00    +0.014 A 
ATOM      4  C   UNL     1       3.238  -0.069  -0.357  0.00  0.00    +0.009 A 
ATOM      5  C   UNL     1       3.480  -1.431  -0.409  0.00  0.00    +0.000 A 
ATOM      6  C   UNL     1       2.436  -2.322  -0.238  0.00  0.00    +0.002 A 
ATOM      7  C   UNL     1       1.155  -1.861  -0.014  0.00  0.00    +0.024 A 
ATOM      8  C   UNL     1       0.904  -0.492   0.040  0.00  0.00    +0.040 A 
ATOM      9  N   UNL     1      -0.284   0.210   0.249  0.00  0.00    -0.282 N 
ATOM     10  C   UNL     1      -0.099   1.541   0.228  0.00  0.00    +0.254 C 
ATOM     11  O   UNL     1      -0.953   2.389   0.377  0.00  0.00    -0.272 OA
ATOM     12  H   UNL     1      -1.144  -0.214   0.393  0.00  0.00    +0.155 HD
BRANCH   2  13
ATOM     13  O   UNL     1       1.960   2.486   1.075  0.00  0.00    -0.374 OA
ATOM     14  H   UNL     1       1.579   3.361   1.230  0.00  0.00    +0.211 HD
ENDBRANCH   2  13
ENDBRANCH   1   2
BRANCH   1  15
ATOM     15  C   UNL     1       0.903   3.899  -1.224  0.00  0.00    +0.167 C 
ATOM     16  O   UNL     1       0.317   4.207  -0.208  0.00  0.00    -0.292 OA
BRANCH  15  21
ATOM     17  C   UNL     1       1.104   7.562  -5.650  0.00  0.00    +0.046 C 
ATOM     18  C   UNL     1       1.051   6.602  -4.490  0.00  0.00    -0.020 A 
ATOM     19  C   UNL     1       1.673   5.369  -4.588  0.00  0.00    +0.006 A 
ATOM     20  C   UNL     1       1.633   4.487  -3.529  0.00  0.00    +0.012 A 
ATOM     21  C   UNL     1       0.954   4.837  -2.357  0.00  0.00    +0.020 A 
ATOM     22  C   UNL     1       0.329   6.084  -2.266  0.00  0.00    +0.044 A 
ATOM     23  C   UNL     1       0.382   6.958  -3.332  0.00  0.00    +0.130 A 
BRANCH  23  24
ATOM     24  N   UNL     1      -0.279   8.279  -3.237  0.00  0.00    +0.057 N 
ATOM     25  O   UNL     1      -0.966   8.548  -2.268  0.00  0.00    -0.126 OA
ATOM     26  O   UNL     1      -0.135   9.097  -4.128  0.00  0.00    -0.126 OA
ENDBRANCH  23  24
ENDBRANCH  15  21
ENDBRANCH   1  15
TORSDOF 5
