REMARK  Name = ZINC67503633
REMARK  7 active torsions:
REMARK  status: ('A' for Active; 'I' for Inactive)
REMARK    1  A    between atoms: C_1  and  O_2
REMARK    2  A    between atoms: O_2  and  C_3
REMARK    3  A    between atoms: C_5  and  C_12
REMARK    4  A    between atoms: C_12  and  N_13
REMARK    5  A    between atoms: N_13  and  C_14
REMARK    6  A    between atoms: N_19  and  S_21
REMARK    7  A    between atoms: S_21  and  C_24
REMARK                            x       y       z     vdW  Elec       q    Type
REMARK                         _______ _______ _______ _____ _____    ______ ____
ROOT
ATOM      1  N   UNL     1       3.806   0.666  -3.901  0.00  0.00    +0.384 N 
ATOM      2  H   UNL     1       3.853   1.166  -3.026  0.00  0.00    -0.085 HD
ATOM      3  H   UNL     1       4.311  -0.203  -3.820  0.00  0.00    -0.085 HD
ENDROOT
BRANCH   1   4
ATOM      4  C   UNL     1       4.404   1.483  -4.965  0.00  0.00    -0.055 C 
ATOM      5  C   UNL     1       3.719   2.851  -5.005  0.00  0.00    -0.013 C 
ATOM      6  C   UNL     1       4.320   3.692  -6.135  0.00  0.00    +0.016 C 
ATOM      7  C   UNL     1       5.813   3.906  -5.867  0.00  0.00    +0.109 C 
ATOM      8  N   UNL     1       6.453   2.596  -5.684  0.00  0.00    -0.183 NA
ATOM      9  C   UNL     1       5.899   1.672  -4.685  0.00  0.00    +0.093 C 
BRANCH   8  10
ATOM     10  S   UNL     1       7.776   2.170  -6.585  0.00  0.00    +0.029 S 
ATOM     11  O   UNL     1       7.744   0.750  -6.625  0.00  0.00    -0.158 OA
ATOM     12  O   UNL     1       7.661   2.930  -7.779  0.00  0.00    -0.158 OA
ATOM     13  C   UNL     1       9.202   2.736  -5.617  0.00  0.00    +0.215 C 
ENDBRANCH   8  10
ENDBRANCH   1   4
BRANCH   1  14
ATOM     14  C   UNL     1       2.401   0.387  -4.230  0.00  0.00    -0.046 C 
BRANCH  14  17
ATOM     15  C   UNL     1       0.606  -0.608  -1.056  0.00  0.00    +0.166 A 
ATOM     16  C   UNL     1       1.173   0.161  -2.062  0.00  0.00    +0.051 A 
ATOM     17  C   UNL     1       1.787  -0.452  -3.139  0.00  0.00    -0.057 A 
ATOM     18  C   UNL     1       1.839  -1.831  -3.217  0.00  0.00    +0.051 A 
ATOM     19  C   UNL     1       1.275  -2.607  -2.216  0.00  0.00    +0.170 A 
ATOM     20  C   UNL     1       0.661  -1.994  -1.128  0.00  0.00    +0.208 A 
ATOM     21  O   UNL     1       0.195  -2.963  -0.286  0.00  0.00    -0.449 OA
ATOM     22  C   UNL     1       0.176  -4.173  -1.067  0.00  0.00    +0.467 C 
ATOM     23  O   UNL     1       1.194  -3.960  -2.058  0.00  0.00    -0.452 OA
BRANCH  15  25
ATOM     24  C   UNL     1      -0.017   1.425   0.010  0.00  0.00    +0.277 C 
ATOM     25  O   UNL     1       0.002  -0.004   0.002  0.00  0.00    -0.491 OA
ENDBRANCH  15  25
ENDBRANCH  14  17
ENDBRANCH   1  14
TORSDOF 5
