REMARK  Name = ZINC12053238
REMARK  4 active torsions:
REMARK  status: ('A' for Active; 'I' for Inactive)
REMARK    1  A    between atoms: C_1  and  C_2
REMARK    2  A    between atoms: C_7  and  C_10
REMARK    3  A    between atoms: N_12  and  C_13
REMARK    4  A    between atoms: C_19  and  N_60
REMARK                            x       y       z     vdW  Elec       q    Type
REMARK                         _______ _______ _______ _____ _____    ______ ____
ROOT
ATOM      1  C   UNL     1      -1.427   3.595  -0.009  0.00  0.00    +0.056 C 
ATOM      2  C   UNL     1      -0.711   3.121   1.258  0.00  0.00    +0.018 C 
ATOM      3  C   UNL     1      -0.662   1.590   1.266  0.00  0.00    -0.017 C 
ATOM      4  C   UNL     1       0.048   1.102   0.001  0.00  0.00    -0.078 C 
ATOM      5  C   UNL     1      -0.695   3.048  -1.237  0.00  0.00    -0.056 C 
ATOM      6  N   UNL     1      -0.704   1.571  -1.183  0.00  0.00    +0.383 N 
ATOM      7  H   UNL     1      -1.676   1.246  -1.110  0.00  0.00    -0.081 HD
ENDROOT
BRANCH   6   8
ATOM      8  C   UNL     1      -0.104   1.017  -2.414  0.00  0.00    -0.069 C 
ATOM      9  C   UNL     1      -0.246  -0.519  -2.372  0.00  0.00    -0.015 C 
ATOM     10  C   UNL     1      -0.149  -1.046  -3.779  0.00  0.00    -0.002 C 
ATOM     11  C   UNL     1       1.283  -1.475  -4.150  0.00  0.00    -0.000 C 
ATOM     12  C   UNL     1       2.353  -0.489  -3.643  0.00  0.00    -0.000 C 
ATOM     13  C   UNL     1       1.946   0.948  -3.829  0.00  0.00    -0.002 C 
ATOM     14  C   UNL     1       1.283   1.442  -2.527  0.00  0.00    -0.015 C 
ENDBRANCH   6   8
BRANCH   1  17
ATOM     15  C   UNL     1      -2.391   5.751   0.589  0.00  0.00    +0.216 C 
ATOM     16  O   UNL     1      -3.255   5.162   1.202  0.00  0.00    -0.276 OA
ATOM     17  N   UNL     1      -1.429   5.059  -0.053  0.00  0.00    -0.314 N 
ATOM     18  H   UNL     1      -0.737   5.530  -0.543  0.00  0.00    +0.149 HD
BRANCH  15  25
ATOM     19  C   UNL     1      -3.473  11.365   3.256  0.00  0.00    +0.109 C 
ATOM     20  C   UNL     1      -2.216  10.754   2.692  0.00  0.00    +0.212 C 
ATOM     21  O   UNL     1      -1.132  11.094   3.119  0.00  0.00    -0.276 OA
ATOM     22  N   UNL     1      -2.295   9.831   1.713  0.00  0.00    -0.302 N 
ATOM     23  C   UNL     1      -3.600   9.320   1.271  0.00  0.00    +0.108 C 
ATOM     24  C   UNL     1      -3.581   7.790   1.347  0.00  0.00    +0.032 C 
ATOM     25  C   UNL     1      -2.392   7.258   0.544  0.00  0.00    +0.078 C 
ATOM     26  C   UNL     1      -1.089   7.787   1.147  0.00  0.00    +0.032 C 
ATOM     27  C   UNL     1      -1.079   9.317   1.069  0.00  0.00    +0.108 C 
ENDBRANCH  15  25
ENDBRANCH   1  17
TORSDOF 3
