REMARK  Name = ZINC16923104
REMARK  7 active torsions:
REMARK  status: ('A' for Active; 'I' for Inactive)
REMARK    1  A    between atoms: C_1  and  C_2
REMARK    2  A    between atoms: C_7  and  N_8
REMARK    3  A    between atoms: C_11  and  C_16
REMARK    4  A    between atoms: C_16  and  C_17
REMARK    5  A    between atoms: N_19  and  C_20
REMARK    6  A    between atoms: C_22  and  N_27
REMARK    7  A    between atoms: C_25  and  O_26
REMARK                            x       y       z     vdW  Elec       q    Type
REMARK                         _______ _______ _______ _____ _____    ______ ____
ROOT
ATOM      1  C   UNL     1      -1.699   2.413   4.193  0.00  0.00    +0.120 C 
ENDROOT
BRANCH   1   5
ATOM      2  N   UNL     1       0.066   0.009   2.419  0.00  0.00    -0.200 N 
ATOM      3  C   UNL     1      -1.103   0.291   2.971  0.00  0.00    +0.241 C 
ATOM      4  O   UNL     1      -2.155  -0.025   2.458  0.00  0.00    -0.274 OA
ATOM      5  C   UNL     1      -1.035   1.038   4.295  0.00  0.00    +0.151 C 
ATOM      6  S   UNL     1       0.791   1.187   4.478  0.00  0.00    -0.054 S 
ATOM      7  C   UNL     1       1.247   0.343   2.970  0.00  0.00    +0.286 C 
ATOM      8  O   UNL     1       2.363   0.124   2.542  0.00  0.00    -0.262 OA
BRANCH   2  15
ATOM      9  C   UNL     1       0.029   1.532   0.015  0.00  0.00    +0.045 C 
ATOM     10  C   UNL     1       0.057   0.026   0.002  0.00  0.00    -0.029 A 
ATOM     11  C   UNL     1       0.071  -0.655  -1.200  0.00  0.00    +0.005 A 
ATOM     12  C   UNL     1       0.096  -2.037  -1.213  0.00  0.00    +0.000 A 
ATOM     13  C   UNL     1       0.107  -2.743  -0.024  0.00  0.00    +0.002 A 
ATOM     14  C   UNL     1       0.093  -2.067   1.181  0.00  0.00    +0.024 A 
ATOM     15  C   UNL     1       0.074  -0.679   1.197  0.00  0.00    +0.048 A 
ENDBRANCH   2  15
ENDBRANCH   1   5
BRANCH   1  16
ATOM     16  C   UNL     1      -1.718   3.064   5.552  0.00  0.00    +0.219 C 
ATOM     17  O   UNL     1      -1.246   2.485   6.508  0.00  0.00    -0.275 OA
ATOM     18  N   UNL     1      -2.258   4.289   5.705  0.00  0.00    -0.282 N 
ATOM     19  H   UNL     1      -2.577   4.779   4.931  0.00  0.00    +0.155 HD
BRANCH  18  20
ATOM     20  C   UNL     1      -2.361   4.855   6.983  0.00  0.00    +0.078 A 
ATOM     21  C   UNL     1      -1.379   4.611   7.932  0.00  0.00    +0.059 A 
ATOM     22  C   UNL     1      -1.482   5.171   9.191  0.00  0.00    +0.128 A 
ATOM     23  C   UNL     1      -2.562   5.974   9.509  0.00  0.00    +0.036 A 
ATOM     24  C   UNL     1      -3.544   6.221   8.568  0.00  0.00    +0.049 A 
ATOM     25  C   UNL     1      -3.445   5.669   7.301  0.00  0.00    +0.138 A 
BRANCH  22  26
ATOM     26  N   UNL     1      -0.433   4.909  10.203  0.00  0.00    +0.056 N 
ATOM     27  O   UNL     1       0.512   4.207   9.927  0.00  0.00    -0.126 OA
ATOM     28  O   UNL     1      -0.522   5.398  11.306  0.00  0.00    -0.126 OA
ENDBRANCH  22  26
BRANCH  25  29
ATOM     29  O   UNL     1      -4.408   5.915   6.373  0.00  0.00    -0.505 OA
ATOM     30  H   UNL     1      -5.136   5.279   6.383  0.00  0.00    +0.292 HD
ENDBRANCH  25  29
ENDBRANCH  18  20
ENDBRANCH   1  16
TORSDOF 6
