REMARK  Name = ZINC32102884
REMARK  4 active torsions:
REMARK  status: ('A' for Active; 'I' for Inactive)
REMARK    1  A    between atoms: C_1  and  N_2
REMARK    2  A    between atoms: C_13  and  O_31
REMARK    3  A    between atoms: C_25  and  O_29
REMARK    4  A    between atoms: O_29  and  C_30
REMARK                            x       y       z     vdW  Elec       q    Type
REMARK                         _______ _______ _______ _____ _____    ______ ____
ROOT
ATOM      1  C   UNL     1      -0.018   1.461   0.010  0.00  0.00    +0.138 C 
ATOM      2  N   UNL     1       0.002  -0.004   0.002  0.00  0.00    -0.273 N 
ATOM      3  C   UNL     1      -1.135  -0.793   0.003  0.00  0.00    +0.040 A 
ATOM      4  C   UNL     1      -2.478  -0.412   0.012  0.00  0.00    +0.024 A 
ATOM      5  C   UNL     1      -3.425  -1.424   0.011  0.00  0.00    +0.002 A 
ATOM      6  C   UNL     1      -3.068  -2.757   0.001  0.00  0.00    +0.000 A 
ATOM      7  C   UNL     1      -1.734  -3.151  -0.007  0.00  0.00    +0.007 A 
ATOM      8  C   UNL     1      -0.786  -2.150  -0.006  0.00  0.00    -0.006 A 
ATOM      9  C   UNL     1       0.707  -2.195  -0.013  0.00  0.00    +0.112 C 
ATOM     10  C   UNL     1       1.131  -0.743  -0.013  0.00  0.00    +0.235 C 
ATOM     11  O   UNL     1       2.269  -0.323  -0.023  0.00  0.00    -0.274 OA
ATOM     12  C   UNL     1       1.248  -2.908   1.226  0.00  0.00    +0.121 C 
ATOM     13  C   UNL     1       1.238  -4.400   1.052  0.00  0.00    +0.191 C 
ATOM     14  N   UNL     1       1.408  -4.992  -0.092  0.00  0.00    -0.197 NA
ATOM     15  C   UNL     1       1.558  -4.241  -1.219  0.00  0.00    +0.166 A 
ATOM     16  C   UNL     1       1.234  -2.889  -1.238  0.00  0.00    +0.037 A 
ATOM     17  C   UNL     1       1.487  -2.410  -2.510  0.00  0.00    +0.142 A 
ATOM     18  N   UNL     1       1.933  -3.401  -3.248  0.00  0.00    -0.171 NA
ATOM     19  N   UNL     1       1.980  -4.565  -2.465  0.00  0.00    -0.190 N 
ATOM     20  C   UNL     1       2.386  -5.824  -2.891  0.00  0.00    +0.197 A 
ATOM     21  N   UNL     1       2.445  -6.944  -2.211  0.00  0.00    -0.221 NA
ATOM     22  C   UNL     1       2.863  -8.106  -2.758  0.00  0.00    +0.081 A 
ATOM     23  C   UNL     1       2.973  -9.373  -2.139  0.00  0.00    +0.032 A 
ATOM     24  C   UNL     1       3.416 -10.454  -2.834  0.00  0.00    +0.048 A 
ATOM     25  C   UNL     1       3.777 -10.361  -4.175  0.00  0.00    +0.121 A 
ATOM     26  C   UNL     1       3.683  -9.136  -4.818  0.00  0.00    +0.063 A 
ATOM     27  C   UNL     1       3.236  -8.041  -4.120  0.00  0.00    +0.044 A 
ATOM     28  S   UNL     1       2.953  -6.331  -4.508  0.00  0.00    -0.048 S 
ENDROOT
BRANCH  25  29
ATOM     29  O   UNL     1       4.217 -11.459  -4.846  0.00  0.00    -0.495 OA
ATOM     30  C   UNL     1       4.286 -12.683  -4.113  0.00  0.00    +0.277 C 
ENDBRANCH  25  29
BRANCH  13  31
ATOM     31  O   UNL     1       1.041  -5.167   2.144  0.00  0.00    -0.495 OA
ATOM     32  H   UNL     1       1.046  -6.117   1.963  0.00  0.00    +0.293 HD
ENDBRANCH  13  31
TORSDOF 2
