REMARK  Name = ZINC05653655
REMARK  8 active torsions:
REMARK  status: ('A' for Active; 'I' for Inactive)
REMARK    1  A    between atoms: C_1  and  C_2
REMARK    2  A    between atoms: C_5  and  N_9
REMARK    3  A    between atoms: C_6  and  C_8
REMARK    4  A    between atoms: C_13  and  C_15
REMARK    5  A    between atoms: C_15  and  O_16
REMARK    6  A    between atoms: O_16  and  C_17
REMARK    7  A    between atoms: C_17  and  C_19
REMARK    8  A    between atoms: C_19  and  N_20
REMARK                            x       y       z     vdW  Elec       q    Type
REMARK                         _______ _______ _______ _____ _____    ______ ____
ROOT
ATOM      1  N   UNL     1       1.178  -0.662  -0.013  0.00  0.00    -0.269 N 
ATOM      2  C   UNL     1       0.002  -0.004   0.006  0.00  0.00    +0.310 C 
ATOM      3  O   UNL     1      -1.042  -0.625   0.004  0.00  0.00    -0.252 OA
ATOM      4  N   UNL     1      -0.015   1.344   0.026  0.00  0.00    -0.237 N 
ATOM      5  C   UNL     1      -1.192   2.002   0.039  0.00  0.00    +0.258 C 
ATOM      6  O   UNL     1      -2.233   1.382   0.032  0.00  0.00    -0.272 OA
ATOM      7  H   UNL     1       2.009  -0.168  -0.094  0.00  0.00    +0.156 HD
ATOM      8  H   UNL     1       0.818   1.840   0.027  0.00  0.00    +0.159 HD
ENDROOT
BRANCH   1  13
ATOM      9  C   UNL     1       1.268  -6.321   0.384  0.00  0.00    +0.044 C 
ATOM     10  C   UNL     1       1.244  -4.817   0.279  0.00  0.00    -0.050 A 
ATOM     11  C   UNL     1       0.175  -4.107   0.793  0.00  0.00    +0.005 A 
ATOM     12  C   UNL     1       0.150  -2.729   0.698  0.00  0.00    +0.024 A 
ATOM     13  C   UNL     1       1.200  -2.058   0.085  0.00  0.00    +0.038 A 
ATOM     14  C   UNL     1       2.270  -2.775  -0.435  0.00  0.00    -0.029 A 
ATOM     15  C   UNL     1       2.292  -4.152  -0.331  0.00  0.00    +0.008 A 
ATOM     16  C   UNL     1       3.408  -2.051  -1.106  0.00  0.00    +0.045 C 
ENDBRANCH   1  13
BRANCH   5  17
ATOM     17  C   UNL     1      -1.212   3.509   0.061  0.00  0.00    +0.328 C 
BRANCH  17  18
ATOM     18  O   UNL     1      -2.587   3.974   0.072  0.00  0.00    -0.454 OA
BRANCH  18  19
ATOM     19  C   UNL     1      -2.780   5.303   0.092  0.00  0.00    +0.326 C 
ATOM     20  O   UNL     1      -1.832   6.051   0.101  0.00  0.00    -0.249 OA
BRANCH  19  21
ATOM     21  C   UNL     1      -4.180   5.860   0.104  0.00  0.00    +0.237 C 
BRANCH  21  22
ATOM     22  N   UNL     1      -4.123   7.324   0.126  0.00  0.00    -0.223 N 
ATOM     23  C   UNL     1      -4.096   8.068   1.246  0.00  0.00    +0.254 C 
ATOM     24  O   UNL     1      -4.115   7.639   2.382  0.00  0.00    -0.270 OA
ATOM     25  C   UNL     1      -4.037   9.494   0.862  0.00  0.00    +0.049 A 
ATOM     26  C   UNL     1      -3.989  10.685   1.569  0.00  0.00    +0.014 A 
ATOM     27  C   UNL     1      -3.945  11.889   0.884  0.00  0.00    +0.001 A 
ATOM     28  C   UNL     1      -3.948  11.910  -0.498  0.00  0.00    +0.001 A 
ATOM     29  C   UNL     1      -3.995  10.727  -1.218  0.00  0.00    +0.014 A 
ATOM     30  C   UNL     1      -4.040   9.515  -0.547  0.00  0.00    +0.049 A 
ATOM     31  C   UNL     1      -4.096   8.101  -0.972  0.00  0.00    +0.254 C 
ATOM     32  O   UNL     1      -4.115   7.706  -2.121  0.00  0.00    -0.270 OA
ENDBRANCH  21  22
ENDBRANCH  19  21
ENDBRANCH  18  19
ENDBRANCH  17  18
ENDBRANCH   5  17
TORSDOF 6
