REMARK  Name = ZINC09081171
REMARK  12 active torsions:
REMARK  status: ('A' for Active; 'I' for Inactive)
REMARK    1  A    between atoms: C_1  and  N_2
REMARK    2  A    between atoms: N_2  and  C_3
REMARK    3  A    between atoms: N_2  and  C_4
REMARK    4  A    between atoms: C_7  and  C_10
REMARK    5  A    between atoms: C_10  and  C_12
REMARK    6  A    between atoms: C_10  and  S_28
REMARK    7  A    between atoms: C_12  and  N_13
REMARK    8  A    between atoms: C_14  and  C_16
REMARK    9  A    between atoms: C_16  and  N_17
REMARK   10  A    between atoms: S_28  and  C_31
REMARK   11  A    between atoms: C_34  and  O_37
REMARK   12  A    between atoms: O_37  and  C_38
REMARK                            x       y       z     vdW  Elec       q    Type
REMARK                         _______ _______ _______ _____ _____    ______ ____
ROOT
ATOM      1  C   UNL     1       0.081  -3.862   3.030  0.00  0.00    +0.183 C 
ENDROOT
BRANCH   1   5
ATOM      2  C   UNL     1       0.141  -5.311   7.051  0.00  0.00    +0.029 A 
ATOM      3  C   UNL     1      -0.897  -5.666   6.198  0.00  0.00    +0.023 A 
ATOM      4  C   UNL     1      -0.913  -5.196   4.900  0.00  0.00    +0.007 A 
ATOM      5  C   UNL     1       0.102  -4.373   4.448  0.00  0.00    -0.021 A 
ATOM      6  C   UNL     1       1.139  -4.022   5.293  0.00  0.00    +0.007 A 
ATOM      7  C   UNL     1       1.159  -4.484   6.594  0.00  0.00    +0.023 A 
BRANCH   2   9
ATOM      8  C   UNL     1      -0.974  -6.553   8.883  0.00  0.00    +0.129 C 
ATOM      9  N   UNL     1       0.160  -5.785   8.365  0.00  0.00    -0.336 N 
ATOM     10  C   UNL     1       1.315  -5.514   9.224  0.00  0.00    +0.129 C 
ENDBRANCH   2   9
ENDBRANCH   1   5
BRANCH   1  11
ATOM     11  S   UNL     1       1.572  -4.424   2.163  0.00  0.00    +0.005 S 
ATOM     12  O   UNL     1       1.484  -4.104   0.781  0.00  0.00    -0.169 OA
ATOM     13  O   UNL     1       2.731  -4.086   2.913  0.00  0.00    -0.169 OA
BRANCH  11  14
ATOM     14  C   UNL     1       1.494  -6.183   2.223  0.00  0.00    +0.089 A 
ATOM     15  C   UNL     1       2.074  -6.864   3.278  0.00  0.00    +0.030 A 
ATOM     16  C   UNL     1       2.010  -8.243   3.330  0.00  0.00    +0.047 A 
ATOM     17  C   UNL     1       1.373  -8.945   2.317  0.00  0.00    +0.120 A 
ATOM     18  C   UNL     1       0.797  -8.260   1.257  0.00  0.00    +0.047 A 
ATOM     19  C   UNL     1       0.859  -6.881   1.212  0.00  0.00    +0.030 A 
BRANCH  17  20
ATOM     20  O   UNL     1       1.312 -10.302   2.363  0.00  0.00    -0.495 OA
ATOM     21  C   UNL     1       1.927 -10.941   3.484  0.00  0.00    +0.277 C 
ENDBRANCH  17  20
ENDBRANCH  11  14
ENDBRANCH   1  11
BRANCH   1  22
ATOM     22  C   UNL     1       0.043  -2.332   3.040  0.00  0.00    +0.135 C 
BRANCH  22  23
ATOM     23  N   UNL     1       0.023  -1.835   1.662  0.00  0.00    -0.312 N 
ATOM     24  C   UNL     1      -0.012  -0.509   1.424  0.00  0.00    +0.231 C 
ATOM     25  O   UNL     1      -0.026   0.273   2.351  0.00  0.00    -0.274 OA
ATOM     26  H   UNL     1       0.034  -2.461   0.921  0.00  0.00    +0.149 HD
BRANCH  24  27
ATOM     27  C   UNL     1      -0.033   0.002   0.007  0.00  0.00    +0.212 C 
BRANCH  27  28
ATOM     28  N   UNL     1      -0.069   1.466   0.016  0.00  0.00    -0.225 N 
ATOM     29  C   UNL     1      -1.197   2.200   0.021  0.00  0.00    +0.254 C 
ATOM     30  O   UNL     1      -2.329   1.759   0.020  0.00  0.00    -0.270 OA
ATOM     31  C   UNL     1      -0.828   3.631   0.033  0.00  0.00    +0.049 A 
ATOM     32  C   UNL     1      -1.547   4.816   0.043  0.00  0.00    +0.014 A 
ATOM     33  C   UNL     1      -0.875   6.027   0.047  0.00  0.00    +0.001 A 
ATOM     34  C   UNL     1       0.507   6.062   0.039  0.00  0.00    +0.001 A 
ATOM     35  C   UNL     1       1.240   4.885   0.028  0.00  0.00    +0.014 A 
ATOM     36  C   UNL     1       0.581   3.666   0.025  0.00  0.00    +0.049 A 
ATOM     37  C   UNL     1       1.020   2.255   0.015  0.00  0.00    +0.254 C 
ATOM     38  O   UNL     1       2.173   1.872   0.006  0.00  0.00    -0.270 OA
ENDBRANCH  27  28
ENDBRANCH  24  27
ENDBRANCH  22  23
ENDBRANCH   1  22
TORSDOF 9
