REMARK  Name = ZINC13107078
REMARK  7 active torsions:
REMARK  status: ('A' for Active; 'I' for Inactive)
REMARK    1  A    between atoms: C_1  and  C_2
REMARK    2  A    between atoms: C_14  and  C_16
REMARK    3  A    between atoms: C_16  and  O_17
REMARK    4  A    between atoms: O_17  and  C_18
REMARK    5  A    between atoms: C_18  and  C_20
REMARK    6  A    between atoms: C_25  and  S_26
REMARK    7  A    between atoms: S_26  and  N_29
REMARK                            x       y       z     vdW  Elec       q    Type
REMARK                         _______ _______ _______ _____ _____    ______ ____
ROOT
ATOM      1  C   UNL     1      -1.858   0.013   1.981  0.00  0.00    +0.342 C 
ATOM      2  O   UNL     1      -1.555  -0.134   0.814  0.00  0.00    -0.245 OA
ENDROOT
BRANCH   1   3
ATOM      3  C   UNL     1      -1.936   1.370   2.559  0.00  0.00    +0.085 A 
ATOM      4  C   UNL     1      -2.418   1.553   3.857  0.00  0.00    +0.017 A 
ATOM      5  C   UNL     1      -2.494   2.823   4.389  0.00  0.00    +0.001 A 
ATOM      6  C   UNL     1      -2.087   3.914   3.641  0.00  0.00    +0.002 A 
ATOM      7  C   UNL     1      -1.603   3.740   2.357  0.00  0.00    +0.029 A 
ATOM      8  C   UNL     1      -1.522   2.475   1.813  0.00  0.00    +0.119 A 
BRANCH   8   9
ATOM      9  S   UNL     1      -0.904   2.254   0.178  0.00  0.00    +0.062 S 
ATOM     10  O   UNL     1      -2.035   2.076  -0.663  0.00  0.00    -0.153 OA
ATOM     11  O   UNL     1       0.140   1.294   0.264  0.00  0.00    -0.153 OA
BRANCH   9  12
ATOM     12  N   UNL     1      -0.198   3.682  -0.275  0.00  0.00    -0.177 NA
ATOM     13  C   UNL     1      -0.930   4.649  -1.104  0.00  0.00    +0.109 C 
ATOM     14  C   UNL     1      -0.905   6.014  -0.408  0.00  0.00    +0.017 C 
ATOM     15  C   UNL     1       0.544   6.407  -0.116  0.00  0.00    +0.003 C 
ATOM     16  C   UNL     1       1.176   5.375   0.821  0.00  0.00    +0.017 C 
ATOM     17  C   UNL     1       1.175   4.003   0.139  0.00  0.00    +0.109 C 
ENDBRANCH   9  12
ENDBRANCH   8   9
ENDBRANCH   1   3
BRANCH   1  18
ATOM     18  O   UNL     1      -2.123  -1.063   2.748  0.00  0.00    -0.452 OA
BRANCH  18  19
ATOM     19  C   UNL     1      -2.027  -2.365   2.114  0.00  0.00    +0.328 C 
BRANCH  19  32
ATOM     20  C   UNL     1       0.665  -7.640   4.479  0.00  0.00    +0.019 C 
ATOM     21  C   UNL     1      -0.391  -6.995   3.578  0.00  0.00    +0.050 C 
ATOM     22  C   UNL     1      -1.411  -6.268   4.439  0.00  0.00    +0.033 C 
ATOM     23  C   UNL     1      -2.648  -5.799   3.718  0.00  0.00    +0.115 C 
ATOM     24  N   UNL     1      -2.330  -4.736   2.752  0.00  0.00    -0.268 N 
ATOM     25  C   UNL     1      -2.007  -5.103   1.442  0.00  0.00    +0.050 A 
ATOM     26  C   UNL     1      -2.929  -4.915   0.423  0.00  0.00    +0.024 A 
ATOM     27  C   UNL     1      -2.629  -5.325  -0.863  0.00  0.00    +0.002 A 
ATOM     28  C   UNL     1      -1.416  -5.923  -1.151  0.00  0.00    +0.001 A 
ATOM     29  C   UNL     1      -0.476  -6.096  -0.148  0.00  0.00    +0.016 A 
ATOM     30  C   UNL     1      -0.773  -5.672   1.131  0.00  0.00    +0.030 A 
ATOM     31  S   UNL     1       0.417  -5.829   2.443  0.00  0.00    -0.120 S 
ATOM     32  C   UNL     1      -2.355  -3.439   3.119  0.00  0.00    +0.258 C 
ATOM     33  O   UNL     1      -2.642  -3.136   4.258  0.00  0.00    -0.272 OA
ENDBRANCH  19  32
ENDBRANCH  18  19
ENDBRANCH   1  18
TORSDOF 6
