REMARK  Name = ZINC02202714
REMARK  6 active torsions:
REMARK  status: ('A' for Active; 'I' for Inactive)
REMARK    1  A    between atoms: C_1  and  C_2
REMARK    2  A    between atoms: C_9  and  N_20
REMARK    3  A    between atoms: C_10  and  C_13
REMARK    4  A    between atoms: C_14  and  C_15
REMARK    5  A    between atoms: C_14  and  C_17
REMARK    6  A    between atoms: C_23  and  C_26
REMARK                            x       y       z     vdW  Elec       q    Type
REMARK                         _______ _______ _______ _____ _____    ______ ____
ROOT
ATOM      1  C   UNL     1      -1.492  -1.382  -0.810  0.00  0.00    +0.047 C 
ATOM      2  C   UNL     1      -0.330  -0.516  -0.395  0.00  0.00    -0.007 A 
ATOM      3  C   UNL     1      -0.529   0.797  -0.084  0.00  0.00    +0.008 A 
ATOM      4  C   UNL     1       0.561   1.589   0.299  0.00  0.00    +0.019 A 
ATOM      5  C   UNL     1       1.801   1.052   0.359  0.00  0.00    +0.096 A 
ATOM      6  N   UNL     1       2.010  -0.258   0.050  0.00  0.00    -0.267 N 
ATOM      7  C   UNL     1       0.966  -1.056  -0.328  0.00  0.00    +0.145 A 
ATOM      8  N   UNL     1       1.149  -2.341  -0.635  0.00  0.00    -0.213 NA
ATOM      9  C   UNL     1       2.347  -2.904  -0.590  0.00  0.00    +0.136 A 
ATOM     10  C   UNL     1       3.470  -2.127  -0.205  0.00  0.00    +0.081 A 
ATOM     11  C   UNL     1       3.261  -0.761   0.119  0.00  0.00    +0.267 A 
ATOM     12  O   UNL     1       4.195  -0.054   0.454  0.00  0.00    -0.267 OA
ENDROOT
BRANCH   9  13
ATOM     13  N   UNL     1       2.501  -4.232  -0.913  0.00  0.00    -0.315 N 
ATOM     14  C   UNL     1       3.341  -4.389  -2.107  0.00  0.00    +0.107 C 
ATOM     15  C   UNL     1       3.611  -5.875  -2.352  0.00  0.00    +0.022 C 
ATOM     16  C   UNL     1       2.279  -6.606  -2.542  0.00  0.00    -0.011 C 
ATOM     17  C   UNL     1       1.404  -6.387  -1.305  0.00  0.00    +0.022 C 
ATOM     18  C   UNL     1       1.198  -4.886  -1.091  0.00  0.00    +0.107 C 
ATOM     19  C   UNL     1       2.538  -8.102  -2.727  0.00  0.00    +0.007 C 
ENDBRANCH   9  13
BRANCH  10  20
ATOM     20  C   UNL     1       4.754  -2.694  -0.147  0.00  0.00    +0.040 C 
ATOM     21  C   UNL     1       4.983  -3.817   0.637  0.00  0.00    +0.114 C 
BRANCH  21  22
ATOM     22  C   UNL     1       6.300  -4.461   0.630  0.00  0.00    +0.252 C 
ATOM     23  O   UNL     1       7.193  -4.011  -0.064  0.00  0.00    -0.270 OA
ATOM     24  N   UNL     1       6.522  -5.551   1.391  0.00  0.00    -0.325 N 
ATOM     25  H   UNL     1       5.810  -5.909   1.944  0.00  0.00    +0.145 HD
ATOM     26  H   UNL     1       7.393  -5.977   1.386  0.00  0.00    +0.145 HD
ENDBRANCH  21  22
BRANCH  21  27
ATOM     27  C   UNL     1       3.932  -4.346   1.453  0.00  0.00    +0.104 C 
ATOM     28  N   UNL     1       3.098  -4.765   2.101  0.00  0.00    -0.191 NA
ENDBRANCH  21  27
ENDBRANCH  10  20
TORSDOF 4
