REMARK  Name = ZINC63846582
REMARK  4 active torsions:
REMARK  status: ('A' for Active; 'I' for Inactive)
REMARK    1  A    between atoms: C_1  and  C_2
REMARK    2  A    between atoms: C_5  and  C_7
REMARK    3  A    between atoms: C_10  and  C_13
REMARK    4  A    between atoms: N_15  and  C_16
REMARK                            x       y       z     vdW  Elec       q    Type
REMARK                         _______ _______ _______ _____ _____    ______ ____
ROOT
ATOM      1  C   UNL     1       4.603  -3.433   2.258  0.00  0.00    +0.268 C 
ATOM      2  O   UNL     1       4.260  -3.709   3.391  0.00  0.00    -0.268 OA
ATOM      3  N   UNL     1       5.907  -3.242   1.977  0.00  0.00    -0.282 N 
ATOM      4  H   UNL     1       6.189  -3.095   1.060  0.00  0.00    +0.155 HD
ENDROOT
BRANCH   3   5
ATOM      5  C   UNL     1       6.829  -3.256   2.978  0.00  0.00    +0.039 C 
ATOM      6  C   UNL     1       8.182  -2.983   2.873  0.00  0.00    +0.017 A 
ATOM      7  C   UNL     1       9.002  -2.626   1.776  0.00  0.00    +0.011 A 
ATOM      8  C   UNL     1      10.327  -2.414   1.968  0.00  0.00    +0.001 A 
ATOM      9  C   UNL     1      10.914  -2.539   3.230  0.00  0.00    +0.002 A 
ATOM     10  C   UNL     1      10.191  -2.878   4.325  0.00  0.00    +0.026 A 
ATOM     11  C   UNL     1       8.797  -3.115   4.205  0.00  0.00    +0.044 A 
ATOM     12  N   UNL     1       7.889  -3.451   5.099  0.00  0.00    -0.379 N 
ATOM     13  C   UNL     1       6.585  -3.566   4.439  0.00  0.00    +0.164 C 
ATOM     14  H   UNL     1       8.056  -3.596   6.043  0.00  0.00    +0.160 HD
ENDBRANCH   3   5
BRANCH   1  17
ATOM     15  C   UNL     1       1.684  -3.241  -0.022  0.00  0.00    +0.219 C 
ATOM     16  C   UNL     1       2.261  -3.478   1.362  0.00  0.00    +0.044 C 
ATOM     17  C   UNL     1       3.592  -3.308   1.190  0.00  0.00    +0.146 C 
ATOM     18  N   UNL     1       3.865  -3.003  -0.107  0.00  0.00    -0.149 NA
ATOM     19  N   UNL     1       2.871  -2.949  -0.841  0.00  0.00    -0.171 NA
BRANCH  15  24
ATOM     20  C   UNL     1      -0.016   1.508   0.016  0.00  0.00    +0.086 C 
ATOM     21  C   UNL     1       0.004   0.001   0.006  0.00  0.00    +0.102 A 
ATOM     22  C   UNL     1      -1.077  -0.800   0.006  0.00  0.00    +0.045 A 
ATOM     23  C   UNL     1      -0.601  -2.131  -0.005  0.00  0.00    +0.047 A 
ATOM     24  C   UNL     1       0.743  -2.064  -0.011  0.00  0.00    +0.135 A 
ATOM     25  O   UNL     1       1.103  -0.770  -0.010  0.00  0.00    -0.462 OA
ENDBRANCH  15  24
ENDBRANCH   1  17
TORSDOF 3
