REMARK  Name = ZINC65841480
REMARK  8 active torsions:
REMARK  status: ('A' for Active; 'I' for Inactive)
REMARK    1  A    between atoms: C_1  and  C_2
REMARK    2  A    between atoms: C_2  and  O_3
REMARK    3  A    between atoms: O_3  and  C_4
REMARK    4  A    between atoms: N_6  and  C_7
REMARK    5  A    between atoms: C_11  and  O_13
REMARK    6  A    between atoms: O_13  and  C_14
REMARK    7  A    between atoms: C_14  and  C_16
REMARK    8  A    between atoms: C_19  and  C_24
REMARK                            x       y       z     vdW  Elec       q    Type
REMARK                         _______ _______ _______ _____ _____    ______ ____
ROOT
ATOM      1  C   UNL     1       4.610  -5.793  -4.871  0.00  0.00    +0.350 C 
ATOM      2  O   UNL     1       5.132  -5.183  -3.957  0.00  0.00    -0.244 OA
ENDROOT
BRANCH   1   3
ATOM      3  C   UNL     1       5.437  -6.363  -5.939  0.00  0.00    +0.124 A 
ATOM      4  C   UNL     1       6.829  -6.215  -5.911  0.00  0.00    +0.022 A 
ATOM      5  C   UNL     1       7.587  -6.763  -6.932  0.00  0.00    +0.030 A 
ATOM      6  C   UNL     1       6.962  -7.450  -7.965  0.00  0.00    +0.085 A 
ATOM      7  N   UNL     1       5.601  -7.592  -7.987  0.00  0.00    -0.319 N 
ATOM      8  H   UNL     1       5.181  -8.075  -8.716  0.00  0.00    +0.169 HD
ATOM      9  C   UNL     1       4.836  -7.075  -7.007  0.00  0.00    +0.263 A 
ATOM     10  O   UNL     1       3.626  -7.216  -7.040  0.00  0.00    -0.267 OA
BRANCH   6  11
ATOM     11  C   UNL     1       7.768  -8.028  -9.042  0.00  0.00    +0.151 A 
ATOM     12  C   UNL     1       7.290  -8.722 -10.120  0.00  0.00    +0.051 A 
ATOM     13  C   UNL     1       8.405  -9.086 -10.891  0.00  0.00    +0.042 A 
ATOM     14  C   UNL     1       9.500  -8.606 -10.260  0.00  0.00    +0.196 A 
ATOM     15  O   UNL     1       9.111  -7.965  -9.149  0.00  0.00    -0.461 OA
ENDBRANCH   6  11
ENDBRANCH   1   3
BRANCH   1  16
ATOM     16  O   UNL     1       3.270  -5.945  -4.902  0.00  0.00    -0.422 OA
BRANCH  16  21
ATOM     17  C   UNL     1       1.607  -3.671  -2.593  0.00  0.00    +0.040 A 
ATOM     18  C   UNL     1       1.087  -4.574  -1.675  0.00  0.00    +0.023 A 
ATOM     19  C   UNL     1       1.300  -5.929  -1.841  0.00  0.00    +0.005 A 
ATOM     20  C   UNL     1       2.030  -6.389  -2.920  0.00  0.00    +0.046 A 
ATOM     21  C   UNL     1       2.552  -5.491  -3.841  0.00  0.00    +0.134 A 
ATOM     22  C   UNL     1       2.336  -4.131  -3.680  0.00  0.00    +0.069 A 
BRANCH  17  25
ATOM     23  C   UNL     1       1.357  -1.768  -1.186  0.00  0.00    +0.405 C 
ATOM     24  O   UNL     1       1.431  -2.493  -0.213  0.00  0.00    -0.226 OA
ATOM     25  N   UNL     1       1.391  -2.299  -2.425  0.00  0.00    -0.251 N 
ATOM     26  H   UNL     1       1.265  -1.729  -3.200  0.00  0.00    +0.158 HD
BRANCH  23  27
ATOM     27  O   UNL     1       1.242  -0.436  -1.027  0.00  0.00    -0.450 OA
BRANCH  27  29
ATOM     28  C   UNL     1       1.079   1.580   0.295  0.00  0.00    +0.048 C 
ATOM     29  C   UNL     1       1.213   0.056   0.314  0.00  0.00    +0.230 C 
ENDBRANCH  27  29
ENDBRANCH  23  27
ENDBRANCH  17  25
ENDBRANCH  16  21
ENDBRANCH   1  16
TORSDOF 7
