REMARK  Name = ZINC65526870
REMARK  7 active torsions:
REMARK  status: ('A' for Active; 'I' for Inactive)
REMARK    1  A    between atoms: C_4  and  C_7
REMARK    2  A    between atoms: C_9  and  C_26
REMARK    3  A    between atoms: N_11  and  C_14
REMARK    4  A    between atoms: C_14  and  C_16
REMARK    5  A    between atoms: C_14  and  C_24
REMARK    6  A    between atoms: C_16  and  C_17
REMARK    7  A    between atoms: C_24  and  O_25
REMARK                            x       y       z     vdW  Elec       q    Type
REMARK                         _______ _______ _______ _____ _____    ______ ____
ROOT
ATOM      1  C   UNL     1       3.750  -0.950   0.397  0.00  0.00    +0.110 C 
ATOM      2  C   UNL     1       4.240  -1.229  -1.037  0.00  0.00    +0.144 C 
ATOM      3  N   UNL     1       4.170  -2.700  -1.203  0.00  0.00    -0.273 NA
ATOM      4  C   UNL     1       4.241  -3.233   0.182  0.00  0.00    +0.170 C 
ATOM      5  N   UNL     1       3.427  -2.276   0.975  0.00  0.00    -0.295 NA
ATOM      6  H   UNL     1       3.674  -2.313   1.953  0.00  0.00    +0.124 HD
ENDROOT
BRANCH   2   7
ATOM      7  C   UNL     1       3.341  -0.547  -2.036  0.00  0.00    +0.104 A 
ATOM      8  N   UNL     1       2.258  -1.075  -2.584  0.00  0.00    -0.349 N 
ATOM      9  C   UNL     1       1.722  -0.165  -3.424  0.00  0.00    +0.101 A 
ATOM     10  C   UNL     1       2.503   0.933  -3.377  0.00  0.00    +0.101 A 
ATOM     11  N   UNL     1       3.502   0.679  -2.506  0.00  0.00    -0.349 N 
ATOM     12  H   UNL     1       4.217   1.290  -2.267  0.00  0.00    +0.166 HD
ATOM     13  H   UNL     1       1.909  -1.964  -2.411  0.00  0.00    +0.166 HD
ENDBRANCH   2   7
BRANCH   1  17
ATOM     14  C   UNL     1       0.260   1.513   0.309  0.00  0.00    +0.000 A 
ATOM     15  C   UNL     1       1.492   2.069   0.600  0.00  0.00    +0.000 A 
ATOM     16  C   UNL     1       2.621   1.272   0.628  0.00  0.00    +0.005 A 
ATOM     17  C   UNL     1       2.519  -0.081   0.367  0.00  0.00    -0.029 A 
ATOM     18  C   UNL     1       1.287  -0.638   0.077  0.00  0.00    +0.005 A 
ATOM     19  C   UNL     1       0.158   0.160   0.047  0.00  0.00    +0.000 A 
ENDBRANCH   1  17
BRANCH   3  20
ATOM     20  C   UNL     1       5.292  -3.192  -2.015  0.00  0.00    +0.088 C 
BRANCH  20  21
ATOM     21  C   UNL     1       5.284  -4.722  -2.021  0.00  0.00    +0.056 C 
BRANCH  21  22
ATOM     22  C   UNL     1       6.511  -5.227  -2.737  0.00  0.00    -0.046 A 
ATOM     23  C   UNL     1       6.440  -5.559  -4.077  0.00  0.00    +0.005 A 
ATOM     24  C   UNL     1       7.564  -6.023  -4.734  0.00  0.00    +0.020 A 
ATOM     25  C   UNL     1       8.760  -6.154  -4.051  0.00  0.00    +0.041 A 
ATOM     26  C   UNL     1       8.830  -5.821  -2.710  0.00  0.00    +0.020 A 
ATOM     27  C   UNL     1       7.706  -5.352  -2.055  0.00  0.00    +0.005 A 
ATOM     28 CL   UNL     1      10.173  -6.736  -4.875  0.00  0.00    -0.084 Cl
ENDBRANCH  21  22
ENDBRANCH  20  21
BRANCH  20  29
ATOM     29  C   UNL     1       5.149  -2.675  -3.448  0.00  0.00    +0.175 C 
BRANCH  29  30
ATOM     30  O   UNL     1       3.977  -3.236  -4.042  0.00  0.00    -0.393 OA
ATOM     31  H   UNL     1       3.824  -2.952  -4.954  0.00  0.00    +0.209 HD
ENDBRANCH  29  30
ENDBRANCH  20  29
ENDBRANCH   3  20
TORSDOF 7
