REMARK  Name = ZINC12348671
REMARK  4 active torsions:
REMARK  status: ('A' for Active; 'I' for Inactive)
REMARK    1  A    between atoms: C_1  and  C_2
REMARK    2  A    between atoms: C_2  and  C_24
REMARK    3  A    between atoms: C_6  and  C_16
REMARK    4  A    between atoms: C_13  and  O_14
REMARK                            x       y       z     vdW  Elec       q    Type
REMARK                         _______ _______ _______ _____ _____    ______ ____
ROOT
ATOM      1  C   UNL     1       2.078   4.137   1.879  0.00  0.00    +0.011 C 
ATOM      2  C   UNL     1       2.265   4.265   0.366  0.00  0.00    -0.023 C 
ATOM      3  C   UNL     1       1.140   3.523  -0.357  0.00  0.00    +0.058 C 
ATOM      4  C   UNL     1       1.181   2.056   0.002  0.00  0.00    +0.017 C 
ATOM      5  C   UNL     1       2.352   1.446   0.290  0.00  0.00    +0.024 C 
ATOM      6  C   UNL     1       2.438  -0.024   0.639  0.00  0.00    +0.093 C 
ATOM      7  C   UNL     1       1.144  -0.703   0.290  0.00  0.00    +0.067 A 
ATOM      8  C   UNL     1       0.002  -0.004   0.002  0.00  0.00    +0.126 A 
ATOM      9  N   UNL     1      -0.972  -0.896  -0.259  0.00  0.00    -0.260 N 
ATOM     10  H   UNL     1      -1.919  -0.682  -0.499  0.00  0.00    +0.190 HD
ATOM     11  N   UNL     1      -0.419  -2.182  -0.134  0.00  0.00    -0.134 NA
ATOM     12  C   UNL     1       0.848  -2.060   0.196  0.00  0.00    +0.237 A 
ATOM     13  N   UNL     1      -0.017   1.385   0.010  0.00  0.00    -0.303 N 
ATOM     14  C   UNL     1       3.561   2.165   0.278  0.00  0.00    +0.162 C 
ATOM     15  O   UNL     1       4.598   1.586   0.535  0.00  0.00    -0.292 OA
ATOM     16  C   UNL     1       3.599   3.632  -0.044  0.00  0.00    +0.086 C 
ATOM     17  C   UNL     1       2.250   5.742  -0.033  0.00  0.00    +0.011 C 
ATOM     18  H   UNL     1      -0.857   1.871   0.016  0.00  0.00    +0.153 HD
ENDROOT
BRANCH   6  19
ATOM     19  C   UNL     1       2.700  -0.173   2.116  0.00  0.00    -0.028 A 
ATOM     20  C   UNL     1       3.839  -0.814   2.565  0.00  0.00    +0.012 A 
ATOM     21  C   UNL     1       4.045  -0.931   3.900  0.00  0.00    +0.045 A 
ATOM     22  S   UNL     1       2.602  -0.120   4.568  0.00  0.00    -0.105 S 
ATOM     23  C   UNL     1       1.825   0.325   3.023  0.00  0.00    +0.049 A 
ENDBRANCH   6  19
BRANCH  12  24
ATOM     24  O   UNL     1       1.719  -3.083   0.407  0.00  0.00    -0.491 OA
ATOM     25  H   UNL     1       1.248  -3.955   0.273  0.00  0.00    +0.294 HD
ENDBRANCH  12  24
TORSDOF 2
