REMARK  Name = ZINC39561627
REMARK  9 active torsions:
REMARK  status: ('A' for Active; 'I' for Inactive)
REMARK    1  A    between atoms: C_1  and  C_2
REMARK    2  A    between atoms: C_4  and  C_31
REMARK    3  A    between atoms: C_5  and  N_9
REMARK    4  A    between atoms: C_6  and  C_8
REMARK    5  A    between atoms: C_10  and  C_12
REMARK    6  A    between atoms: C_12  and  N_13
REMARK    7  A    between atoms: C_14  and  C_16
REMARK    8  A    between atoms: C_16  and  O_17
REMARK    9  A    between atoms: O_17  and  C_18
REMARK                            x       y       z     vdW  Elec       q    Type
REMARK                         _______ _______ _______ _____ _____    ______ ____
ROOT
ATOM      1  N   UNL     1       0.858  -6.983   2.265  0.00  0.00    -0.304 N 
ATOM      2  C   UNL     1       0.984  -8.311   2.462  0.00  0.00    +0.251 C 
ATOM      3  O   UNL     1       0.718  -9.085   1.567  0.00  0.00    -0.272 OA
ATOM      4  H   UNL     1       1.071  -6.364   2.981  0.00  0.00    +0.149 HD
ENDROOT
BRANCH   1   5
ATOM      5  C   UNL     1       0.399  -6.476   0.969  0.00  0.00    +0.200 C 
BRANCH   5   7
ATOM      6  N   UNL     1      -0.052  -4.280  -0.077  0.00  0.00    -0.284 N 
ATOM      7  C   UNL     1       0.345  -4.970   1.011  0.00  0.00    +0.234 C 
ATOM      8  O   UNL     1       0.659  -4.380   2.022  0.00  0.00    -0.274 OA
ATOM      9  H   UNL     1      -0.370  -4.753  -0.862  0.00  0.00    +0.155 HD
BRANCH   6  14
ATOM     10  C   UNL     1       0.136   1.390  -0.065  0.00  0.00    +0.044 C 
ATOM     11  C   UNL     1       0.086  -0.116  -0.068  0.00  0.00    -0.050 A 
ATOM     12  C   UNL     1       0.759  -0.827  -1.045  0.00  0.00    +0.008 A 
ATOM     13  C   UNL     1       0.715  -2.207  -1.051  0.00  0.00    -0.029 A 
ATOM     14  C   UNL     1      -0.005  -2.882  -0.074  0.00  0.00    +0.039 A 
ATOM     15  C   UNL     1      -0.679  -2.165   0.906  0.00  0.00    -0.029 A 
ATOM     16  C   UNL     1      -0.628  -0.785   0.909  0.00  0.00    +0.008 A 
ATOM     17  C   UNL     1      -1.463  -2.893   1.968  0.00  0.00    +0.045 C 
ATOM     18  C   UNL     1       1.448  -2.981  -2.117  0.00  0.00    +0.045 C 
ENDBRANCH   6  14
ENDBRANCH   5   7
ENDBRANCH   1   5
BRANCH   2  19
ATOM     19  C   UNL     1       1.456  -8.833   3.794  0.00  0.00    +0.326 C 
BRANCH  19  20
ATOM     20  O   UNL     1       1.508 -10.261   3.755  0.00  0.00    -0.466 OA
BRANCH  20  21
ATOM     21  C   UNL     1       1.915 -10.892   4.882  0.00  0.00    +0.227 A 
ATOM     22  C   UNL     1       1.999 -12.310   4.922  0.00  0.00    +0.073 A 
ATOM     23  C   UNL     1       1.691 -13.277   3.866  0.00  0.00    -0.023 A 
ATOM     24  C   UNL     1       1.857 -14.581   4.164  0.00  0.00    -0.004 A 
ATOM     25  S   UNL     1       2.426 -14.604   5.843  0.00  0.00    -0.073 S 
ATOM     26  C   UNL     1       2.438 -12.856   6.146  0.00  0.00    +0.116 A 
ATOM     27  N   UNL     1       2.742 -12.089   7.173  0.00  0.00    -0.228 NA
ATOM     28  C   UNL     1       2.642 -10.777   7.076  0.00  0.00    +0.226 A 
ATOM     29  N   UNL     1       2.246 -10.198   5.956  0.00  0.00    -0.201 NA
ATOM     30  C   UNL     1       1.612 -15.755   3.266  0.00  0.00    +0.043 C 
ATOM     31  C   UNL     1       0.783 -15.282   2.064  0.00  0.00    +0.005 C 
ATOM     32  C   UNL     1       1.415 -14.003   1.506  0.00  0.00    +0.005 C 
ATOM     33  C   UNL     1       1.202 -12.848   2.485  0.00  0.00    +0.037 C 
ENDBRANCH  20  21
ENDBRANCH  19  20
ENDBRANCH   2  19
TORSDOF 6
