REMARK  Name = ZINC19339742
REMARK  9 active torsions:
REMARK  status: ('A' for Active; 'I' for Inactive)
REMARK    1  A    between atoms: C_1  and  C_2
REMARK    2  A    between atoms: C_2  and  N_3
REMARK    3  A    between atoms: N_3  and  C_4
REMARK    4  A    between atoms: C_4  and  C_5
REMARK    5  A    between atoms: C_5  and  N_6
REMARK    6  A    between atoms: C_11  and  C_13
REMARK    7  A    between atoms: C_13  and  C_14
REMARK    8  A    between atoms: N_21  and  C_22
REMARK    9  A    between atoms: C_22  and  C_23
REMARK                            x       y       z     vdW  Elec       q    Type
REMARK                         _______ _______ _______ _____ _____    ______ ____
ROOT
ATOM      1  C   UNL     1       7.673   1.314  -2.979  0.00  0.00    +0.028 C 
ATOM      2  C   UNL     1       9.096   1.092  -3.408  0.00  0.00    +0.200 C 
ATOM      3  O   UNL     1       9.947   0.962  -2.553  0.00  0.00    -0.278 OA
ATOM      4  N   UNL     1       9.464   1.031  -4.692  0.00  0.00    -0.318 N 
ATOM      5  C   UNL     1       8.514   1.139  -5.795  0.00  0.00    +0.085 C 
ATOM      6  C   UNL     1       7.206   1.761  -5.302  0.00  0.00    -0.059 C 
ATOM      7  N   UNL     1       6.763   1.039  -4.099  0.00  0.00    +0.389 N 
ATOM      8  H   UNL     1      10.535   0.893  -4.900  0.00  0.00    +0.149 HD
ATOM      9  H   UNL     1       6.787  -0.041  -4.309  0.00  0.00    -0.081 HD
ENDROOT
BRANCH   1  10
ATOM     10  C   UNL     1       7.342   0.380  -1.814  0.00  0.00    +0.090 C 
BRANCH  10  12
ATOM     11  N   UNL     1       7.066  -2.050  -1.443  0.00  0.00    -0.304 N 
ATOM     12  C   UNL     1       7.375  -1.050  -2.291  0.00  0.00    +0.214 C 
ATOM     13  O   UNL     1       7.681  -1.299  -3.438  0.00  0.00    -0.276 OA
BRANCH  11  15
ATOM     14  C   UNL     1       7.954  -1.742   0.815  0.00  0.00    +0.024 C 
ATOM     15  C   UNL     1       6.697  -1.749  -0.058  0.00  0.00    +0.104 C 
ENDBRANCH  11  15
BRANCH  11  16
ATOM     16  C   UNL     1       7.098  -3.440  -1.907  0.00  0.00    +0.089 C 
BRANCH  16  17
ATOM     17  C   UNL     1       8.495  -4.021  -1.679  0.00  0.00    -0.060 C 
BRANCH  17  18
ATOM     18  N   UNL     1       8.527  -5.414  -2.144  0.00  0.00    +0.381 N 
ATOM     19  C   UNL     1       8.425  -5.484  -3.617  0.00  0.00    -0.079 C 
ATOM     20  C   UNL     1       9.287  -6.707  -4.016  0.00  0.00    -0.020 C 
ATOM     21  C   UNL     1      10.460  -6.607  -3.006  0.00  0.00    -0.020 C 
ATOM     22  C   UNL     1       9.774  -6.082  -1.727  0.00  0.00    -0.079 C 
ATOM     23  H   UNL     1       7.665  -5.923  -1.686  0.00  0.00    -0.082 HD
ENDBRANCH  17  18
ENDBRANCH  16  17
ENDBRANCH  11  16
ENDBRANCH  10  12
ENDBRANCH   1  10
BRANCH   7  24
ATOM     24  C   UNL     1       5.380   1.393  -3.752  0.00  0.00    -0.074 C 
BRANCH  24  25
ATOM     25  C   UNL     1       4.420   0.399  -4.409  0.00  0.00    -0.028 C 
ATOM     26  C   UNL     1       4.490   0.551  -5.930  0.00  0.00    +0.002 C 
ATOM     27  C   UNL     1       3.530  -0.442  -6.587  0.00  0.00    +0.000 C 
ATOM     28  C   UNL     1       2.103  -0.162  -6.112  0.00  0.00    +0.000 C 
ATOM     29  C   UNL     1       2.032  -0.314  -4.591  0.00  0.00    +0.000 C 
ATOM     30  C   UNL     1       2.993   0.679  -3.934  0.00  0.00    +0.002 C 
ENDBRANCH  24  25
ENDBRANCH   7  24
TORSDOF 8
