REMARK  Name = ZINC39930437
REMARK  11 active torsions:
REMARK  status: ('A' for Active; 'I' for Inactive)
REMARK    1  A    between atoms: C_1  and  C_2
REMARK    2  A    between atoms: C_5  and  S_8
REMARK    3  A    between atoms: S_8  and  C_9
REMARK    4  A    between atoms: C_9  and  C_10
REMARK    5  A    between atoms: C_16  and  C_24
REMARK    6  A    between atoms: C_18  and  C_22
REMARK    7  A    between atoms: C_19  and  N_21
REMARK    8  A    between atoms: C_27  and  O_32
REMARK    9  A    between atoms: C_28  and  O_30
REMARK   10  A    between atoms: O_30  and  C_31
REMARK   11  A    between atoms: O_32  and  C_33
REMARK                            x       y       z     vdW  Elec       q    Type
REMARK                         _______ _______ _______ _____ _____    ______ ____
ROOT
ATOM      1  C   UNL     1       0.097  -6.482   1.870  0.00  0.00    +0.064 C 
ATOM      2  N   UNL     1       0.109  -7.349   0.909  0.00  0.00    -0.154 NA
ATOM      3  N   UNL     1       0.156  -8.663   1.376  0.00  0.00    -0.115 NA
ATOM      4  C   UNL     1       0.223  -8.716   2.656  0.00  0.00    +0.227 C 
ATOM      5  C   UNL     1       0.114  -7.276   3.154  0.00  0.00    +0.136 C 
ATOM      6  C   UNL     1       1.395  -7.016   3.954  0.00  0.00    +0.082 C 
ATOM      7  C   UNL     1       1.694  -8.224   4.802  0.00  0.00    +0.095 C 
ATOM      8  C   UNL     1       1.210  -9.460   4.563  0.00  0.00    +0.200 C 
ATOM      9  O   UNL     1       0.376  -9.739   3.523  0.00  0.00    -0.425 OA
ENDROOT
BRANCH   6  10
ATOM     10  C   UNL     1       1.202  -5.811   4.838  0.00  0.00    -0.034 A 
ATOM     11  C   UNL     1       0.209  -5.813   5.800  0.00  0.00    +0.008 A 
ATOM     12  C   UNL     1       0.029  -4.710   6.613  0.00  0.00    +0.050 A 
ATOM     13  C   UNL     1       0.844  -3.599   6.465  0.00  0.00    +0.162 A 
ATOM     14  C   UNL     1       1.843  -3.597   5.497  0.00  0.00    +0.162 A 
ATOM     15  C   UNL     1       2.022  -4.708   4.689  0.00  0.00    +0.053 A 
BRANCH  14  16
ATOM     16  O   UNL     1       2.646  -2.509   5.349  0.00  0.00    -0.491 OA
ATOM     17  C   UNL     1       3.651  -2.578   4.335  0.00  0.00    +0.277 C 
ENDBRANCH  14  16
BRANCH  13  18
ATOM     18  O   UNL     1       0.667  -2.513   7.264  0.00  0.00    -0.491 OA
ATOM     19  C   UNL     1      -0.379  -2.585   8.236  0.00  0.00    +0.277 C 
ENDBRANCH  13  18
ENDBRANCH   6  10
BRANCH   8  20
ATOM     20  N   UNL     1       1.571 -10.481   5.407  0.00  0.00    -0.328 N 
ATOM     21  H   UNL     1       2.162 -10.305   6.156  0.00  0.00    +0.145 HD
ATOM     22  H   UNL     1       1.235 -11.378   5.255  0.00  0.00    +0.145 HD
ENDBRANCH   8  20
BRANCH   7  23
ATOM     23  C   UNL     1       2.549  -8.048   5.937  0.00  0.00    +0.100 C 
ATOM     24  N   UNL     1       3.226  -7.909   6.838  0.00  0.00    -0.191 NA
ENDBRANCH   7  23
BRANCH   1  25
ATOM     25  C   UNL     1       0.077  -4.981   1.735  0.00  0.00    +0.127 C 
BRANCH  25  26
ATOM     26  S   UNL     1       0.062  -4.533  -0.023  0.00  0.00    -0.119 S 
BRANCH  26  31
ATOM     27  C   UNL     1      -0.018   1.503   0.010  0.00  0.00    +0.044 C 
ATOM     28  C   UNL     1       0.002  -0.004   0.002  0.00  0.00    -0.050 A 
ATOM     29  C   UNL     1       0.006  -0.687  -1.200  0.00  0.00    +0.004 A 
ATOM     30  C   UNL     1       0.024  -2.068  -1.212  0.00  0.00    +0.015 A 
ATOM     31  C   UNL     1       0.039  -2.771  -0.013  0.00  0.00    +0.008 A 
ATOM     32  C   UNL     1       0.036  -2.081   1.193  0.00  0.00    +0.015 A 
ATOM     33  C   UNL     1       0.023  -0.700   1.197  0.00  0.00    +0.004 A 
ENDBRANCH  26  31
ENDBRANCH  25  26
ENDBRANCH   1  25
TORSDOF 8
