REMARK  Name = ZINC40428561
REMARK  6 active torsions:
REMARK  status: ('A' for Active; 'I' for Inactive)
REMARK    1  A    between atoms: C_1  and  C_2
REMARK    2  A    between atoms: C_4  and  O_15
REMARK    3  A    between atoms: N_5  and  C_7
REMARK    4  A    between atoms: O_15  and  C_16
REMARK    5  A    between atoms: C_17  and  N_24
REMARK    6  A    between atoms: C_20  and  C_22
REMARK                            x       y       z     vdW  Elec       q    Type
REMARK                         _______ _______ _______ _____ _____    ______ ____
ROOT
ATOM      1  C   UNL     1      -0.291   1.481  -0.047  0.00  0.00    +0.067 C 
ATOM      2  C   UNL     1      -0.120  -0.016  -0.027  0.00  0.00    +0.064 A 
ATOM      3  C   UNL     1       0.163  -0.821  -1.134  0.00  0.00    +0.092 A 
ATOM      4  C   UNL     1       0.241  -2.109  -0.705  0.00  0.00    +0.226 A 
ATOM      5  N   UNL     1       0.012  -2.108   0.636  0.00  0.00    -0.200 N 
ATOM      6  N   UNL     1      -0.206  -0.782   1.031  0.00  0.00    -0.168 NA
ENDROOT
BRANCH   5   7
ATOM      7  C   UNL     1       0.000  -3.232   1.473  0.00  0.00    +0.071 A 
ATOM      8  C   UNL     1      -0.591  -4.413   1.044  0.00  0.00    +0.029 A 
ATOM      9  C   UNL     1      -0.602  -5.519   1.870  0.00  0.00    +0.023 A 
ATOM     10  C   UNL     1      -0.024  -5.452   3.126  0.00  0.00    +0.059 A 
ATOM     11  C   UNL     1       0.567  -4.276   3.556  0.00  0.00    +0.061 A 
ATOM     12  C   UNL     1       0.585  -3.168   2.730  0.00  0.00    +0.049 A 
ATOM     13 CL   UNL     1       1.291  -4.196   5.132  0.00  0.00    -0.082 Cl
ATOM     14 CL   UNL     1      -0.040  -6.845   4.162  0.00  0.00    -0.082 Cl
ENDBRANCH   5   7
BRANCH   4  15
ATOM     15  O   UNL     1       0.500  -3.198  -1.474  0.00  0.00    -0.418 OA
BRANCH  15  16
ATOM     16  C   UNL     1       0.578  -3.024  -2.817  0.00  0.00    +0.248 A 
ATOM     17  C   UNL     1       0.734  -4.124  -3.667  0.00  0.00    +0.125 A 
ATOM     18  C   UNL     1       0.808  -3.891  -5.035  0.00  0.00    +0.157 A 
ATOM     19  N   UNL     1       0.729  -2.645  -5.482  0.00  0.00    -0.219 NA
ATOM     20  C   UNL     1       0.583  -1.634  -4.650  0.00  0.00    +0.132 A 
ATOM     21  N   UNL     1       0.503  -1.809  -3.345  0.00  0.00    -0.196 NA
ATOM     22  C   UNL     1       0.499  -0.236  -5.206  0.00  0.00    +0.088 C 
ATOM     23 CL   UNL     1       1.001  -5.213  -6.144  0.00  0.00    -0.060 Cl
BRANCH  17  24
ATOM     24  N   UNL     1       0.813  -5.425  -3.154  0.00  0.00    -0.351 N 
ATOM     25  H   UNL     1       0.760  -5.573  -2.197  0.00  0.00    +0.143 HD
ATOM     26  H   UNL     1       0.921  -6.178  -3.756  0.00  0.00    +0.143 HD
ENDBRANCH  17  24
ENDBRANCH  15  16
ENDBRANCH   4  15
TORSDOF 4
