REMARK  Name = ZINC14480569
REMARK  6 active torsions:
REMARK  status: ('A' for Active; 'I' for Inactive)
REMARK    1  A    between atoms: C_1  and  C_2
REMARK    2  A    between atoms: C_2  and  O_3
REMARK    3  A    between atoms: O_3  and  C_4
REMARK    4  A    between atoms: C_7  and  C_10
REMARK    5  A    between atoms: C_20  and  N_27
REMARK    6  A    between atoms: C_23  and  O_26
REMARK                            x       y       z     vdW  Elec       q    Type
REMARK                         _______ _______ _______ _____ _____    ______ ____
ROOT
ATOM      1  C   UNL     1       2.658   0.973  -0.050  0.00  0.00    +0.105 C 
ATOM      2  C   UNL     1       3.167   0.876  -1.479  0.00  0.00    +0.029 C 
ATOM      3  C   UNL     1       4.659   0.464  -1.494  0.00  0.00    +0.033 C 
ATOM      4  C   UNL     1       5.193   1.140  -2.742  0.00  0.00    -0.030 C 
ATOM      5  C   UNL     1       4.422   2.140  -3.087  0.00  0.00    -0.023 C 
ATOM      6  C   UNL     1       3.259   2.277  -2.118  0.00  0.00    +0.051 C 
ATOM      7  C   UNL     1       3.623   3.322  -1.097  0.00  0.00    +0.014 A 
ATOM      8  C   UNL     1       3.817   4.623  -1.549  0.00  0.00    +0.132 A 
ATOM      9  C   UNL     1       4.152   5.631  -0.670  0.00  0.00    +0.037 A 
ATOM     10  C   UNL     1       4.299   5.356   0.678  0.00  0.00    +0.049 A 
ATOM     11  C   UNL     1       4.109   4.066   1.138  0.00  0.00    +0.138 A 
ATOM     12  C   UNL     1       3.770   3.043   0.246  0.00  0.00    +0.076 A 
ATOM     13  N   UNL     1       3.592   1.756   0.762  0.00  0.00    -0.334 N 
ATOM     14  H   UNL     1       4.054   1.308   1.655  0.00  0.00    +0.147 HD
ENDROOT
BRANCH   1  18
ATOM     15  C   UNL     1      -1.171   2.872  -0.033  0.00  0.00    +0.121 A 
ATOM     16  C   UNL     1      -0.336   2.981   1.070  0.00  0.00    +0.046 A 
ATOM     17  C   UNL     1       0.903   2.371   1.060  0.00  0.00    +0.009 A 
ATOM     18  C   UNL     1       1.308   1.643  -0.044  0.00  0.00    -0.027 A 
ATOM     19  C   UNL     1       0.476   1.528  -1.142  0.00  0.00    +0.009 A 
ATOM     20  C   UNL     1      -0.762   2.140  -1.139  0.00  0.00    +0.046 A 
BRANCH  15  21
ATOM     21  O   UNL     1      -2.388   3.475  -0.027  0.00  0.00    -0.492 OA
BRANCH  21  23
ATOM     22  C   UNL     1      -4.137   4.814   0.967  0.00  0.00    +0.048 C 
ATOM     23  C   UNL     1      -2.742   4.211   1.145  0.00  0.00    +0.225 C 
ENDBRANCH  21  23
ENDBRANCH  15  21
ENDBRANCH   1  18
BRANCH   8  24
ATOM     24  N   UNL     1       3.663   4.928  -2.989  0.00  0.00    +0.057 N 
ATOM     25  O   UNL     1       4.412   5.724  -3.527  0.00  0.00    -0.126 OA
ATOM     26  O   UNL     1       2.786   4.384  -3.636  0.00  0.00    -0.126 OA
ENDBRANCH   8  24
BRANCH  11  27
ATOM     27  O   UNL     1       4.252   3.791   2.462  0.00  0.00    -0.505 OA
ATOM     28  H   UNL     1       4.101   2.765   2.830  0.00  0.00    +0.292 HD
ENDBRANCH  11  27
TORSDOF 5
