REMARK  Name = ZINC12187660
REMARK  8 active torsions:
REMARK  status: ('A' for Active; 'I' for Inactive)
REMARK    1  A    between atoms: C_1  and  C_2
REMARK    2  A    between atoms: C_2  and  C_4
REMARK    3  A    between atoms: C_2  and  N_6
REMARK    4  A    between atoms: C_4  and  O_5
REMARK    5  A    between atoms: N_6  and  S_7
REMARK    6  A    between atoms: S_7  and  C_10
REMARK    7  A    between atoms: C_19  and  C_21
REMARK    8  A    between atoms: C_19  and  C_22
REMARK                            x       y       z     vdW  Elec       q    Type
REMARK                         _______ _______ _______ _____ _____    ______ ____
ROOT
ATOM      1  C   UNL     1      -1.047   2.877   6.015  0.00  0.00    +0.107 A 
ATOM      2  C   UNL     1      -0.670   1.547   5.984  0.00  0.00    +0.032 A 
ATOM      3  C   UNL     1      -0.330   0.946   4.785  0.00  0.00    +0.049 A 
ATOM      4  C   UNL     1      -0.367   1.679   3.612  0.00  0.00    +0.143 A 
ATOM      5  C   UNL     1      -0.747   3.020   3.643  0.00  0.00    +0.078 A 
ATOM      6  C   UNL     1      -1.087   3.616   4.847  0.00  0.00    +0.055 A 
ATOM      7  N   UNL     1      -0.779   3.752   2.448  0.00  0.00    -0.279 N 
ATOM      8  C   UNL     1      -0.753   3.087   1.272  0.00  0.00    +0.261 C 
ATOM      9  O   UNL     1      -0.749   3.700   0.226  0.00  0.00    -0.271 OA
ATOM     10  C   UNL     1      -0.729   1.579   1.267  0.00  0.00    +0.180 C 
ATOM     11  O   UNL     1      -0.037   1.105   2.425  0.00  0.00    -0.475 OA
ATOM     12  C   UNL     1      -0.013   1.086   0.008  0.00  0.00    +0.065 C 
ATOM     13  C   UNL     1      -2.164   1.048   1.278  0.00  0.00    +0.065 C 
ATOM     14  H   UNL     1      -0.819   4.721   2.464  0.00  0.00    +0.155 HD
ENDROOT
BRANCH   1  15
ATOM     15  S   UNL     1      -1.479   3.632   7.547  0.00  0.00    +0.059 S 
ATOM     16  O   UNL     1      -2.320   4.734   7.234  0.00  0.00    -0.153 OA
ATOM     17  O   UNL     1      -1.888   2.584   8.416  0.00  0.00    -0.153 OA
BRANCH  15  18
ATOM     18  N   UNL     1      -0.090   4.264   8.190  0.00  0.00    -0.185 NA
ATOM     19  H   UNL     1       0.266   3.910   9.020  0.00  0.00    +0.148 HD
BRANCH  18  21
ATOM     20  C   UNL     1       0.153   6.696   8.098  0.00  0.00    +0.028 C 
ATOM     21  C   UNL     1       0.602   5.359   7.505  0.00  0.00    +0.099 C 
BRANCH  21  22
ATOM     22  C   UNL     1       2.113   5.202   7.689  0.00  0.00    +0.175 C 
BRANCH  22  23
ATOM     23  O   UNL     1       2.443   5.352   9.071  0.00  0.00    -0.393 OA
ATOM     24  H   UNL     1       3.387   5.264   9.262  0.00  0.00    +0.209 HD
ENDBRANCH  22  23
ENDBRANCH  21  22
ENDBRANCH  18  21
ENDBRANCH  15  18
ENDBRANCH   1  15
TORSDOF 5
