REMARK  Name = ZINC38984539
REMARK  7 active torsions:
REMARK  status: ('A' for Active; 'I' for Inactive)
REMARK    1  A    between atoms: C_1  and  C_2
REMARK    2  A    between atoms: C_2  and  C_3
REMARK    3  A    between atoms: C_3  and  C_4
REMARK    4  A    between atoms: C_4  and  N_5
REMARK    5  A    between atoms: N_5  and  C_6
REMARK    6  A    between atoms: N_9  and  S_10
REMARK    7  A    between atoms: S_10  and  C_13
REMARK                            x       y       z     vdW  Elec       q    Type
REMARK                         _______ _______ _______ _____ _____    ______ ____
ROOT
ATOM      1  C   UNL     1       1.466  -3.969  -2.516  0.00  0.00    +0.219 C 
ATOM      2  C   UNL     1       0.995  -4.404  -3.885  0.00  0.00    +0.188 C 
ATOM      3  N   UNL     1      -0.181  -4.056  -4.320  0.00  0.00    -0.110 NA
ATOM      4  N   UNL     1       1.808  -5.154  -4.646  0.00  0.00    -0.226 NA
ATOM      5  C   UNL     1       3.002  -5.519  -4.229  0.00  0.00    +0.089 A 
ATOM      6  C   UNL     1       3.834  -6.311  -5.059  0.00  0.00    +0.030 A 
ATOM      7  C   UNL     1       5.061  -6.689  -4.636  0.00  0.00    +0.002 A 
ATOM      8  C   UNL     1       5.575  -6.329  -3.379  0.00  0.00    +0.002 A 
ATOM      9  C   UNL     1       4.865  -5.576  -2.510  0.00  0.00    +0.027 A 
ATOM     10  C   UNL     1       3.520  -5.124  -2.896  0.00  0.00    +0.063 A 
ATOM     11  N   UNL     1       2.806  -4.395  -2.084  0.00  0.00    -0.362 N 
ATOM     12  H   UNL     1       3.151  -4.140  -1.214  0.00  0.00    +0.162 HD
ENDROOT
BRANCH   3  13
ATOM     13  S   UNL     1      -0.684  -4.540  -5.822  0.00  0.00    +0.100 S 
ATOM     14  O   UNL     1       0.159  -3.889  -6.762  0.00  0.00    -0.146 OA
ATOM     15  O   UNL     1      -0.819  -5.953  -5.769  0.00  0.00    -0.146 OA
BRANCH  13  16
ATOM     16  C   UNL     1      -2.304  -3.888  -6.062  0.00  0.00    +0.114 A 
ATOM     17  C   UNL     1      -3.409  -4.623  -5.675  0.00  0.00    +0.029 A 
ATOM     18  C   UNL     1      -4.680  -4.113  -5.863  0.00  0.00    +0.003 A 
ATOM     19  C   UNL     1      -4.846  -2.868  -6.440  0.00  0.00    +0.020 A 
ATOM     20  C   UNL     1      -3.741  -2.132  -6.828  0.00  0.00    +0.043 A 
ATOM     21  C   UNL     1      -2.469  -2.641  -6.634  0.00  0.00    +0.049 A 
ATOM     22 CL   UNL     1      -3.949  -0.568  -7.553  0.00  0.00    -0.083 Cl
ENDBRANCH  13  16
ENDBRANCH   3  13
BRANCH   1  23
ATOM     23  N   UNL     1       1.427  -2.501  -2.474  0.00  0.00    -0.291 NA
ATOM     24  H   UNL     1       0.995  -2.127  -3.305  0.00  0.00    +0.124 HD
BRANCH  23  25
ATOM     25  C   UNL     1       0.739  -2.027  -1.265  0.00  0.00    +0.083 C 
BRANCH  25  26
ATOM     26  C   UNL     1       0.718  -0.497  -1.257  0.00  0.00    +0.015 C 
BRANCH  26  28
ATOM     27  C   UNL     1      -0.019   1.526   0.010  0.00  0.00    +0.004 C 
ATOM     28  C   UNL     1       0.002  -0.004   0.002  0.00  0.00    -0.002 C 
ENDBRANCH  26  28
ENDBRANCH  25  26
ENDBRANCH  23  25
ENDBRANCH   1  23
TORSDOF 6
