REMARK  Name = ZINC63437139
REMARK  6 active torsions:
REMARK  status: ('A' for Active; 'I' for Inactive)
REMARK    1  A    between atoms: C_4  and  C_7
REMARK    2  A    between atoms: C_7  and  C_9
REMARK    3  A    between atoms: C_7  and  N_21
REMARK    4  A    between atoms: N_11  and  C_12
REMARK    5  A    between atoms: C_22  and  C_24
REMARK    6  A    between atoms: C_24  and  C_25
REMARK                            x       y       z     vdW  Elec       q    Type
REMARK                         _______ _______ _______ _____ _____    ______ ____
ROOT
ATOM      1  C   UNL     1       3.554  -0.735  -0.076  0.00  0.00    +0.190 C 
ENDROOT
BRANCH   1   5
ATOM      2  C   UNL     1       0.143   1.837  -0.075  0.00  0.00    +0.000 A 
ATOM      3  C   UNL     1       1.415   2.375  -0.009  0.00  0.00    +0.000 A 
ATOM      4  C   UNL     1       2.518   1.543  -0.009  0.00  0.00    +0.006 A 
ATOM      5  C   UNL     1       2.350   0.172  -0.075  0.00  0.00    -0.018 A 
ATOM      6  C   UNL     1       1.079  -0.366  -0.141  0.00  0.00    +0.006 A 
ATOM      7  C   UNL     1      -0.025   0.466  -0.142  0.00  0.00    +0.000 A 
ENDBRANCH   1   5
BRANCH   1   8
ATOM      8  C   UNL     1       3.852  -1.172  -1.487  0.00  0.00    +0.242 C 
ATOM      9  O   UNL     1       3.836  -2.351  -1.773  0.00  0.00    -0.273 OA
ATOM     10  N   UNL     1       4.136  -0.254  -2.432  0.00  0.00    -0.284 N 
ATOM     11  H   UNL     1       4.074   0.692  -2.223  0.00  0.00    +0.155 HD
BRANCH  10  12
ATOM     12  C   UNL     1       4.520  -0.664  -3.715  0.00  0.00    +0.037 A 
ATOM     13  C   UNL     1       4.168   0.097  -4.822  0.00  0.00    +0.027 A 
ATOM     14  C   UNL     1       4.547  -0.307  -6.088  0.00  0.00    +0.051 A 
ATOM     15  C   UNL     1       5.279  -1.471  -6.257  0.00  0.00    +0.166 A 
ATOM     16  C   UNL     1       5.634  -2.236  -5.148  0.00  0.00    +0.168 A 
ATOM     17  C   UNL     1       5.258  -1.828  -3.879  0.00  0.00    +0.072 A 
ATOM     18  O   UNL     1       6.343  -3.321  -5.576  0.00  0.00    -0.453 OA
ATOM     19  C   UNL     1       6.069  -3.429  -6.985  0.00  0.00    +0.466 C 
ATOM     20  O   UNL     1       5.767  -2.078  -7.379  0.00  0.00    -0.453 OA
ENDBRANCH  10  12
ENDBRANCH   1   8
BRANCH   1  21
ATOM     21  N   UNL     1       3.279  -1.912   0.752  0.00  0.00    -0.300 N 
ATOM     22  C   UNL     1       3.480  -1.860   2.084  0.00  0.00    +0.216 C 
ATOM     23  O   UNL     1       3.889  -0.840   2.596  0.00  0.00    -0.276 OA
ATOM     24  H   UNL     1       2.952  -2.728   0.342  0.00  0.00    +0.150 HD
BRANCH  22  25
ATOM     25  C   UNL     1       3.198  -3.071   2.936  0.00  0.00    +0.124 C 
BRANCH  25  26
ATOM     26  C   UNL     1       3.507  -2.748   4.399  0.00  0.00    +0.112 C 
ATOM     27  C   UNL     1       3.289  -3.972   5.260  0.00  0.00    +0.007 C 
ATOM     28  C   UNL     1       2.323  -3.639   6.146  0.00  0.00    -0.004 A 
ATOM     29  C   UNL     1       1.673  -4.381   7.234  0.00  0.00    +0.010 A 
ATOM     30  C   UNL     1       0.717  -3.767   7.966  0.00  0.00    +0.001 A 
ATOM     31  C   UNL     1       0.331  -2.443   7.714  0.00  0.00    +0.002 A 
ATOM     32  C   UNL     1       0.882  -1.698   6.733  0.00  0.00    +0.026 A 
ATOM     33  C   UNL     1       1.898  -2.243   5.900  0.00  0.00    +0.043 A 
ATOM     34  N   UNL     1       2.576  -1.731   4.900  0.00  0.00    -0.377 N 
ATOM     35  H   UNL     1       2.479  -0.831   4.550  0.00  0.00    +0.160 HD
ENDBRANCH  25  26
ENDBRANCH  22  25
ENDBRANCH   1  21
TORSDOF 6
