REMARK  Name = ZINC43137128
REMARK  6 active torsions:
REMARK  status: ('A' for Active; 'I' for Inactive)
REMARK    1  A    between atoms: C_5  and  C_7
REMARK    2  A    between atoms: N_9  and  N_10
REMARK    3  A    between atoms: N_13  and  C_14
REMARK    4  A    between atoms: C_14  and  C_15
REMARK    5  A    between atoms: C_15  and  C_17
REMARK    6  A    between atoms: C_15  and  N_22
REMARK                            x       y       z     vdW  Elec       q    Type
REMARK                         _______ _______ _______ _____ _____    ______ ____
ROOT
ATOM      1  N   UNL     1       0.025  -4.469   1.057  0.00  0.00    -0.218 N 
ATOM      2  C   UNL     1      -1.168  -5.093   1.001  0.00  0.00    +0.316 C 
ATOM      3  O   UNL     1      -1.259  -6.261   1.325  0.00  0.00    -0.251 OA
ATOM      4  N   UNL     1      -2.260  -4.421   0.586  0.00  0.00    -0.299 N 
ATOM      5  H   UNL     1       0.812  -4.952   1.355  0.00  0.00    +0.174 HD
ATOM      6  H   UNL     1      -2.188  -3.489   0.327  0.00  0.00    +0.150 HD
ENDROOT
BRANCH   1   9
ATOM      7  C   UNL     1       1.324  -2.499   0.739  0.00  0.00    +0.263 C 
ATOM      8  O   UNL     1       2.309  -3.105   1.113  0.00  0.00    -0.269 OA
ATOM      9  N   UNL     1       0.131  -3.123   0.683  0.00  0.00    -0.229 N 
ATOM     10  H   UNL     1      -0.656  -2.640   0.384  0.00  0.00    +0.173 HD
BRANCH   7  15
ATOM     11  C   UNL     1       0.416   0.943  -0.454  0.00  0.00    +0.001 A 
ATOM     12  C   UNL     1       1.642   1.582  -0.396  0.00  0.00    +0.003 A 
ATOM     13  C   UNL     1       2.766   0.899   0.030  0.00  0.00    +0.039 A 
ATOM     14  C   UNL     1       2.671  -0.430   0.401  0.00  0.00    +0.136 A 
ATOM     15  C   UNL     1       1.435  -1.080   0.345  0.00  0.00    +0.073 A 
ATOM     16  C   UNL     1       0.305  -0.382  -0.087  0.00  0.00    +0.016 A 
ATOM     17  F   UNL     1       3.770  -1.098   0.816  0.00  0.00    -0.205 F 
ENDBRANCH   7  15
ENDBRANCH   1   9
BRANCH   4  18
ATOM     18  C   UNL     1      -3.558  -5.099   0.525  0.00  0.00    +0.098 C 
BRANCH  18  19
ATOM     19  C   UNL     1      -4.644  -4.089   0.152  0.00  0.00    +0.016 C 
BRANCH  19  20
ATOM     20  N   UNL     1      -4.641  -2.986   1.123  0.00  0.00    +0.387 N 
ATOM     21  C   UNL     1      -4.794  -3.528   2.478  0.00  0.00    -0.078 C 
ATOM     22  C   UNL     1      -4.711  -2.392   3.499  0.00  0.00    -0.019 C 
ATOM     23  C   UNL     1      -5.828  -1.381   3.223  0.00  0.00    -0.004 C 
ATOM     24  C   UNL     1      -5.702  -0.878   1.782  0.00  0.00    -0.019 C 
ATOM     25  C   UNL     1      -5.750  -2.071   0.825  0.00  0.00    -0.078 C 
ATOM     26  H   UNL     1      -3.767  -2.486   1.060  0.00  0.00    -0.081 HD
ENDBRANCH  19  20
BRANCH  19  27
ATOM     27  C   UNL     1      -5.989  -4.768   0.169  0.00  0.00    +0.093 A 
ATOM     28  C   UNL     1      -6.729  -5.074  -0.912  0.00  0.00    +0.043 A 
ATOM     29  C   UNL     1      -7.907  -5.697  -0.440  0.00  0.00    +0.041 A 
ATOM     30  C   UNL     1      -7.816  -5.736   0.902  0.00  0.00    +0.195 A 
ATOM     31  O   UNL     1      -6.650  -5.177   1.264  0.00  0.00    -0.469 OA
ENDBRANCH  19  27
ENDBRANCH  18  19
ENDBRANCH   4  18
TORSDOF 6
