REMARK  Name = ZINC37785365
REMARK  8 active torsions:
REMARK  status: ('A' for Active; 'I' for Inactive)
REMARK    1  A    between atoms: C_1  and  C_2
REMARK    2  A    between atoms: C_2  and  C_4
REMARK    3  A    between atoms: C_2  and  N_13
REMARK    4  A    between atoms: C_6  and  O_11
REMARK    5  A    between atoms: C_9  and  O_10
REMARK    6  A    between atoms: O_11  and  C_12
REMARK    7  A    between atoms: N_13  and  C_14
REMARK    8  A    between atoms: N_19  and  C_21
REMARK                            x       y       z     vdW  Elec       q    Type
REMARK                         _______ _______ _______ _____ _____    ______ ____
ROOT
ATOM      1  C   UNL     1      -0.076   1.524   0.019  0.00  0.00    +0.033 C 
ATOM      2  C   UNL     1       0.002  -0.004   0.002  0.00  0.00    +0.101 C 
ENDROOT
BRANCH   2   3
ATOM      3  C   UNL     1       0.858  -0.451  -1.155  0.00  0.00    +0.017 A 
ATOM      4  C   UNL     1       2.210  -0.668  -0.971  0.00  0.00    +0.054 A 
ATOM      5  C   UNL     1       2.998  -1.079  -2.035  0.00  0.00    +0.121 A 
ATOM      6  C   UNL     1       2.428  -1.272  -3.285  0.00  0.00    +0.049 A 
ATOM      7  C   UNL     1       1.077  -1.055  -3.470  0.00  0.00    +0.049 A 
ATOM      8  C   UNL     1       0.288  -0.648  -2.404  0.00  0.00    +0.122 A 
BRANCH   8   9
ATOM      9  O   UNL     1      -1.044  -0.440  -2.584  0.00  0.00    -0.506 OA
ATOM     10  H   UNL     1      -1.268   0.464  -2.843  0.00  0.00    +0.292 HD
ENDBRANCH   8   9
BRANCH   5  11
ATOM     11  O   UNL     1       4.328  -1.293  -1.854  0.00  0.00    -0.495 OA
ATOM     12  C   UNL     1       5.079  -1.715  -2.994  0.00  0.00    +0.277 C 
ENDBRANCH   5  11
ENDBRANCH   2   3
BRANCH   2  13
ATOM     13  N   UNL     1       0.592  -0.477   1.257  0.00  0.00    -0.336 N 
ATOM     14  H   UNL     1       1.545  -0.650   1.310  0.00  0.00    +0.147 HD
BRANCH  13  15
ATOM     15  C   UNL     1      -0.222  -0.681   2.382  0.00  0.00    +0.044 A 
ATOM     16  C   UNL     1      -1.605  -0.437   2.305  0.00  0.00    +0.030 A 
ATOM     17  C   UNL     1      -2.380  -0.640   3.408  0.00  0.00    +0.072 A 
ATOM     18  C   UNL     1      -1.782  -1.089   4.598  0.00  0.00    +0.251 A 
ATOM     19  O   UNL     1      -2.467  -1.274   5.591  0.00  0.00    -0.268 OA
ATOM     20  N   UNL     1      -0.456  -1.315   4.645  0.00  0.00    -0.316 N 
ATOM     21  C   UNL     1       0.323  -1.119   3.546  0.00  0.00    +0.111 A 
ATOM     22  C   UNL     1       0.155  -1.783   5.891  0.00  0.00    +0.152 C 
ENDBRANCH  13  15
ENDBRANCH   2  13
TORSDOF 5
