REMARK  Name = ZINC54558112
REMARK  5 active torsions:
REMARK  status: ('A' for Active; 'I' for Inactive)
REMARK    1  A    between atoms: C_1  and  C_2
REMARK    2  A    between atoms: C_2  and  C_3
REMARK    3  A    between atoms: C_2  and  C_4
REMARK    4  A    between atoms: C_11  and  C_16
REMARK    5  A    between atoms: C_16  and  N_17
REMARK                            x       y       z     vdW  Elec       q    Type
REMARK                         _______ _______ _______ _____ _____    ______ ____
ROOT
ATOM      1  C   UNL     1      -1.433  -0.534   0.013  0.00  0.00    -0.004 C 
ATOM      2  C   UNL     1      -2.176  -0.041  -1.235  0.00  0.00    +0.010 C 
ATOM      3  C   UNL     1      -3.652  -0.400  -1.086  0.00  0.00    +0.054 C 
ATOM      4  C   UNL     1      -3.814  -1.857  -0.733  0.00  0.00    +0.022 A 
ATOM      5  C   UNL     1      -2.806  -2.603  -0.238  0.00  0.00    -0.028 A 
ATOM      6  C   UNL     1      -3.033  -3.957   0.082  0.00  0.00    +0.012 A 
ATOM      7  C   UNL     1      -4.262  -4.505  -0.115  0.00  0.00    -0.000 A 
ATOM      8  C   UNL     1      -5.289  -3.702  -0.641  0.00  0.00    +0.250 A 
ATOM      9  O   UNL     1      -6.399  -4.173  -0.830  0.00  0.00    -0.268 OA
ATOM     10  N   UNL     1      -5.045  -2.414  -0.934  0.00  0.00    -0.326 N 
ATOM     11  H   UNL     1      -5.759  -1.868  -1.298  0.00  0.00    +0.169 HD
ATOM     12  C   UNL     1      -1.419  -2.061  -0.010  0.00  0.00    +0.040 C 
ENDROOT
BRANCH   1  14
ATOM     13  C   UNL     1      -0.019   1.526   0.010  0.00  0.00    +0.007 C 
ATOM     14  C   UNL     1       0.002  -0.004   0.002  0.00  0.00    -0.014 C 
ATOM     15  C   UNL     1       0.742  -0.511   1.242  0.00  0.00    +0.007 C 
ENDBRANCH   1  14
BRANCH   7  16
ATOM     16  C   UNL     1      -4.519  -5.950   0.224  0.00  0.00    -0.045 C 
BRANCH  16  17
ATOM     17  N   UNL     1      -5.085  -6.043   1.577  0.00  0.00    +0.381 N 
ATOM     18  H   UNL     1      -5.953  -5.529   1.614  0.00  0.00    -0.090 HD
ATOM     19  H   UNL     1      -5.257  -7.011   1.804  0.00  0.00    -0.090 HD
ATOM     20  H   UNL     1      -4.434  -5.652   2.241  0.00  0.00    -0.090 HD
ENDBRANCH  16  17
ENDBRANCH   7  16
TORSDOF 3
