REMARK  Name = ZINC63818119
REMARK  5 active torsions:
REMARK  status: ('A' for Active; 'I' for Inactive)
REMARK    1  A    between atoms: C_4  and  C_7
REMARK    2  A    between atoms: C_4  and  C_21
REMARK    3  A    between atoms: C_7  and  C_8
REMARK    4  A    between atoms: N_10  and  C_11
REMARK    5  A    between atoms: C_21  and  N_22
REMARK                            x       y       z     vdW  Elec       q    Type
REMARK                         _______ _______ _______ _____ _____    ______ ____
ROOT
ATOM      1  C   UNL     1       2.650  -0.353  -2.966  0.00  0.00    +0.104 C 
ENDROOT
BRANCH   1   5
ATOM      2  C   UNL     1      -0.478   0.465  -0.090  0.00  0.00    +0.000 C 
ATOM      3  C   UNL     1       0.833   1.244   0.030  0.00  0.00    +0.001 C 
ATOM      4  C   UNL     1       1.590   1.175  -1.298  0.00  0.00    +0.009 C 
ATOM      5  C   UNL     1       1.893  -0.285  -1.638  0.00  0.00    -0.004 C 
ATOM      6  C   UNL     1       0.582  -1.064  -1.758  0.00  0.00    +0.009 C 
ATOM      7  C   UNL     1      -0.175  -0.996  -0.430  0.00  0.00    +0.001 C 
BRANCH   5   8
ATOM      8  C   UNL     1       2.752  -0.899  -0.530  0.00  0.00    +0.136 C 
BRANCH   8   9
ATOM      9  N   UNL     1       4.039  -0.203  -0.468  0.00  0.00    -0.217 N 
ATOM     10  C   UNL     1       4.378   0.966   0.366  0.00  0.00    +0.251 C 
ATOM     11  N   UNL     1       5.788   1.222   0.016  0.00  0.00    -0.231 N 
ATOM     12  N   UNL     1       6.131   0.247  -0.928  0.00  0.00    -0.064 NA
ATOM     13  N   UNL     1       5.202  -0.514  -1.182  0.00  0.00    -0.061 NA
ATOM     14  H   UNL     1       6.360   1.922   0.368  0.00  0.00    +0.172 HD
ENDBRANCH   8   9
ENDBRANCH   5   8
ENDBRANCH   1   5
BRANCH   1  15
ATOM     15  C   UNL     1       3.010  -1.786  -3.266  0.00  0.00    +0.218 C 
ATOM     16  O   UNL     1       2.600  -2.676  -2.553  0.00  0.00    -0.275 OA
ATOM     17  N   UNL     1       3.788  -2.077  -4.328  0.00  0.00    -0.286 N 
ATOM     18  H   UNL     1       4.069  -1.371  -4.931  0.00  0.00    +0.155 HD
BRANCH  17  19
ATOM     19  C   UNL     1       4.190  -3.398  -4.560  0.00  0.00    +0.032 C 
ATOM     20  C   UNL     1       5.504  -3.662  -4.653  0.00  0.00    +0.027 C 
ATOM     21  C   UNL     1       5.945  -5.064  -4.955  0.00  0.00    +0.160 C 
ATOM     22  C   UNL     1       4.876  -6.005  -4.432  0.00  0.00    -0.018 C 
ATOM     23  C   UNL     1       5.533  -6.937  -3.720  0.00  0.00    +0.025 C 
ATOM     24  C   UNL     1       6.895  -6.572  -3.616  0.00  0.00    +0.106 C 
ATOM     25  N   UNL     1       7.166  -5.483  -4.281  0.00  0.00    -0.279 NA
ATOM     26  C   UNL     1       3.499  -5.750  -4.596  0.00  0.00    +0.008 C 
ATOM     27  C   UNL     1       3.161  -4.431  -4.684  0.00  0.00    +0.023 C 
ENDBRANCH  17  19
ENDBRANCH   1  15
TORSDOF 5
