REMARK  Name = ZINC52927032
REMARK  4 active torsions:
REMARK  status: ('A' for Active; 'I' for Inactive)
REMARK    1  A    between atoms: C_1  and  C_2
REMARK    2  A    between atoms: C_6  and  C_7
REMARK    3  A    between atoms: N_9  and  C_10
REMARK    4  A    between atoms: C_15  and  N_16
REMARK                            x       y       z     vdW  Elec       q    Type
REMARK                         _______ _______ _______ _____ _____    ______ ____
ROOT
ATOM      1  C   UNL     1       0.034  -0.395   2.490  0.00  0.00    +0.284 C 
ATOM      2  O   UNL     1       0.012   0.792   2.759  0.00  0.00    -0.266 OA
ATOM      3  N   UNL     1       0.053  -1.309   3.480  0.00  0.00    -0.277 N 
ATOM      4  H   UNL     1      -0.010  -2.254   3.269  0.00  0.00    +0.155 HD
ENDROOT
BRANCH   1  10
ATOM      5  C   UNL     1      -0.007   1.502   0.010  0.00  0.00    +0.048 C 
ATOM      6  C   UNL     1       0.020  -0.004   0.002  0.00  0.00    +0.011 A 
ATOM      7  C   UNL     1       0.038  -0.841  -1.125  0.00  0.00    +0.062 A 
ATOM      8  C   UNL     1       0.059  -2.152  -0.662  0.00  0.00    +0.117 A 
ATOM      9  O   UNL     1       0.058  -2.114   0.664  0.00  0.00    -0.454 OA
ATOM     10  C   UNL     1       0.038  -0.830   1.089  0.00  0.00    +0.193 A 
ATOM     11  C   UNL     1       0.075  -3.344  -1.585  0.00  0.00    +0.075 C 
ATOM     12  C   UNL     1      -0.438  -2.922  -2.964  0.00  0.00    +0.016 C 
ATOM     13  C   UNL     1       0.334  -1.703  -3.480  0.00  0.00    +0.080 C 
ATOM     14  C   UNL     1       0.039  -0.526  -2.562  0.00  0.00    +0.167 C 
ATOM     15  O   UNL     1      -0.179   0.590  -2.984  0.00  0.00    -0.292 OA
ENDBRANCH   1  10
BRANCH   3  16
ATOM     16  C   UNL     1       0.165  -0.897   4.812  0.00  0.00    +0.058 A 
ATOM     17  C   UNL     1       0.755   0.322   5.116  0.00  0.00    +0.025 A 
ATOM     18  C   UNL     1       0.864   0.728   6.432  0.00  0.00    +0.002 A 
ATOM     19  C   UNL     1       0.387  -0.078   7.450  0.00  0.00    +0.002 A 
ATOM     20  C   UNL     1      -0.203  -1.293   7.157  0.00  0.00    +0.028 A 
ATOM     21  C   UNL     1      -0.322  -1.706   5.838  0.00  0.00    +0.069 A 
BRANCH  21  22
ATOM     22  N   UNL     1      -0.925  -2.936   5.537  0.00  0.00    -0.304 N 
ATOM     23  C   UNL     1      -0.638  -4.147   6.113  0.00  0.00    +0.112 A 
ATOM     24  C   UNL     1      -1.445  -5.056   5.533  0.00  0.00    +0.130 A 
ATOM     25  N   UNL     1      -2.207  -4.423   4.629  0.00  0.00    -0.244 NA
ATOM     26  C   UNL     1      -1.909  -3.152   4.626  0.00  0.00    +0.204 A 
ENDBRANCH  21  22
ENDBRANCH   3  16
TORSDOF 3
