REMARK  Name = ZINC03516498
REMARK  5 active torsions:
REMARK  status: ('A' for Active; 'I' for Inactive)
REMARK    1  A    between atoms: C_1  and  C_2
REMARK    2  A    between atoms: C_11  and  O_15
REMARK    3  A    between atoms: O_15  and  C_16
REMARK    4  A    between atoms: C_16  and  C_17
REMARK    5  A    between atoms: N_22  and  C_23
REMARK                            x       y       z     vdW  Elec       q    Type
REMARK                         _______ _______ _______ _____ _____    ______ ____
ROOT
ATOM      1  C   UNL     1       7.774   3.371   0.021  0.00  0.00    +0.008 C 
ATOM      2  C   UNL     1       6.347   2.912   0.326  0.00  0.00    -0.009 C 
ATOM      3  C   UNL     1       5.355   3.739  -0.497  0.00  0.00    +0.008 C 
ATOM      4  C   UNL     1       3.929   3.462  -0.020  0.00  0.00    +0.037 C 
ATOM      5  C   UNL     1       3.692   1.954  -0.024  0.00  0.00    -0.023 A 
ATOM      6  C   UNL     1       4.730   1.094  -0.039  0.00  0.00    -0.004 A 
ATOM      7  S   UNL     1       3.995  -0.520  -0.038  0.00  0.00    -0.073 S 
ATOM      8  C   UNL     1       2.288  -0.036  -0.020  0.00  0.00    +0.116 A 
ATOM      9  C   UNL     1       2.348   1.373  -0.013  0.00  0.00    +0.073 A 
ATOM     10  C   UNL     1       1.093   2.037   0.003  0.00  0.00    +0.227 A 
ATOM     11  N   UNL     1      -0.016   1.317   0.009  0.00  0.00    -0.201 NA
ATOM     12  C   UNL     1       0.002  -0.004   0.002  0.00  0.00    +0.226 A 
ATOM     13  N   UNL     1       1.137  -0.677  -0.012  0.00  0.00    -0.228 NA
ATOM     14  C   UNL     1       6.189   1.433  -0.053  0.00  0.00    +0.046 C 
ENDROOT
BRANCH  10  15
ATOM     15  O   UNL     1       1.032   3.390   0.011  0.00  0.00    -0.466 OA
BRANCH  15  16
ATOM     16  C   UNL     1      -0.269   3.981   0.028  0.00  0.00    +0.326 C 
BRANCH  16  17
ATOM     17  C   UNL     1      -0.139   5.482   0.035  0.00  0.00    +0.258 C 
ATOM     18  O   UNL     1       0.960   5.995   0.027  0.00  0.00    -0.272 OA
ATOM     19  N   UNL     1      -1.243   6.254   0.051  0.00  0.00    -0.237 N 
ATOM     20  C   UNL     1      -1.127   7.597   0.057  0.00  0.00    +0.306 C 
ATOM     21  O   UNL     1      -0.025   8.111   0.050  0.00  0.00    -0.252 OA
ATOM     22  N   UNL     1      -2.231   8.369   0.073  0.00  0.00    -0.302 N 
ATOM     23  C   UNL     1      -2.104   9.829   0.080  0.00  0.00    +0.129 C 
ATOM     24  H   UNL     1      -2.122   5.844   0.057  0.00  0.00    +0.159 HD
ATOM     25  H   UNL     1      -3.110   7.959   0.079  0.00  0.00    +0.150 HD
ENDBRANCH  16  17
ENDBRANCH  15  16
ENDBRANCH  10  15
TORSDOF 3
