REMARK  Name = ZINC22748013
REMARK  8 active torsions:
REMARK  status: ('A' for Active; 'I' for Inactive)
REMARK    1  A    between atoms: C_1  and  C_2
REMARK    2  A    between atoms: C_2  and  N_3
REMARK    3  A    between atoms: C_5  and  C_9
REMARK    4  A    between atoms: C_6  and  C_8
REMARK    5  A    between atoms: C_16  and  C_34
REMARK    6  A    between atoms: C_17  and  C_25
REMARK    7  A    between atoms: C_18  and  C_20
REMARK    8  A    between atoms: N_27  and  C_28
REMARK                            x       y       z     vdW  Elec       q    Type
REMARK                         _______ _______ _______ _____ _____    ______ ____
ROOT
ATOM      1  C   UNL     1       4.747   7.394   1.282  0.00  0.00    +0.031 C 
ATOM      2  C   UNL     1       4.212   6.145   1.274  0.00  0.00    +0.081 A 
ATOM      3  C   UNL     1       2.878   5.699   1.690  0.00  0.00    +0.268 A 
ATOM      4  O   UNL     1       2.059   6.491   2.121  0.00  0.00    -0.266 OA
ATOM      5  N   UNL     1       2.587   4.396   1.583  0.00  0.00    -0.274 N 
ATOM      6  C   UNL     1       3.549   3.544   1.091  0.00  0.00    +0.178 A 
ATOM      7  N   UNL     1       3.378   2.255   0.942  0.00  0.00    -0.228 NA
ATOM      8  C   UNL     1       2.264   1.598   1.244  0.00  0.00    +0.052 C 
ATOM      9  C   UNL     1       1.183   2.261   1.750  0.00  0.00    +0.063 C 
ATOM     10  C   UNL     1       1.292   3.755   1.948  0.00  0.00    +0.166 C 
ATOM     11  C   UNL     1       2.193   0.109   1.026  0.00  0.00    +0.066 C 
ATOM     12  S   UNL     1       4.943   4.601   0.753  0.00  0.00    -0.046 S 
ENDROOT
BRANCH   1  15
ATOM     13  N   UNL     1       2.217   9.921   1.871  0.00  0.00    -0.271 N 
ATOM     14  C   UNL     1       2.594   8.753   1.321  0.00  0.00    +0.116 A 
ATOM     15  C   UNL     1       3.918   8.545   1.663  0.00  0.00    +0.017 A 
ATOM     16  C   UNL     1       4.322   9.646   2.454  0.00  0.00    +0.067 A 
ATOM     17  N   UNL     1       3.307  10.457   2.566  0.00  0.00    -0.176 NA
ATOM     18  C   UNL     1       5.687   9.848   3.059  0.00  0.00    +0.068 C 
BRANCH  13  20
ATOM     19  C   UNL     1       0.339  10.809   3.162  0.00  0.00    +0.029 C 
ATOM     20  C   UNL     1       0.889  10.530   1.762  0.00  0.00    +0.140 C 
ENDBRANCH  13  20
ENDBRANCH   1  15
BRANCH  10  21
ATOM     21  C   UNL     1       1.027   4.051   3.401  0.00  0.00    +0.017 A 
ATOM     22  C   UNL     1      -0.124   4.453   3.995  0.00  0.00    +0.013 A 
ATOM     23  C   UNL     1      -0.135   4.665   5.360  0.00  0.00    +0.008 A 
ATOM     24  C   UNL     1       1.005   4.466   6.066  0.00  0.00    +0.045 A 
ATOM     25  S   UNL     1       2.144   3.955   4.790  0.00  0.00    -0.099 S 
ENDBRANCH  10  21
BRANCH   9  26
ATOM     26  C   UNL     1      -0.001   1.573   2.072  0.00  0.00    +0.248 C 
ATOM     27  O   UNL     1      -0.971   1.651   1.337  0.00  0.00    -0.270 OA
ATOM     28  N   UNL     1      -0.066   0.833   3.196  0.00  0.00    -0.282 N 
ATOM     29  H   UNL     1       0.773   0.838   3.907  0.00  0.00    +0.155 HD
BRANCH  28  30
ATOM     30  C   UNL     1      -1.201   0.059   3.459  0.00  0.00    +0.034 A 
ATOM     31  C   UNL     1      -1.927  -0.490   2.410  0.00  0.00    +0.023 A 
ATOM     32  C   UNL     1      -3.044  -1.258   2.674  0.00  0.00    +0.002 A 
ATOM     33  C   UNL     1      -3.446  -1.472   3.980  0.00  0.00    +0.000 A 
ATOM     34  C   UNL     1      -2.728  -0.921   5.026  0.00  0.00    +0.002 A 
ATOM     35  C   UNL     1      -1.607  -0.157   4.770  0.00  0.00    +0.023 A 
ENDBRANCH  28  30
ENDBRANCH   9  26
TORSDOF 5
