REMARK  Name = ZINC65553420
REMARK  3 active torsions:
REMARK  status: ('A' for Active; 'I' for Inactive)
REMARK    1  A    between atoms: C_1  and  N_2
REMARK    2  A    between atoms: C_6  and  C_7
REMARK    3  A    between atoms: N_16  and  C_17
REMARK                            x       y       z     vdW  Elec       q    Type
REMARK                         _______ _______ _______ _____ _____    ______ ____
ROOT
ATOM      1  C   UNL     1      -0.239  -0.889   2.491  0.00  0.00    +0.074 C 
ATOM      2  C   UNL     1       1.122  -1.175   3.128  0.00  0.00    +0.014 C 
ATOM      3  C   UNL     1       1.210  -0.473   4.486  0.00  0.00    +0.020 C 
ATOM      4  C   UNL     1       0.119  -1.021   5.411  0.00  0.00    +0.109 C 
ATOM      5  N   UNL     1      -1.182  -0.881   4.742  0.00  0.00    -0.285 N 
ATOM      6  C   UNL     1      -1.348  -1.441   3.393  0.00  0.00    +0.120 C 
ATOM      7  C   UNL     1      -2.205  -0.252   5.354  0.00  0.00    +0.303 C 
ATOM      8  O   UNL     1      -3.246  -0.060   4.756  0.00  0.00    -0.253 OA
ATOM      9  N   UNL     1      -2.073   0.165   6.629  0.00  0.00    -0.288 N 
ATOM     10  H   UNL     1      -1.220   0.077   7.082  0.00  0.00    +0.151 HD
ENDROOT
BRANCH   9  11
ATOM     11  C   UNL     1      -3.219   0.750   7.330  0.00  0.00    +0.160 C 
ATOM     12  C   UNL     1      -2.731   1.514   8.564  0.00  0.00    +0.032 C 
ATOM     13  C   UNL     1      -1.532   0.821   9.185  0.00  0.00    +0.004 C 
ATOM     14  C   UNL     1      -1.850  -0.536   9.785  0.00  0.00    +0.019 C 
ATOM     15  C   UNL     1      -2.232  -1.539   8.694  0.00  0.00    +0.104 C 
ATOM     16  N   UNL     1      -3.674  -1.417   8.426  0.00  0.00    -0.314 N 
ATOM     17  C   UNL     1      -4.157  -0.350   7.780  0.00  0.00    +0.233 C 
ATOM     18  O   UNL     1      -5.345  -0.260   7.558  0.00  0.00    -0.274 OA
ATOM     19  H   UNL     1      -4.279  -2.116   8.718  0.00  0.00    +0.149 HD
ENDBRANCH   9  11
BRANCH   1  25
ATOM     20  C   UNL     1      -0.685   0.501  -0.277  0.00  0.00    +0.151 C 
ATOM     21  N   UNL     1      -0.506  -0.935  -0.049  0.00  0.00    -0.320 N 
ATOM     22  C   UNL     1      -0.494  -1.913  -0.986  0.00  0.00    +0.224 A 
ATOM     23  N   UNL     1      -0.308  -3.045  -0.363  0.00  0.00    -0.138 NA
ATOM     24  N   UNL     1      -0.203  -2.832   0.901  0.00  0.00    -0.134 NA
ATOM     25  C   UNL     1      -0.312  -1.553   1.141  0.00  0.00    +0.138 A 
ENDBRANCH   1  25
TORSDOF 2
