REMARK  Name = ZINC21173531
REMARK  7 active torsions:
REMARK  status: ('A' for Active; 'I' for Inactive)
REMARK    1  A    between atoms: C_1  and  S_2
REMARK    2  A    between atoms: S_2  and  N_5
REMARK    3  A    between atoms: C_13  and  C_15
REMARK    4  A    between atoms: C_15  and  C_17
REMARK    5  A    between atoms: C_17  and  O_18
REMARK    6  A    between atoms: O_18  and  C_19
REMARK    7  A    between atoms: C_19  and  C_21
REMARK                            x       y       z     vdW  Elec       q    Type
REMARK                         _______ _______ _______ _____ _____    ______ ____
ROOT
ATOM      1  C   UNL     1       3.523   2.080   1.013  0.00  0.00    +0.311 C 
ENDROOT
BRANCH   1   2
ATOM      2  C   UNL     1       4.319   1.561   2.183  0.00  0.00    +0.200 C 
ATOM      3  O   UNL     1       3.787   0.851   3.011  0.00  0.00    -0.288 OA
BRANCH   2  12
ATOM      4  N   UNL     1       9.753   2.910   2.687  0.00  0.00    -0.207 N 
ATOM      5  C   UNL     1      10.452   2.669   3.957  0.00  0.00    +0.131 C 
ATOM      6  C   UNL     1      10.069   1.266   4.445  0.00  0.00    +0.025 C 
ATOM      7  C   UNL     1       8.566   1.233   4.722  0.00  0.00    +0.038 C 
ATOM      8  C   UNL     1       7.801   1.760   3.536  0.00  0.00    -0.024 A 
ATOM      9  C   UNL     1       8.407   2.571   2.583  0.00  0.00    +0.054 A 
ATOM     10  C   UNL     1       7.672   3.054   1.500  0.00  0.00    +0.026 A 
ATOM     11  C   UNL     1       6.354   2.728   1.363  0.00  0.00    +0.013 A 
ATOM     12  C   UNL     1       5.737   1.913   2.321  0.00  0.00    +0.021 A 
ATOM     13  C   UNL     1       6.478   1.433   3.406  0.00  0.00    +0.017 A 
BRANCH   4  15
ATOM     14  C   UNL     1      10.142   5.340   1.454  0.00  0.00    +0.218 C 
ATOM     15  S   UNL     1      10.555   3.575   1.400  0.00  0.00    +0.043 S 
ATOM     16  O   UNL     1      11.932   3.385   1.694  0.00  0.00    -0.155 OA
ATOM     17  O   UNL     1       9.968   2.970   0.256  0.00  0.00    -0.155 OA
ENDBRANCH   4  15
ENDBRANCH   2  12
ENDBRANCH   1   2
BRANCH   1  18
ATOM     18  O   UNL     1       2.158   1.594   1.103  0.00  0.00    -0.456 OA
BRANCH  18  19
ATOM     19  C   UNL     1       1.312   1.969   0.130  0.00  0.00    +0.320 C 
ATOM     20  O   UNL     1       1.701   2.679  -0.767  0.00  0.00    -0.250 OA
BRANCH  19  21
ATOM     21  C   UNL     1      -0.121   1.504   0.157  0.00  0.00    +0.165 C 
ATOM     22  C   UNL     1      -0.774   1.980   1.425  0.00  0.00    +0.013 A 
ATOM     23  C   UNL     1      -0.518   1.314   2.611  0.00  0.00    +0.008 A 
ATOM     24  C   UNL     1      -1.109   1.736   3.787  0.00  0.00    +0.001 A 
ATOM     25  C   UNL     1      -1.958   2.827   3.783  0.00  0.00    +0.004 A 
ATOM     26  C   UNL     1      -2.216   3.495   2.603  0.00  0.00    +0.046 A 
ATOM     27  C   UNL     1      -1.623   3.074   1.418  0.00  0.00    +0.133 A 
ATOM     28  O   UNL     1      -1.889   3.743   0.271  0.00  0.00    -0.455 OA
ATOM     29  C   UNL     1      -1.689   3.142  -0.927  0.00  0.00    +0.133 A 
ATOM     30  C   UNL     1      -0.843   2.051  -1.045  0.00  0.00    +0.013 A 
ATOM     31  C   UNL     1      -0.656   1.455  -2.279  0.00  0.00    +0.008 A 
ATOM     32  C   UNL     1      -1.311   1.943  -3.394  0.00  0.00    +0.001 A 
ATOM     33  C   UNL     1      -2.156   3.031  -3.279  0.00  0.00    +0.004 A 
ATOM     34  C   UNL     1      -2.346   3.631  -2.050  0.00  0.00    +0.046 A 
ENDBRANCH  19  21
ENDBRANCH  18  19
ENDBRANCH   1  18
TORSDOF 6
