REMARK  Name = ZINC40799507
REMARK  4 active torsions:
REMARK  status: ('A' for Active; 'I' for Inactive)
REMARK    1  A    between atoms: C_1  and  C_2
REMARK    2  A    between atoms: C_7  and  N_8
REMARK    3  A    between atoms: C_9  and  C_11
REMARK    4  A    between atoms: N_15  and  C_16
REMARK                            x       y       z     vdW  Elec       q    Type
REMARK                         _______ _______ _______ _____ _____    ______ ____
ROOT
ATOM      1  C   UNL     1      -0.539   0.003   4.859  0.00  0.00    +0.106 A 
ATOM      2  C   UNL     1      -0.356  -0.551   6.107  0.00  0.00    +0.048 A 
ATOM      3  C   UNL     1      -0.190   0.493   7.003  0.00  0.00    +0.038 A 
ATOM      4  C   UNL     1      -0.269   1.710   6.315  0.00  0.00    +0.057 A 
ATOM      5  N   UNL     1      -0.482   1.376   4.979  0.00  0.00    -0.333 N 
ATOM      6  C   UNL     1      -0.119   2.864   7.096  0.00  0.00    +0.034 A 
ATOM      7  C   UNL     1       0.087   2.759   8.426  0.00  0.00    +0.048 A 
ATOM      8  S   UNL     1       0.087   0.992   8.683  0.00  0.00    -0.095 S 
ENDROOT
BRANCH   5   9
ATOM      9  C   UNL     1      -0.625   2.331   3.878  0.00  0.00    +0.088 C 
ATOM     10  C   UNL     1      -1.929   2.053   3.103  0.00  0.00    +0.025 C 
ATOM     11  C   UNL     1      -1.559   2.329   1.625  0.00  0.00    +0.002 C 
ATOM     12  C   UNL     1      -0.116   1.777   1.525  0.00  0.00    +0.002 C 
ATOM     13  C   UNL     1       0.528   2.156   2.875  0.00  0.00    +0.025 C 
ENDBRANCH   5   9
BRANCH   1  15
ATOM     14  N   UNL     1      -0.617  -2.080   3.598  0.00  0.00    -0.280 N 
ATOM     15  C   UNL     1      -0.753  -0.739   3.615  0.00  0.00    +0.265 C 
ATOM     16  O   UNL     1      -1.054  -0.145   2.595  0.00  0.00    -0.268 OA
ATOM     17  H   UNL     1      -0.460  -2.562   4.425  0.00  0.00    +0.155 HD
BRANCH  14  24
ATOM     18  C   UNL     1      -1.118  -4.879   3.692  0.00  0.00    +0.046 C 
ATOM     19  C   UNL     1      -0.945  -4.144   2.388  0.00  0.00    -0.028 A 
ATOM     20  C   UNL     1      -1.034  -4.828   1.192  0.00  0.00    +0.025 A 
ATOM     21  C   UNL     1      -0.875  -4.154  -0.006  0.00  0.00    +0.041 A 
ATOM     22  C   UNL     1      -0.626  -2.792  -0.009  0.00  0.00    +0.022 A 
ATOM     23  C   UNL     1      -0.536  -2.103   1.184  0.00  0.00    +0.025 A 
ATOM     24  C   UNL     1      -0.701  -2.776   2.388  0.00  0.00    +0.037 A 
ATOM     25 CL   UNL     1      -0.987  -5.017  -1.508  0.00  0.00    -0.084 Cl
ENDBRANCH  14  24
ENDBRANCH   1  15
TORSDOF 3
