REMARK  Name = ZINC62551018
REMARK  5 active torsions:
REMARK  status: ('A' for Active; 'I' for Inactive)
REMARK    1  A    between atoms: C_1  and  C_2
REMARK    2  A    between atoms: C_8  and  O_25
REMARK    3  A    between atoms: N_12  and  S_13
REMARK    4  A    between atoms: S_13  and  C_16
REMARK    5  A    between atoms: C_20  and  N_22
REMARK                            x       y       z     vdW  Elec       q    Type
REMARK                         _______ _______ _______ _____ _____    ______ ____
ROOT
ATOM      1  C   UNL     1      -0.848   1.428  -0.150  0.00  0.00    +0.044 C 
ATOM      2  C   UNL     1      -0.607  -0.059  -0.116  0.00  0.00    -0.050 A 
ATOM      3  C   UNL     1      -0.600  -0.784  -1.293  0.00  0.00    +0.005 A 
ATOM      4  C   UNL     1      -0.377  -2.146  -1.262  0.00  0.00    +0.025 A 
ATOM      5  C   UNL     1      -0.161  -2.788  -0.047  0.00  0.00    +0.057 A 
ATOM      6  C   UNL     1      -0.171  -2.061   1.133  0.00  0.00    +0.004 A 
ATOM      7  C   UNL     1      -0.387  -0.694   1.091  0.00  0.00    +0.011 A 
ATOM      8  C   UNL     1       0.049  -2.724   2.467  0.00  0.00    +0.148 C 
ATOM      9  C   UNL     1       0.756  -4.067   2.288  0.00  0.00    +0.057 C 
ATOM     10  C   UNL     1      -0.003  -4.891   1.240  0.00  0.00    +0.134 C 
ATOM     11  N   UNL     1       0.068  -4.168  -0.037  0.00  0.00    -0.203 N 
ENDROOT
BRANCH  11  12
ATOM     12  S   UNL     1       0.413  -4.974  -1.442  0.00  0.00    +0.075 S 
ATOM     13  O   UNL     1       1.057  -4.041  -2.298  0.00  0.00    -0.150 OA
ATOM     14  O   UNL     1       1.015  -6.205  -1.067  0.00  0.00    -0.150 OA
BRANCH  12  15
ATOM     15  C   UNL     1      -1.125  -5.378  -2.202  0.00  0.00    +0.111 A 
ATOM     16  C   UNL     1      -1.751  -6.574  -1.904  0.00  0.00    +0.029 A 
ATOM     17  C   UNL     1      -2.957  -6.890  -2.500  0.00  0.00    +0.004 A 
ATOM     18  C   UNL     1      -3.538  -6.010  -3.395  0.00  0.00    +0.033 A 
ATOM     19  C   UNL     1      -2.913  -4.814  -3.692  0.00  0.00    +0.128 A 
ATOM     20  C   UNL     1      -1.708  -4.495  -3.092  0.00  0.00    +0.061 A 
BRANCH  19  21
ATOM     21  N   UNL     1      -3.534  -3.872  -4.650  0.00  0.00    +0.056 N 
ATOM     22  O   UNL     1      -4.588  -4.149  -5.172  0.00  0.00    -0.126 OA
ATOM     23  O   UNL     1      -2.987  -2.825  -4.910  0.00  0.00    -0.126 OA
ENDBRANCH  19  21
ENDBRANCH  12  15
ENDBRANCH  11  12
BRANCH   8  24
ATOM     24  O   UNL     1       0.853  -1.874   3.289  0.00  0.00    -0.387 OA
ATOM     25  H   UNL     1       1.037  -2.236   4.167  0.00  0.00    +0.210 HD
ENDBRANCH   8  24
TORSDOF 4
