REMARK  Name = ZINC04721527
REMARK  6 active torsions:
REMARK  status: ('A' for Active; 'I' for Inactive)
REMARK    1  A    between atoms: C_4  and  C_7
REMARK    2  A    between atoms: C_13  and  C_15
REMARK    3  A    between atoms: N_17  and  N_18
REMARK    4  A    between atoms: C_19  and  C_20
REMARK    5  A    between atoms: C_21  and  C_22
REMARK    6  A    between atoms: C_26  and  N_28
REMARK                            x       y       z     vdW  Elec       q    Type
REMARK                         _______ _______ _______ _____ _____    ______ ____
ROOT
ATOM      1  C   UNL     1       4.441   7.366  -0.098  0.00  0.00    +0.245 C 
ATOM      2  O   UNL     1       4.178   8.496  -0.452  0.00  0.00    -0.273 OA
ATOM      3  N   UNL     1       3.449   6.506   0.205  0.00  0.00    -0.206 N 
ATOM      4  H   UNL     1       3.660   5.603   0.488  0.00  0.00    +0.177 HD
ENDROOT
BRANCH   1  10
ATOM      5  C   UNL     1       6.432   7.201   1.420  0.00  0.00    +0.057 C 
ATOM      6  C   UNL     1       7.088   8.588   1.237  0.00  0.00    +0.113 C 
ATOM      7  N   UNL     1       7.423   8.677  -0.189  0.00  0.00    -0.314 N 
ATOM      8  C   UNL     1       6.754   7.756  -0.909  0.00  0.00    +0.226 C 
ATOM      9  O   UNL     1       6.839   7.612  -2.110  0.00  0.00    -0.275 OA
ATOM     10  C   UNL     1       5.879   6.924   0.003  0.00  0.00    +0.171 C 
ATOM     11  H   UNL     1       8.047   9.317  -0.565  0.00  0.00    +0.149 HD
BRANCH   5  15
ATOM     12  C   UNL     1       3.272   7.368   4.289  0.00  0.00    +0.000 A 
ATOM     13  C   UNL     1       4.126   6.282   4.265  0.00  0.00    +0.000 A 
ATOM     14  C   UNL     1       5.149   6.228   3.337  0.00  0.00    +0.004 A 
ATOM     15  C   UNL     1       5.317   7.260   2.432  0.00  0.00    -0.042 A 
ATOM     16  C   UNL     1       4.465   8.348   2.460  0.00  0.00    +0.004 A 
ATOM     17  C   UNL     1       3.440   8.401   3.386  0.00  0.00    +0.000 A 
ENDBRANCH   5  15
ENDBRANCH   1  10
BRANCH   3  18
ATOM     18  N   UNL     1       2.113   6.918   0.112  0.00  0.00    -0.188 NA
ATOM     19  C   UNL     1       1.154   6.087   0.404  0.00  0.00    +0.130 C 
BRANCH  19  20
ATOM     20  C   UNL     1       1.462   4.766   0.818  0.00  0.00    +0.022 C 
ATOM     21  C   UNL     1       0.469   3.905   1.121  0.00  0.00    +0.009 C 
BRANCH  21  22
ATOM     22  C   UNL     1       0.788   2.534   1.551  0.00  0.00    -0.023 A 
ATOM     23  C   UNL     1       2.121   2.120   1.645  0.00  0.00    +0.008 A 
ATOM     24  C   UNL     1       2.412   0.834   2.048  0.00  0.00    +0.003 A 
ATOM     25  C   UNL     1       1.390  -0.047   2.358  0.00  0.00    +0.033 A 
ATOM     26  C   UNL     1       0.069   0.354   2.261  0.00  0.00    +0.127 A 
ATOM     27  C   UNL     1      -0.238   1.639   1.865  0.00  0.00    +0.040 A 
BRANCH  26  28
ATOM     28  N   UNL     1      -1.017  -0.597   2.589  0.00  0.00    +0.056 N 
ATOM     29  O   UNL     1      -0.747  -1.731   2.943  0.00  0.00    -0.126 OA
ATOM     30  O   UNL     1      -2.180  -0.246   2.504  0.00  0.00    -0.126 OA
ENDBRANCH  26  28
ENDBRANCH  21  22
ENDBRANCH  19  20
ENDBRANCH   3  18
TORSDOF 6
