REMARK  Name = ZINC35345794
REMARK  3 active torsions:
REMARK  status: ('A' for Active; 'I' for Inactive)
REMARK    1  A    between atoms: C_3  and  O_8
REMARK    2  A    between atoms: O_8  and  C_9
REMARK    3  A    between atoms: C_14  and  N_15
REMARK                            x       y       z     vdW  Elec       q    Type
REMARK                         _______ _______ _______ _____ _____    ______ ____
ROOT
ATOM      1  C   UNL     1       4.709   1.402   0.069  0.00  0.00    +0.151 A 
ATOM      2  C   UNL     1       4.681   0.019   0.054  0.00  0.00    +0.071 A 
ATOM      3  C   UNL     1       5.867  -0.707   0.146  0.00  0.00    +0.041 A 
ATOM      4  C   UNL     1       7.071  -0.023   0.251  0.00  0.00    -0.015 A 
ATOM      5  C   UNL     1       7.105   1.354   0.266  0.00  0.00    +0.032 A 
ATOM      6  C   UNL     1       5.924   2.077   0.170  0.00  0.00    +0.068 A 
ATOM      7  C   UNL     1       8.153  -1.076   0.331  0.00  0.00    +0.133 C 
ATOM      8  C   UNL     1       7.399  -2.386   0.257  0.00  0.00    +0.222 C 
ATOM      9  O   UNL     1       7.882  -3.498   0.287  0.00  0.00    -0.275 OA
ATOM     10  N   UNL     1       6.093  -2.086   0.152  0.00  0.00    -0.285 N 
ATOM     11  H   UNL     1       5.389  -2.750   0.088  0.00  0.00    +0.155 HD
ENDROOT
BRANCH   6  12
ATOM     12  N   UNL     1       5.952   3.478   0.178  0.00  0.00    -0.355 N 
ATOM     13  H   UNL     1       5.125   3.980   0.115  0.00  0.00    +0.142 HD
ATOM     14  H   UNL     1       6.799   3.945   0.249  0.00  0.00    +0.142 HD
ENDBRANCH   6  12
BRANCH   1  15
ATOM     15  O   UNL     1       3.548   2.104  -0.021  0.00  0.00    -0.454 OA
BRANCH  15  18
ATOM     16  C   UNL     1       0.390   0.651  -1.094  0.00  0.00    +0.005 A 
ATOM     17  C   UNL     1       1.578   1.356  -1.124  0.00  0.00    +0.046 A 
ATOM     18  C   UNL     1       2.380   1.412   0.007  0.00  0.00    +0.130 A 
ATOM     19  C   UNL     1       1.986   0.758   1.166  0.00  0.00    +0.060 A 
ATOM     20  C   UNL     1       0.797   0.054   1.191  0.00  0.00    +0.017 A 
ATOM     21  C   UNL     1       0.000   0.001   0.062  0.00  0.00    +0.014 A 
ATOM     22  I   UNL     1       0.202  -0.932   2.941  0.00  0.00    -0.044 I 
ENDBRANCH  15  18
ENDBRANCH   1  15
TORSDOF 3
