REMARK  Name = ZINC39710899
REMARK  12 active torsions:
REMARK  status: ('A' for Active; 'I' for Inactive)
REMARK    1  A    between atoms: C_1  and  C_2
REMARK    2  A    between atoms: C_8  and  C_14
REMARK    3  A    between atoms: C_14  and  C_16
REMARK    4  A    between atoms: C_14  and  N_26
REMARK    5  A    between atoms: N_21  and  C_22
REMARK    6  A    between atoms: C_22  and  C_23
REMARK    7  A    between atoms: C_22  and  C_24
REMARK    8  A    between atoms: C_22  and  C_25
REMARK    9  A    between atoms: N_26  and  C_27
REMARK   10  A    between atoms: N_26  and  C_34
REMARK   11  A    between atoms: C_27  and  C_28
REMARK   12  A    between atoms: C_34  and  C_35
REMARK                            x       y       z     vdW  Elec       q    Type
REMARK                         _______ _______ _______ _____ _____    ______ ____
ROOT
ATOM      1  C   UNL     1       0.942  -2.317   4.473  0.00  0.00    -0.008 C 
ENDROOT
BRANCH   1   9
ATOM      2  C   UNL     1       4.275   2.000   7.289  0.00  0.00    +0.045 C 
ATOM      3  C   UNL     1       2.938   2.065   6.596  0.00  0.00    -0.029 A 
ATOM      4  C   UNL     1       2.418   3.271   6.247  0.00  0.00    +0.005 A 
ATOM      5  C   UNL     1       1.187   3.402   5.604  0.00  0.00    +0.001 A 
ATOM      6  C   UNL     1       0.434   2.317   5.290  0.00  0.00    +0.009 A 
ATOM      7  C   UNL     1       0.935   0.986   5.638  0.00  0.00    -0.007 A 
ATOM      8  C   UNL     1       0.213  -0.132   5.342  0.00  0.00    -0.006 C 
ATOM      9  C   UNL     1       0.808  -1.468   5.739  0.00  0.00    +0.088 C 
ATOM     10  C   UNL     1       2.153  -1.453   6.430  0.00  0.00    +0.223 C 
ATOM     11  O   UNL     1       2.677  -2.497   6.770  0.00  0.00    -0.275 OA
ATOM     12  N   UNL     1       2.757  -0.300   6.663  0.00  0.00    -0.284 N 
ATOM     13  C   UNL     1       2.240   0.877   6.311  0.00  0.00    +0.043 A 
ATOM     14  H   UNL     1       3.619  -0.311   7.108  0.00  0.00    +0.155 HD
ENDBRANCH   1   9
BRANCH   1  15
ATOM     15  C   UNL     1       0.915  -3.800   4.848  0.00  0.00    +0.205 C 
ATOM     16  N   UNL     1       2.169  -4.186   5.508  0.00  0.00    -0.152 NA
ATOM     17  N   UNL     1       2.726  -5.053   4.832  0.00  0.00    -0.070 NA
ATOM     18  N   UNL     1       2.010  -5.388   3.683  0.00  0.00    -0.179 N 
ATOM     19  N   UNL     1       0.861  -4.639   3.631  0.00  0.00    -0.183 NA
ATOM     20  H   UNL     1       2.281  -6.046   3.025  0.00  0.00    +0.191 HD
BRANCH  19  21
ATOM     21  C   UNL     1      -0.331  -5.498   3.637  0.00  0.00    +0.035 C 
ATOM     22  C   UNL     1      -1.587  -4.628   3.713  0.00  0.00    +0.029 C 
ATOM     23  C   UNL     1      -0.365  -6.331   2.354  0.00  0.00    +0.029 C 
ATOM     24  C   UNL     1      -0.282  -6.430   4.849  0.00  0.00    +0.029 C 
ENDBRANCH  19  21
ENDBRANCH   1  15
BRANCH   1  25
ATOM     25  N   UNL     1       2.213  -2.005   3.806  0.00  0.00    +0.392 N 
ATOM     26  H   UNL     1       2.975  -2.422   4.319  0.00  0.00    -0.080 HD
BRANCH  25  27
ATOM     27  C   UNL     1       2.396  -0.548   3.758  0.00  0.00    -0.042 C 
BRANCH  27  28
ATOM     28  C   UNL     1       3.786  -0.231   3.270  0.00  0.00    -0.064 A 
ATOM     29  C   UNL     1       4.858  -0.306   4.141  0.00  0.00    +0.002 A 
ATOM     30  C   UNL     1       6.133  -0.015   3.693  0.00  0.00    +0.000 A 
ATOM     31  C   UNL     1       6.337   0.348   2.375  0.00  0.00    +0.000 A 
ATOM     32  C   UNL     1       5.266   0.422   1.504  0.00  0.00    +0.000 A 
ATOM     33  C   UNL     1       3.991   0.127   1.951  0.00  0.00    +0.002 A 
ENDBRANCH  27  28
ENDBRANCH  25  27
BRANCH  25  34
ATOM     34  C   UNL     1       2.193  -2.540   2.438  0.00  0.00    -0.002 C 
BRANCH  34  35
ATOM     35  C   UNL     1       0.916  -2.124   1.754  0.00  0.00    +0.089 A 
ATOM     36  C   UNL     1       0.806  -1.186   0.797  0.00  0.00    +0.042 A 
ATOM     37  C   UNL     1      -0.561  -1.121   0.443  0.00  0.00    +0.041 A 
ATOM     38  C   UNL     1      -1.204  -2.023   1.205  0.00  0.00    +0.195 A 
ATOM     39  O   UNL     1      -0.304  -2.632   1.993  0.00  0.00    -0.470 OA
ENDBRANCH  34  35
ENDBRANCH  25  34
ENDBRANCH   1  25
TORSDOF 8
