REMARK  Name = ZINC04577088
REMARK  4 active torsions:
REMARK  status: ('A' for Active; 'I' for Inactive)
REMARK    1  A    between atoms: N_9  and  C_12
REMARK    2  A    between atoms: C_12  and  C_13
REMARK    3  A    between atoms: N_15  and  C_16
REMARK    4  A    between atoms: C_19  and  N_23
REMARK                            x       y       z     vdW  Elec       q    Type
REMARK                         _______ _______ _______ _____ _____    ______ ____
ROOT
ATOM      1  C   UNL     1       2.427  -0.238   0.078  0.00  0.00    +0.235 C 
ATOM      2  O   UNL     1       1.388  -0.864   0.085  0.00  0.00    -0.274 OA
ATOM      3  N   UNL     1       2.403   1.106  -0.015  0.00  0.00    -0.283 N 
ATOM      4  H   UNL     1       3.233   1.602  -0.086  0.00  0.00    +0.155 HD
ENDROOT
BRANCH   3   5
ATOM      5  C   UNL     1       1.179   1.786  -0.010  0.00  0.00    +0.048 A 
ATOM      6  C   UNL     1       0.064   1.216  -0.608  0.00  0.00    +0.026 A 
ATOM      7  C   UNL     1      -1.141   1.892  -0.607  0.00  0.00    +0.034 A 
ATOM      8  C   UNL     1      -1.239   3.132  -0.001  0.00  0.00    +0.127 A 
ATOM      9  C   UNL     1      -0.130   3.703   0.595  0.00  0.00    +0.049 A 
ATOM     10  C   UNL     1       1.079   3.034   0.593  0.00  0.00    +0.041 A 
ATOM     11 BR   UNL     1       2.596   3.816   1.408  0.00  0.00    -0.048 Br
BRANCH   8  12
ATOM     12  N   UNL     1      -2.532   3.851   0.003  0.00  0.00    +0.056 N 
ATOM     13  O   UNL     1      -2.619   4.945   0.531  0.00  0.00    -0.126 OA
ATOM     14  O   UNL     1      -3.510   3.349  -0.523  0.00  0.00    -0.126 OA
ENDBRANCH   8  12
ENDBRANCH   3   5
BRANCH   1  15
ATOM     15  C   UNL     1       3.744  -0.964   0.175  0.00  0.00    +0.213 C 
BRANCH  15  24
ATOM     16  C   UNL     1       2.772  -6.962  -0.138  0.00  0.00    +0.001 A 
ATOM     17  C   UNL     1       2.724  -6.866   1.240  0.00  0.00    +0.001 A 
ATOM     18  C   UNL     1       2.896  -5.642   1.867  0.00  0.00    +0.014 A 
ATOM     19  C   UNL     1       3.118  -4.506   1.105  0.00  0.00    +0.049 A 
ATOM     20  C   UNL     1       3.167  -4.603  -0.301  0.00  0.00    +0.049 A 
ATOM     21  C   UNL     1       2.993  -5.834  -0.913  0.00  0.00    +0.014 A 
ATOM     22  C   UNL     1       3.415  -3.231  -0.792  0.00  0.00    +0.254 C 
ATOM     23  O   UNL     1       3.523  -2.904  -1.957  0.00  0.00    -0.270 OA
ATOM     24  N   UNL     1       3.502  -2.405   0.266  0.00  0.00    -0.225 N 
ATOM     25  C   UNL     1       3.343  -3.079   1.419  0.00  0.00    +0.254 C 
ATOM     26  O   UNL     1       3.377  -2.596   2.533  0.00  0.00    -0.270 OA
ENDBRANCH  15  24
ENDBRANCH   1  15
TORSDOF 4
