REMARK  Name = ZINC63908257
REMARK  8 active torsions:
REMARK  status: ('A' for Active; 'I' for Inactive)
REMARK    1  A    between atoms: C_7  and  C_10
REMARK    2  A    between atoms: C_10  and  C_11
REMARK    3  A    between atoms: C_11  and  C_12
REMARK    4  A    between atoms: C_12  and  C_13
REMARK    5  A    between atoms: N_15  and  C_16
REMARK    6  A    between atoms: C_16  and  C_17
REMARK    7  A    between atoms: C_20  and  S_23
REMARK    8  A    between atoms: S_23  and  N_26
REMARK                            x       y       z     vdW  Elec       q    Type
REMARK                         _______ _______ _______ _____ _____    ______ ____
ROOT
ATOM      1  C   UNL     1      -0.729  -5.309  -2.876  0.00  0.00    +0.213 C 
ATOM      2  O   UNL     1      -0.183  -4.738  -3.796  0.00  0.00    -0.276 OA
ATOM      3  N   UNL     1      -1.542  -6.356  -3.120  0.00  0.00    -0.311 N 
ATOM      4  H   UNL     1      -1.979  -6.813  -2.385  0.00  0.00    +0.149 HD
ENDROOT
BRANCH   1   5
ATOM      5  C   UNL     1      -0.499  -4.848  -1.460  0.00  0.00    +0.096 C 
BRANCH   5   6
ATOM      6  C   UNL     1       0.457  -3.653  -1.462  0.00  0.00    +0.014 C 
BRANCH   6   7
ATOM      7  C   UNL     1       0.691  -3.186  -0.024  0.00  0.00    +0.033 C 
BRANCH   7  14
ATOM      8  C   UNL     1      -0.016   1.348   0.009  0.00  0.00    +0.001 A 
ATOM      9  C   UNL     1       1.166   2.101   0.002  0.00  0.00    +0.002 A 
ATOM     10  C   UNL     1       2.391   1.535  -0.013  0.00  0.00    +0.026 A 
ATOM     11  C   UNL     1       2.529   0.120  -0.022  0.00  0.00    +0.043 A 
ATOM     12  N   UNL     1       3.587  -0.654  -0.037  0.00  0.00    -0.380 N 
ATOM     13  C   UNL     1       3.143  -2.053  -0.041  0.00  0.00    +0.144 C 
ATOM     14  C   UNL     1       1.631  -2.008  -0.025  0.00  0.00    -0.042 C 
ATOM     15  C   UNL     1       1.295  -0.698  -0.014  0.00  0.00    -0.001 A 
ATOM     16  C   UNL     1       0.002  -0.004   0.002  0.00  0.00    +0.010 A 
ATOM     17  H   UNL     1       4.509  -0.353  -0.045  0.00  0.00    +0.160 HD
ENDBRANCH   7  14
ENDBRANCH   6   7
ENDBRANCH   5   6
ENDBRANCH   1   5
BRANCH   3  18
ATOM     18  C   UNL     1      -1.766  -6.804  -4.497  0.00  0.00    +0.146 C 
BRANCH  18  19
ATOM     19  C   UNL     1      -2.707  -7.981  -4.495  0.00  0.00    +0.001 C 
ATOM     20  C   UNL     1      -3.918  -8.031  -5.015  0.00  0.00    -0.012 C 
ATOM     21  C   UNL     1      -4.711  -9.296  -4.934  0.00  0.00    +0.067 C 
ATOM     22  C   UNL     1      -4.138 -10.235  -3.840  0.00  0.00    +0.213 C 
ATOM     23  S   UNL     1      -2.409  -9.595  -3.797  0.00  0.00    -0.100 S 
BRANCH  22  24
ATOM     24  S   UNL     1      -4.189 -11.972  -4.360  0.00  0.00    +0.040 S 
ATOM     25  O   UNL     1      -5.536 -12.417  -4.448  0.00  0.00    -0.157 OA
ATOM     26  O   UNL     1      -3.283 -12.188  -5.433  0.00  0.00    -0.157 OA
BRANCH  24  27
ATOM     27  N   UNL     1      -3.547 -12.816  -3.088  0.00  0.00    -0.207 NA
ATOM     28  H   UNL     1      -3.248 -12.345  -2.295  0.00  0.00    +0.144 HD
ATOM     29  H   UNL     1      -3.470 -13.782  -3.137  0.00  0.00    +0.144 HD
ENDBRANCH  24  27
ENDBRANCH  22  24
ENDBRANCH  18  19
ENDBRANCH   3  18
TORSDOF 8
