REMARK  Name = ZINC67377955
REMARK  10 active torsions:
REMARK  status: ('A' for Active; 'I' for Inactive)
REMARK    1  A    between atoms: C_1  and  C_2
REMARK    2  A    between atoms: C_4  and  C_7
REMARK    3  A    between atoms: C_7  and  N_13
REMARK    4  A    between atoms: N_13  and  C_14
REMARK    5  A    between atoms: C_14  and  C_15
REMARK    6  A    between atoms: C_22  and  O_24
REMARK    7  A    between atoms: O_24  and  C_25
REMARK    8  A    between atoms: C_25  and  C_26
REMARK    9  A    between atoms: C_25  and  C_27
REMARK   10  A    between atoms: C_25  and  C_28
REMARK                            x       y       z     vdW  Elec       q    Type
REMARK                         _______ _______ _______ _____ _____    ______ ____
ROOT
ATOM      1  N   UNL     1      -0.795  -4.491  -0.018  0.00  0.00    +0.388 N 
ATOM      2  H   UNL     1      -1.415  -5.288  -0.019  0.00  0.00    -0.084 HD
ATOM      3  H   UNL     1      -0.217  -4.513  -0.845  0.00  0.00    -0.084 HD
ENDROOT
BRANCH   1   4
ATOM      4  C   UNL     1      -1.588  -3.254  -0.008  0.00  0.00    -0.004 C 
ATOM      5  C   UNL     1      -2.464  -3.221   1.246  0.00  0.00    -0.005 C 
ATOM      6  C   UNL     1      -3.403  -4.428   1.244  0.00  0.00    -0.001 C 
ATOM      7  C   UNL     1      -4.292  -4.382  -0.001  0.00  0.00    -0.000 C 
ATOM      8  C   UNL     1      -3.416  -4.415  -1.254  0.00  0.00    -0.001 C 
ATOM      9  C   UNL     1      -2.476  -3.208  -1.252  0.00  0.00    -0.005 C 
BRANCH   4  13
ATOM     10  C   UNL     1      -0.018   1.503   0.010  0.00  0.00    +0.112 C 
ATOM     11  C   UNL     1       0.002  -0.004   0.002  0.00  0.00    +0.224 A 
ATOM     12  N   UNL     1      -1.044  -0.783   0.003  0.00  0.00    -0.198 NA
ATOM     13  C   UNL     1      -0.663  -2.065  -0.006  0.00  0.00    +0.161 A 
ATOM     14  N   UNL     1       0.638  -2.118  -0.012  0.00  0.00    -0.063 NA
ATOM     15  O   UNL     1       1.097  -0.774  -0.013  0.00  0.00    -0.338 OA
ENDBRANCH   4  13
ENDBRANCH   1   4
BRANCH   1  16
ATOM     16  C   UNL     1       0.058  -4.536   1.177  0.00  0.00    -0.076 C 
BRANCH  16  17
ATOM     17  C   UNL     1       0.884  -5.824   1.166  0.00  0.00    -0.011 C 
ATOM     18  C   UNL     1       1.861  -5.815   2.344  0.00  0.00    +0.005 C 
ATOM     19  C   UNL     1       2.710  -7.088   2.315  0.00  0.00    +0.019 C 
ATOM     20  C   UNL     1       1.796  -8.309   2.454  0.00  0.00    +0.111 C 
ATOM     21  N   UNL     1       0.763  -8.249   1.411  0.00  0.00    -0.267 N 
ATOM     22  C   UNL     1      -0.051  -7.032   1.291  0.00  0.00    +0.112 C 
ATOM     23  C   UNL     1       0.566  -9.291   0.579  0.00  0.00    +0.403 C 
ATOM     24  O   UNL     1      -0.292  -9.228  -0.280  0.00  0.00    -0.226 OA
BRANCH  23  25
ATOM     25  O   UNL     1       1.319 -10.400   0.699  0.00  0.00    -0.445 OA
BRANCH  25  26
ATOM     26  C   UNL     1       1.056 -11.465  -0.217  0.00  0.00    +0.107 C 
ATOM     27  C   UNL     1       1.274 -10.973  -1.649  0.00  0.00    +0.055 C 
ATOM     28  C   UNL     1       2.002 -12.632   0.072  0.00  0.00    +0.055 C 
ATOM     29  C   UNL     1      -0.393 -11.932  -0.054  0.00  0.00    +0.055 C 
ENDBRANCH  25  26
ENDBRANCH  23  25
ENDBRANCH  16  17
ENDBRANCH   1  16
TORSDOF 6
