REMARK  Name = ZINC03348067
REMARK  6 active torsions:
REMARK  status: ('A' for Active; 'I' for Inactive)
REMARK    1  A    between atoms: C_5  and  C_7
REMARK    2  A    between atoms: C_7  and  C_12
REMARK    3  A    between atoms: C_12  and  O_14
REMARK    4  A    between atoms: O_14  and  C_15
REMARK    5  A    between atoms: C_15  and  C_16
REMARK    6  A    between atoms: N_21  and  C_22
REMARK                            x       y       z     vdW  Elec       q    Type
REMARK                         _______ _______ _______ _____ _____    ______ ____
ROOT
ATOM      1  C   UNL     1       4.802  -4.018   0.248  0.00  0.00    +0.258 C 
ATOM      2  O   UNL     1       3.764  -4.645   0.258  0.00  0.00    -0.272 OA
ATOM      3  N   UNL     1       4.775  -2.673   0.160  0.00  0.00    -0.237 N 
ATOM      4  C   UNL     1       3.595  -2.026   0.083  0.00  0.00    +0.310 C 
ATOM      5  O   UNL     1       2.555  -2.655   0.093  0.00  0.00    -0.252 OA
ATOM      6  N   UNL     1       3.569  -0.682  -0.005  0.00  0.00    -0.269 N 
ATOM      7  H   UNL     1       5.605  -2.171   0.152  0.00  0.00    +0.159 HD
ATOM      8  H   UNL     1       4.398  -0.185  -0.089  0.00  0.00    +0.156 HD
ENDROOT
BRANCH   6   9
ATOM      9  C   UNL     1       2.344  -0.002   0.024  0.00  0.00    +0.038 A 
ATOM     10  C   UNL     1       1.292  -0.498   0.781  0.00  0.00    +0.027 A 
ATOM     11  C   UNL     1       0.084   0.171   0.809  0.00  0.00    +0.051 A 
ATOM     12  C   UNL     1      -0.082   1.341   0.082  0.00  0.00    +0.162 A 
ATOM     13  C   UNL     1       0.971   1.842  -0.675  0.00  0.00    +0.164 A 
ATOM     14  C   UNL     1       2.182   1.169  -0.704  0.00  0.00    +0.072 A 
ATOM     15  O   UNL     1       0.830   2.992  -1.388  0.00  0.00    -0.485 OA
ATOM     16  C   UNL     1      -0.509   3.438  -1.634  0.00  0.00    +0.270 C 
ATOM     17  C   UNL     1      -1.295   3.347  -0.320  0.00  0.00    +0.270 C 
ATOM     18  O   UNL     1      -1.283   1.982   0.115  0.00  0.00    -0.485 OA
ENDBRANCH   6   9
BRANCH   1  19
ATOM     19  C   UNL     1       6.121  -4.742   0.335  0.00  0.00    +0.328 C 
BRANCH  19  20
ATOM     20  O   UNL     1       5.884  -6.171   0.420  0.00  0.00    -0.455 OA
BRANCH  20  21
ATOM     21  C   UNL     1       6.964  -6.964   0.504  0.00  0.00    +0.318 C 
ATOM     22  O   UNL     1       8.070  -6.479   0.506  0.00  0.00    -0.250 OA
BRANCH  21  23
ATOM     23  C   UNL     1       6.796  -8.459   0.597  0.00  0.00    +0.095 C 
ATOM     24  C   UNL     1       6.027  -8.825   1.878  0.00  0.00    +0.023 C 
ATOM     25  C   UNL     1       6.968  -9.716   2.716  0.00  0.00    +0.001 C 
ATOM     26  C   UNL     1       8.387  -9.342   2.220  0.00  0.00    +0.001 C 
ATOM     27  C   UNL     1       8.176  -9.140   0.699  0.00  0.00    +0.023 C 
BRANCH  23  32
ATOM     28  C   UNL     1       5.071  -8.580  -2.760  0.00  0.00    +0.000 A 
ATOM     29  C   UNL     1       4.699  -9.909  -2.833  0.00  0.00    +0.003 A 
ATOM     30  C   UNL     1       5.005 -10.771  -1.797  0.00  0.00    +0.038 A 
ATOM     31  C   UNL     1       5.684 -10.302  -0.685  0.00  0.00    +0.128 A 
ATOM     32  C   UNL     1       6.056  -8.971  -0.613  0.00  0.00    +0.005 A 
ATOM     33  C   UNL     1       5.745  -8.110  -1.648  0.00  0.00    +0.007 A 
ATOM     34  F   UNL     1       5.983 -11.143   0.329  0.00  0.00    -0.205 F 
ENDBRANCH  23  32
ENDBRANCH  21  23
ENDBRANCH  20  21
ENDBRANCH  19  20
ENDBRANCH   1  19
TORSDOF 6
