REMARK  Name = ZINC09779087
REMARK  7 active torsions:
REMARK  status: ('A' for Active; 'I' for Inactive)
REMARK    1  A    between atoms: C_1  and  C_2
REMARK    2  A    between atoms: C_5  and  C_20
REMARK    3  A    between atoms: C_7  and  N_8
REMARK    4  A    between atoms: N_8  and  C_9
REMARK    5  A    between atoms: C_9  and  C_19
REMARK    6  A    between atoms: C_20  and  O_22
REMARK    7  A    between atoms: O_22  and  C_23
REMARK                            x       y       z     vdW  Elec       q    Type
REMARK                         _______ _______ _______ _____ _____    ______ ____
ROOT
ATOM      1  N   UNL     1       0.000  -0.010   2.414  0.00  0.00    -0.317 N 
ATOM      2  H   UNL     1       0.073   0.958   2.416  0.00  0.00    +0.152 HD
ENDROOT
BRANCH   1   3
ATOM      3  C   UNL     1      -0.056  -0.684   3.581  0.00  0.00    +0.022 C 
ATOM      4  C   UNL     1      -1.088  -0.444   4.469  0.00  0.00    +0.116 C 
ATOM      5  C   UNL     1      -2.210   0.447   4.122  0.00  0.00    +0.256 C 
ATOM      6  O   UNL     1      -2.258   0.998   3.038  0.00  0.00    -0.270 OA
ATOM      7  N   UNL     1      -3.182   0.635   5.038  0.00  0.00    -0.263 N 
ATOM      8  C   UNL     1      -3.142   0.034   6.236  0.00  0.00    +0.143 C 
ATOM      9  S   UNL     1      -4.420   0.332   7.335  0.00  0.00    -0.018 S 
ATOM     10  N   UNL     1      -2.154  -0.787   6.618  0.00  0.00    -0.263 N 
ATOM     11  C   UNL     1      -1.118  -1.073   5.802  0.00  0.00    +0.256 C 
ATOM     12  O   UNL     1      -0.230  -1.824   6.159  0.00  0.00    -0.270 OA
ATOM     13  C   UNL     1       1.006  -1.700   3.917  0.00  0.00    +0.061 C 
ATOM     14  H   UNL     1      -3.927   1.218   4.826  0.00  0.00    +0.157 HD
ATOM     15  H   UNL     1      -2.186  -1.189   7.501  0.00  0.00    +0.157 HD
ENDBRANCH   1   3
BRANCH   1  22
ATOM     16  C   UNL     1       0.399   1.459   0.014  0.00  0.00    +0.045 C 
ATOM     17  C   UNL     1       0.144  -0.026   0.004  0.00  0.00    -0.029 A 
ATOM     18  C   UNL     1       0.104  -0.710  -1.197  0.00  0.00    +0.006 A 
ATOM     19  C   UNL     1      -0.130  -2.070  -1.215  0.00  0.00    +0.015 A 
ATOM     20  C   UNL     1      -0.327  -2.760  -0.017  0.00  0.00    +0.061 A 
ATOM     21  C   UNL     1      -0.287  -2.071   1.195  0.00  0.00    +0.038 A 
ATOM     22  C   UNL     1      -0.046  -0.705   1.202  0.00  0.00    +0.035 A 
BRANCH  20  23
ATOM     23  C   UNL     1      -0.579  -4.216  -0.033  0.00  0.00    +0.339 C 
ATOM     24  O   UNL     1      -0.750  -4.814   1.010  0.00  0.00    -0.245 OA
BRANCH  23  25
ATOM     25  O   UNL     1      -0.617  -4.880  -1.205  0.00  0.00    -0.464 OA
ATOM     26  C   UNL     1      -0.865  -6.286  -1.146  0.00  0.00    +0.280 C 
ENDBRANCH  23  25
ENDBRANCH  20  23
ENDBRANCH   1  22
TORSDOF 4
