REMARK  Name = ZINC63647064
REMARK  4 active torsions:
REMARK  status: ('A' for Active; 'I' for Inactive)
REMARK    1  A    between atoms: C_1  and  C_2
REMARK    2  A    between atoms: C_7  and  C_13
REMARK    3  A    between atoms: C_13  and  S_14
REMARK    4  A    between atoms: S_14  and  C_15
REMARK                            x       y       z     vdW  Elec       q    Type
REMARK                         _______ _______ _______ _____ _____    ______ ____
ROOT
ATOM      1  C   UNL     1      -0.018   1.503   0.010  0.00  0.00    +0.088 C 
ATOM      2  C   UNL     1       0.002  -0.004   0.002  0.00  0.00    +0.127 C 
ATOM      3  C   UNL     1      -1.084  -0.759   0.003  0.00  0.00    +0.061 C 
ATOM      4  C   UNL     1      -0.617  -2.200   0.010  0.00  0.00    +0.228 C 
ATOM      5  N   UNL     1      -1.295  -2.966  -1.047  0.00  0.00    -0.323 N 
ATOM      6  C   UNL     1      -0.638  -4.047  -1.583  0.00  0.00    +0.021 C 
ATOM      7  C   UNL     1       0.709  -4.085  -1.631  0.00  0.00    +0.089 C 
ATOM      8  C   UNL     1       1.466  -3.000  -1.101  0.00  0.00    +0.274 C 
ATOM      9  O   UNL     1       2.674  -2.935  -1.252  0.00  0.00    -0.268 OA
ATOM     10  N   UNL     1       0.800  -2.054  -0.413  0.00  0.00    -0.107 N 
ATOM     11  O   UNL     1       1.137  -0.748  -0.013  0.00  0.00    -0.385 OA
ATOM     12  H   UNL     1      -2.180  -2.715  -1.356  0.00  0.00    +0.148 HD
ENDROOT
BRANCH   6  13
ATOM     13  C   UNL     1      -1.434  -5.207  -2.125  0.00  0.00    +0.128 C 
BRANCH  13  14
ATOM     14  S   UNL     1      -2.096  -6.182  -0.746  0.00  0.00    -0.081 S 
BRANCH  14  15
ATOM     15  C   UNL     1      -2.989  -7.481  -1.533  0.00  0.00    +0.184 A 
ATOM     16  H   UNL     1      -3.744  -8.611   0.045  0.00  0.00    +0.191 HD
ATOM     17  N   UNL     1      -3.115  -7.660  -2.832  0.00  0.00    -0.209 NA
ATOM     18  C   UNL     1      -3.857  -8.742  -3.066  0.00  0.00    +0.245 A 
ATOM     19  N   UNL     1      -4.215  -9.271  -1.927  0.00  0.00    -0.160 NA
ATOM     20  N   UNL     1      -3.660  -8.476  -0.912  0.00  0.00    -0.254 N 
ENDBRANCH  14  15
ENDBRANCH  13  14
ENDBRANCH   6  13
TORSDOF 3
