REMARK  Name = ZINC56806572
REMARK  5 active torsions:
REMARK  status: ('A' for Active; 'I' for Inactive)
REMARK    1  A    between atoms: C_1  and  C_2
REMARK    2  A    between atoms: C_2  and  O_3
REMARK    3  A    between atoms: O_3  and  C_4
REMARK    4  A    between atoms: N_14  and  C_15
REMARK    5  A    between atoms: N_24  and  C_26
REMARK                            x       y       z     vdW  Elec       q    Type
REMARK                         _______ _______ _______ _____ _____    ______ ____
ROOT
ATOM      1  C   UNL     1      -1.499  -1.832   0.007  0.00  0.00    +0.403 C 
ATOM      2  O   UNL     1      -0.525  -2.559  -0.002  0.00  0.00    -0.226 OA
ATOM      3  N   UNL     1      -2.737  -2.364   0.016  0.00  0.00    -0.264 N 
ATOM      4  C   UNL     1      -3.924  -1.496   0.021  0.00  0.00    +0.130 C 
ATOM      5  C   UNL     1      -4.815  -1.879  -1.167  0.00  0.00    +0.128 C 
ATOM      6  N   UNL     1      -5.003  -3.337  -1.163  0.00  0.00    -0.283 N 
ATOM      7  C   UNL     1      -3.816  -4.204  -1.167  0.00  0.00    +0.128 C 
ATOM      8  C   UNL     1      -2.925  -3.821   0.015  0.00  0.00    +0.130 C 
ATOM      9  C   UNL     1      -6.241  -3.869  -1.154  0.00  0.00    +0.303 C 
ATOM     10  O   UNL     1      -7.213  -3.145  -1.054  0.00  0.00    -0.253 OA
ATOM     11  N   UNL     1      -6.402  -5.203  -1.256  0.00  0.00    -0.296 N 
ATOM     12  H   UNL     1      -5.627  -5.786  -1.263  0.00  0.00    +0.151 HD
ENDROOT
BRANCH  11  13
ATOM     13  C   UNL     1      -7.745  -5.772  -1.356  0.00  0.00    +0.077 C 
ATOM     14  C   UNL     1      -8.336  -5.999   0.037  0.00  0.00    -0.007 C 
ATOM     15  C   UNL     1      -7.427  -6.910   0.849  0.00  0.00    +0.003 C 
ATOM     16  C   UNL     1      -7.140  -8.233   0.157  0.00  0.00    +0.001 C 
ATOM     17  C   UNL     1      -6.772  -8.077  -1.310  0.00  0.00    +0.003 C 
ATOM     18  C   UNL     1      -7.700  -7.130  -2.059  0.00  0.00    -0.007 C 
ATOM     19  C   UNL     1      -9.110  -7.694  -2.168  0.00  0.00    -0.073 C 
ATOM     20  N   UNL     1      -9.784  -7.804  -0.878  0.00  0.00    +0.382 N 
ATOM     21  C   UNL     1      -9.740  -6.575  -0.093  0.00  0.00    -0.073 C 
ATOM     22  H   UNL     1      -9.402  -8.572  -0.348  0.00  0.00    -0.081 HD
BRANCH  20  23
ATOM     23  C   UNL     1     -11.193  -8.134  -1.128  0.00  0.00    -0.069 C 
ATOM     24  C   UNL     1     -11.782  -9.331  -0.378  0.00  0.00    -0.017 C 
ATOM     25  C   UNL     1     -11.493  -9.434  -1.877  0.00  0.00    -0.017 C 
ENDBRANCH  20  23
ENDBRANCH  11  13
BRANCH   1  26
ATOM     26  O   UNL     1      -1.341  -0.494   0.009  0.00  0.00    -0.451 OA
BRANCH  26  28
ATOM     27  C   UNL     1      -0.021   1.530   0.002  0.00  0.00    +0.048 C 
ATOM     28  C   UNL     1       0.000   0.000  -0.001  0.00  0.00    +0.230 C 
ENDBRANCH  26  28
ENDBRANCH   1  26
TORSDOF 4
