REMARK  Name = ZINC22893657
REMARK  3 active torsions:
REMARK  status: ('A' for Active; 'I' for Inactive)
REMARK    1  A    between atoms: N_12  and  C_13
REMARK    2  A    between atoms: C_13  and  C_14
REMARK    3  A    between atoms: C_14  and  C_15
REMARK                            x       y       z     vdW  Elec       q    Type
REMARK                         _______ _______ _______ _____ _____    ______ ____
ROOT
ATOM      1  C   UNL     1      -0.017   1.372   0.010  0.00  0.00    +0.001 A 
ATOM      2  C   UNL     1       1.160   2.101   0.002  0.00  0.00    +0.002 A 
ATOM      3  C   UNL     1       2.376   1.433  -0.013  0.00  0.00    +0.030 A 
ATOM      4  C   UNL     1       2.397   0.069  -0.021  0.00  0.00    +0.123 A 
ATOM      5  C   UNL     1       1.223  -0.696  -0.013  0.00  0.00    +0.043 A 
ATOM      6  C   UNL     1       0.002  -0.004   0.002  0.00  0.00    +0.013 A 
ATOM      7  C   UNL     1       1.502  -2.140  -0.024  0.00  0.00    +0.150 C 
ATOM      8  N   UNL     1       2.731  -2.547  -0.038  0.00  0.00    -0.113 NA
ATOM      9  S   UNL     1       3.671  -1.162  -0.039  0.00  0.00    +0.101 S 
ATOM     10  O   UNL     1       4.328  -1.087  -1.297  0.00  0.00    -0.146 OA
ATOM     11  O   UNL     1       4.352  -1.100   1.206  0.00  0.00    -0.146 OA
ATOM     12  N   UNL     1       0.467  -3.050  -0.018  0.00  0.00    -0.327 N 
ATOM     13  H   UNL     1      -0.452  -2.739  -0.008  0.00  0.00    +0.148 HD
ENDROOT
BRANCH  12  14
ATOM     14  C   UNL     1       0.754  -4.486  -0.029  0.00  0.00    +0.111 C 
BRANCH  14  15
ATOM     15  C   UNL     1      -0.560  -5.269  -0.020  0.00  0.00    +0.095 C 
BRANCH  15  16
ATOM     16  C   UNL     1      -0.265  -6.747  -0.031  0.00  0.00    +0.139 A 
ATOM     17  N   UNL     1      -0.118  -7.498  -1.091  0.00  0.00    -0.134 NA
ATOM     18  N   UNL     1       0.127  -8.714  -0.746  0.00  0.00    -0.129 NA
ATOM     19  C   UNL     1       0.149  -8.802   0.574  0.00  0.00    +0.161 A 
ATOM     20  N   UNL     1      -0.096  -7.542   1.061  0.00  0.00    -0.286 N 
ATOM     21  C   UNL     1      -0.130  -7.314   2.405  0.00  0.00    +0.094 A 
ATOM     22  C   UNL     1       0.080  -8.324   3.276  0.00  0.00    +0.018 A 
ATOM     23  C   UNL     1       0.336  -9.624   2.808  0.00  0.00    +0.005 A 
ATOM     24  C   UNL     1       0.365  -9.867   1.470  0.00  0.00    +0.048 A 
ENDBRANCH  15  16
ENDBRANCH  14  15
ENDBRANCH  12  14
TORSDOF 3
