REMARK  Name = ZINC36252295
REMARK  9 active torsions:
REMARK  status: ('A' for Active; 'I' for Inactive)
REMARK    1  A    between atoms: C_1  and  C_2
REMARK    2  A    between atoms: C_3  and  C_7
REMARK    3  A    between atoms: C_10  and  S_15
REMARK    4  A    between atoms: N_11  and  C_12
REMARK    5  A    between atoms: C_12  and  C_13
REMARK    6  A    between atoms: S_15  and  C_16
REMARK    7  A    between atoms: C_16  and  C_17
REMARK    8  A    between atoms: C_20  and  C_30
REMARK    9  A    between atoms: C_23  and  C_25
REMARK                            x       y       z     vdW  Elec       q    Type
REMARK                         _______ _______ _______ _____ _____    ______ ____
ROOT
ATOM      1  C   UNL     1      -8.688   0.454  -0.928  0.00  0.00    +0.246 C 
ATOM      2  O   UNL     1      -9.076  -0.682  -1.101  0.00  0.00    -0.273 OA
ATOM      3  N   UNL     1      -9.556   1.482  -1.011  0.00  0.00    -0.181 N 
ATOM      4  C   UNL     1     -10.995   1.367  -1.296  0.00  0.00    +0.173 C 
ATOM      5  C   UNL     1     -11.488   2.828  -1.271  0.00  0.00    +0.090 C 
ATOM      6  C   UNL     1     -10.241   3.628  -0.967  0.00  0.00    +0.075 C 
ATOM      7  N   UNL     1      -9.237   2.827  -0.834  0.00  0.00    -0.180 NA
ENDROOT
BRANCH   6   8
ATOM      8  C   UNL     1     -10.184   5.088  -0.837  0.00  0.00    +0.035 A 
ATOM      9  C   UNL     1      -9.094   5.897  -0.568  0.00  0.00    +0.017 A 
ATOM     10  C   UNL     1      -9.292   7.256  -0.493  0.00  0.00    +0.008 A 
ATOM     11  C   UNL     1     -10.540   7.758  -0.685  0.00  0.00    +0.046 A 
ATOM     12  S   UNL     1     -11.499   6.285  -0.992  0.00  0.00    -0.095 S 
ENDBRANCH   6   8
BRANCH   4  13
ATOM     13  C   UNL     1     -11.218   0.752  -2.653  0.00  0.00    +0.128 A 
ATOM     14  C   UNL     1     -12.189  -0.125  -2.969  0.00  0.00    +0.046 A 
ATOM     15  C   UNL     1     -12.028  -0.437  -4.338  0.00  0.00    +0.041 A 
ATOM     16  C   UNL     1     -10.970   0.267  -4.777  0.00  0.00    +0.195 A 
ATOM     17  O   UNL     1     -10.487   0.990  -3.754  0.00  0.00    -0.466 OA
ENDBRANCH   4  13
BRANCH   1  18
ATOM     18  C   UNL     1      -7.236   0.716  -0.622  0.00  0.00    +0.175 C 
BRANCH  18  19
ATOM     19  S   UNL     1      -6.334  -0.857  -0.580  0.00  0.00    -0.077 S 
BRANCH  19  23
ATOM     20  C   UNL     1      -2.530  -0.417   0.202  0.00  0.00    +0.168 A 
ATOM     21  N   UNL     1      -2.974   0.818   0.221  0.00  0.00    -0.128 NA
ATOM     22  N   UNL     1      -4.236   0.836  -0.025  0.00  0.00    -0.122 NA
ATOM     23  C   UNL     1      -4.675  -0.387  -0.215  0.00  0.00    +0.193 A 
ATOM     24  N   UNL     1      -3.604  -1.227  -0.083  0.00  0.00    -0.298 N 
BRANCH  20  27
ATOM     25  C   UNL     1      -0.658   0.521   2.536  0.00  0.00    +0.087 C 
ATOM     26  C   UNL     1      -0.312  -0.459   1.444  0.00  0.00    +0.112 A 
ATOM     27  C   UNL     1      -1.137  -0.854   0.438  0.00  0.00    +0.060 A 
ATOM     28  C   UNL     1      -0.359  -1.805  -0.365  0.00  0.00    +0.053 A 
ATOM     29  C   UNL     1       0.845  -1.891   0.225  0.00  0.00    +0.196 A 
ATOM     30  O   UNL     1       0.866  -1.084   1.297  0.00  0.00    -0.467 OA
ENDBRANCH  20  27
BRANCH  24  31
ATOM     31  C   UNL     1      -3.602  -2.686  -0.215  0.00  0.00    +0.152 C 
BRANCH  31  32
ATOM     32  C   UNL     1      -3.752  -3.314   1.146  0.00  0.00    -0.013 C 
ATOM     33  C   UNL     1      -4.718  -4.171   1.370  0.00  0.00    +0.005 C 
ENDBRANCH  31  32
ENDBRANCH  24  31
ENDBRANCH  19  23
ENDBRANCH  18  19
ENDBRANCH   1  18
TORSDOF 8
