REMARK  Name = ZINC14464262
REMARK  4 active torsions:
REMARK  status: ('A' for Active; 'I' for Inactive)
REMARK    1  A    between atoms: C_1  and  C_2
REMARK    2  A    between atoms: C_2  and  N_3
REMARK    3  A    between atoms: C_4  and  C_6
REMARK    4  A    between atoms: C_13  and  C_22
REMARK                            x       y       z     vdW  Elec       q    Type
REMARK                         _______ _______ _______ _____ _____    ______ ____
ROOT
ATOM      1  C   UNL     1       1.260  -0.467  -0.297  0.00  0.00    +0.058 A 
ATOM      2  C   UNL     1       2.404   0.328  -0.311  0.00  0.00    +0.015 A 
ATOM      3  C   UNL     1       2.297   1.696  -0.190  0.00  0.00    +0.001 A 
ATOM      4  C   UNL     1       1.048   2.279  -0.047  0.00  0.00    +0.006 A 
ATOM      5  C   UNL     1      -0.093   1.508  -0.022  0.00  0.00    -0.019 A 
ATOM      6  C   UNL     1      -0.015   0.119  -0.158  0.00  0.00    +0.044 A 
ATOM      7  N   UNL     1      -1.115  -0.723  -0.187  0.00  0.00    -0.336 N 
ATOM      8  C   UNL     1      -2.429  -0.109   0.060  0.00  0.00    +0.105 C 
ATOM      9  C   UNL     1      -2.435   1.231  -0.645  0.00  0.00    +0.029 C 
ATOM     10  C   UNL     1      -1.432   2.108   0.169  0.00  0.00    +0.049 C 
ATOM     11  C   UNL     1      -1.763   3.487  -0.266  0.00  0.00    -0.023 C 
ATOM     12  C   UNL     1      -3.044   3.523  -0.616  0.00  0.00    -0.030 C 
ATOM     13  C   UNL     1      -3.664   2.131  -0.472  0.00  0.00    +0.033 C 
ATOM     14  H   UNL     1      -1.126  -1.274  -1.032  0.00  0.00    +0.147 HD
ENDROOT
BRANCH   8  15
ATOM     15  C   UNL     1      -3.519  -0.989  -0.497  0.00  0.00    -0.019 A 
ATOM     16  C   UNL     1      -4.126  -0.665  -1.671  0.00  0.00    +0.006 A 
ATOM     17  C   UNL     1      -5.131  -1.470  -2.205  0.00  0.00    +0.001 A 
ATOM     18  C   UNL     1      -5.543  -2.596  -1.561  0.00  0.00    +0.008 A 
ATOM     19  C   UNL     1      -4.944  -2.959  -0.343  0.00  0.00    -0.018 A 
ATOM     20  C   UNL     1      -3.917  -2.144   0.196  0.00  0.00    -0.013 A 
ATOM     21  C   UNL     1      -3.319  -2.507   1.415  0.00  0.00    +0.009 A 
ATOM     22  C   UNL     1      -3.731  -3.633   2.059  0.00  0.00    +0.001 A 
ATOM     23  C   UNL     1      -4.741  -4.434   1.528  0.00  0.00    +0.001 A 
ATOM     24  C   UNL     1      -5.344  -4.114   0.351  0.00  0.00    +0.008 A 
ENDBRANCH   8  15
BRANCH   1  26
ATOM     25  N   UNL     1       2.599  -2.495  -0.561  0.00  0.00    -0.312 N 
ATOM     26  C   UNL     1       1.382  -1.931  -0.428  0.00  0.00    +0.246 C 
ATOM     27  O   UNL     1       0.386  -2.628  -0.415  0.00  0.00    -0.270 OA
ATOM     28  H   UNL     1       3.393  -1.939  -0.571  0.00  0.00    +0.149 HD
BRANCH  25  30
ATOM     29  C   UNL     1       4.197  -4.327  -0.826  0.00  0.00    +0.024 C 
ATOM     30  C   UNL     1       2.721  -3.950  -0.691  0.00  0.00    +0.101 C 
ENDBRANCH  25  30
ENDBRANCH   1  26
TORSDOF 3
