REMARK  Name = ZINC40151219
REMARK  9 active torsions:
REMARK  status: ('A' for Active; 'I' for Inactive)
REMARK    1  A    between atoms: C_5  and  C_7
REMARK    2  A    between atoms: N_9  and  N_10
REMARK    3  A    between atoms: C_11  and  C_12
REMARK    4  A    between atoms: C_11  and  C_24
REMARK    5  A    between atoms: C_24  and  C_26
REMARK    6  A    between atoms: C_24  and  O_31
REMARK    7  A    between atoms: C_26  and  C_28
REMARK    8  A    between atoms: C_26  and  O_30
REMARK    9  A    between atoms: C_28  and  O_29
REMARK                            x       y       z     vdW  Elec       q    Type
REMARK                         _______ _______ _______ _____ _____    ______ ____
ROOT
ATOM      1  N   UNL     1       0.097  -4.314  -0.211  0.00  0.00    -0.184 NA
ATOM      2  C   UNL     1      -0.957  -4.921   0.190  0.00  0.00    +0.099 C 
ENDROOT
BRANCH   2   3
ATOM      3  C   UNL     1      -2.281  -4.201   0.208  0.00  0.00    +0.215 C 
ATOM      4  C   UNL     1      -2.867  -4.280  -1.183  0.00  0.00    +0.245 C 
ATOM      5  O   UNL     1      -3.071  -5.358  -1.705  0.00  0.00    -0.273 OA
ATOM      6  N   UNL     1      -3.159  -3.150  -1.830  0.00  0.00    -0.282 N 
ATOM      7  C   UNL     1      -2.947  -1.964  -1.284  0.00  0.00    +0.057 A 
ATOM      8  C   UNL     1      -3.268  -0.787  -1.997  0.00  0.00    +0.025 A 
ATOM      9  C   UNL     1      -3.053   0.430  -1.444  0.00  0.00    +0.002 A 
ATOM     10  C   UNL     1      -2.511   0.595  -0.158  0.00  0.00    +0.002 A 
ATOM     11  C   UNL     1      -2.170  -0.464   0.609  0.00  0.00    +0.027 A 
ATOM     12  C   UNL     1      -2.374  -1.822   0.078  0.00  0.00    +0.058 A 
ATOM     13  N   UNL     1      -2.057  -2.866   0.786  0.00  0.00    -0.368 N 
ATOM     14  H   UNL     1      -3.535  -3.199  -2.723  0.00  0.00    +0.155 HD
ATOM     15  H   UNL     1      -1.683  -2.767   1.675  0.00  0.00    +0.161 HD
ENDBRANCH   2   3
BRANCH   1  18
ATOM     16  C   UNL     1       1.104  -2.364  -1.133  0.00  0.00    +0.265 C 
ATOM     17  O   UNL     1       2.200  -2.846  -0.921  0.00  0.00    -0.268 OA
ATOM     18  N   UNL     1      -0.009  -3.060  -0.826  0.00  0.00    -0.203 N 
ATOM     19  H   UNL     1      -0.882  -2.692  -1.031  0.00  0.00    +0.178 HD
BRANCH  16  24
ATOM     20  C   UNL     1      -0.358   0.759  -2.618  0.00  0.00    +0.001 A 
ATOM     21  C   UNL     1       0.782   1.512  -2.840  0.00  0.00    +0.001 A 
ATOM     22  C   UNL     1       2.027   1.008  -2.509  0.00  0.00    +0.021 A 
ATOM     23  C   UNL     1       2.140  -0.252  -1.953  0.00  0.00    +0.053 A 
ATOM     24  C   UNL     1       0.992  -1.016  -1.726  0.00  0.00    +0.057 A 
ATOM     25  C   UNL     1      -0.261  -0.500  -2.063  0.00  0.00    +0.014 A 
ATOM     26 CL   UNL     1       3.703  -0.883  -1.538  0.00  0.00    -0.083 Cl
ENDBRANCH  16  24
ENDBRANCH   1  18
BRANCH   2  27
ATOM     27  C   UNL     1      -0.874  -6.356   0.643  0.00  0.00    +0.193 C 
BRANCH  27  28
ATOM     28  O   UNL     1      -1.300  -6.451   2.004  0.00  0.00    -0.383 OA
ATOM     29  H   UNL     1      -2.209  -6.157   2.152  0.00  0.00    +0.210 HD
ENDBRANCH  27  28
BRANCH  27  30
ATOM     30  C   UNL     1       0.572  -6.845   0.526  0.00  0.00    +0.174 C 
BRANCH  30  31
ATOM     31  O   UNL     1       0.998  -6.749  -0.834  0.00  0.00    -0.387 OA
ATOM     32  H   UNL     1       0.469  -7.274  -1.450  0.00  0.00    +0.210 HD
ENDBRANCH  30  31
BRANCH  30  33
ATOM     33  C   UNL     1       0.656  -8.301   0.987  0.00  0.00    +0.190 C 
BRANCH  33  34
ATOM     34  O   UNL     1       2.022  -8.722   0.988  0.00  0.00    -0.392 OA
ATOM     35  H   UNL     1       2.151  -9.638   1.270  0.00  0.00    +0.210 HD
ENDBRANCH  33  34
ENDBRANCH  30  33
ENDBRANCH  27  30
ENDBRANCH   2  27
TORSDOF 9
