REMARK  Name = ZINC37920802
REMARK  6 active torsions:
REMARK  status: ('A' for Active; 'I' for Inactive)
REMARK    1  A    between atoms: C_1  and  C_2
REMARK    2  A    between atoms: C_3  and  C_9
REMARK    3  A    between atoms: N_5  and  C_7
REMARK    4  A    between atoms: C_10  and  C_11
REMARK    5  A    between atoms: N_13  and  C_14
REMARK    6  A    between atoms: C_14  and  C_15
REMARK                            x       y       z     vdW  Elec       q    Type
REMARK                         _______ _______ _______ _____ _____    ______ ____
ROOT
ATOM      1  C   UNL     1       0.882  -0.439  -4.772  0.00  0.00    +0.237 C 
ATOM      2  O   UNL     1       0.061   0.382  -5.139  0.00  0.00    -0.271 OA
ATOM      3  N   UNL     1       1.779  -0.933  -5.648  0.00  0.00    -0.305 N 
ATOM      4  H   UNL     1       2.433  -1.587  -5.355  0.00  0.00    +0.149 HD
ENDROOT
BRANCH   1   6
ATOM      5  C   UNL     1      -0.005  -0.378  -2.545  0.00  0.00    +0.018 C 
ATOM      6  C   UNL     1       0.894  -0.874  -3.423  0.00  0.00    +0.068 C 
BRANCH   5   9
ATOM      7  C   UNL     1      -0.018   1.503   0.010  0.00  0.00    +0.068 C 
ATOM      8  C   UNL     1       0.002  -0.004   0.002  0.00  0.00    +0.069 A 
ATOM      9  C   UNL     1       0.008  -0.829  -1.147  0.00  0.00    +0.034 A 
ATOM     10  C   UNL     1       0.028  -2.142  -0.706  0.00  0.00    +0.134 A 
ATOM     11  N   UNL     1       0.034  -2.112   0.638  0.00  0.00    -0.255 N 
ATOM     12  N   UNL     1       0.023  -0.776   1.053  0.00  0.00    -0.175 NA
ATOM     13  C   UNL     1       0.053  -3.281   1.520  0.00  0.00    +0.174 C 
ATOM     14 CL   UNL     1       0.042  -3.562  -1.704  0.00  0.00    -0.062 Cl
ENDBRANCH   5   9
ENDBRANCH   1   6
BRANCH   3  15
ATOM     15  C   UNL     1       1.766  -0.484  -7.042  0.00  0.00    +0.182 C 
BRANCH  15  16
ATOM     16  C   UNL     1       2.861  -1.184  -7.806  0.00  0.00    +0.168 A 
ATOM     17  N   UNL     1       2.736  -2.343  -8.450  0.00  0.00    -0.218 NA
ATOM     18  H   UNL     1       5.696  -1.668  -9.000  0.00  0.00    +0.190 HD
ATOM     19  C   UNL     1       3.875  -2.667  -9.006  0.00  0.00    +0.216 A 
ATOM     20  N   UNL     1       4.767  -1.702  -8.723  0.00  0.00    -0.265 N 
ATOM     21  N   UNL     1       4.085  -0.749  -7.949  0.00  0.00    -0.156 NA
ENDBRANCH  15  16
ENDBRANCH   3  15
TORSDOF 4
