REMARK  Name = ZINC13810636
REMARK  7 active torsions:
REMARK  status: ('A' for Active; 'I' for Inactive)
REMARK    1  A    between atoms: C_1  and  C_2
REMARK    2  A    between atoms: C_6  and  N_8
REMARK    3  A    between atoms: C_11  and  C_21
REMARK    4  A    between atoms: C_15  and  C_16
REMARK    5  A    between atoms: C_15  and  C_18
REMARK    6  A    between atoms: C_21  and  C_22
REMARK    7  A    between atoms: C_26  and  N_28
REMARK                            x       y       z     vdW  Elec       q    Type
REMARK                         _______ _______ _______ _____ _____    ______ ____
ROOT
ATOM      1  N   UNL     1      -3.875   2.909   0.159  0.00  0.00    -0.232 N 
ATOM      2  C   UNL     1      -4.961   3.335   0.780  0.00  0.00    +0.238 C 
ATOM      3  O   UNL     1      -5.032   4.443   1.267  0.00  0.00    -0.274 OA
ATOM      4  C   UNL     1      -6.115   2.347   0.847  0.00  0.00    +0.143 C 
ATOM      5  S   UNL     1      -5.379   0.924  -0.051  0.00  0.00    -0.095 S 
ATOM      6  C   UNL     1      -3.786   1.654  -0.395  0.00  0.00    +0.098 C 
ATOM      7  C   UNL     1      -2.706   1.087  -1.072  0.00  0.00    +0.141 C 
ENDROOT
BRANCH   1  13
ATOM      8  C   UNL     1      -1.610   6.646  -2.096  0.00  0.00    +0.044 C 
ATOM      9  C   UNL     1      -1.649   5.589  -1.024  0.00  0.00    -0.049 A 
ATOM     10  C   UNL     1      -0.597   5.466  -0.135  0.00  0.00    +0.003 A 
ATOM     11  C   UNL     1      -0.629   4.497   0.850  0.00  0.00    +0.002 A 
ATOM     12  C   UNL     1      -1.714   3.647   0.950  0.00  0.00    +0.024 A 
ATOM     13  C   UNL     1      -2.773   3.769   0.060  0.00  0.00    +0.042 A 
ATOM     14  C   UNL     1      -2.735   4.740  -0.931  0.00  0.00    +0.027 A 
ENDBRANCH   1  13
BRANCH   7  15
ATOM     15  C   UNL     1      -1.529   1.897  -1.381  0.00  0.00    +0.254 C 
ATOM     16  O   UNL     1      -0.550   1.849  -0.658  0.00  0.00    -0.270 OA
ATOM     17  N   UNL     1      -1.527   2.697  -2.466  0.00  0.00    -0.325 N 
ATOM     18  H   UNL     1      -2.306   2.734  -3.042  0.00  0.00    +0.145 HD
ATOM     19  H   UNL     1      -0.747   3.237  -2.669  0.00  0.00    +0.145 HD
ENDBRANCH   7  15
BRANCH   7  20
ATOM     20  C   UNL     1      -2.751  -0.290  -1.465  0.00  0.00    +0.107 C 
ATOM     21  N   UNL     1      -2.787  -1.382  -1.777  0.00  0.00    -0.191 NA
ENDBRANCH   7  20
BRANCH   4  22
ATOM     22  C   UNL     1      -7.346   2.883   0.115  0.00  0.00    +0.059 C 
BRANCH  22  23
ATOM     23  C   UNL     1      -8.499   1.932   0.309  0.00  0.00    -0.044 A 
ATOM     24  C   UNL     1      -9.355   2.094   1.383  0.00  0.00    +0.004 A 
ATOM     25  C   UNL     1     -10.412   1.222   1.561  0.00  0.00    +0.002 A 
ATOM     26  C   UNL     1     -10.615   0.189   0.665  0.00  0.00    +0.033 A 
ATOM     27  C   UNL     1      -9.760   0.028  -0.409  0.00  0.00    +0.126 A 
ATOM     28  C   UNL     1      -8.706   0.903  -0.590  0.00  0.00    +0.036 A 
BRANCH  27  29
ATOM     29  N   UNL     1      -9.977  -1.079  -1.368  0.00  0.00    +0.056 N 
ATOM     30  O   UNL     1     -10.909  -1.847  -1.211  0.00  0.00    -0.126 OA
ATOM     31  O   UNL     1      -9.224  -1.221  -2.314  0.00  0.00    -0.126 OA
ENDBRANCH  27  29
ENDBRANCH  22  23
ENDBRANCH   4  22
TORSDOF 6
