REMARK  Name = ZINC28190469
REMARK  6 active torsions:
REMARK  status: ('A' for Active; 'I' for Inactive)
REMARK    1  A    between atoms: C_1  and  C_2
REMARK    2  A    between atoms: C_2  and  C_4
REMARK    3  A    between atoms: C_2  and  S_14
REMARK    4  A    between atoms: N_10  and  C_11
REMARK    5  A    between atoms: N_10  and  C_12
REMARK    6  A    between atoms: S_14  and  C_15
REMARK                            x       y       z     vdW  Elec       q    Type
REMARK                         _______ _______ _______ _____ _____    ______ ____
ROOT
ATOM      1  C   UNL     1      -3.384   3.493   1.342  0.00  0.00    +0.028 C 
ATOM      2  C   UNL     1      -3.671   2.757   0.032  0.00  0.00    +0.119 C 
ENDROOT
BRANCH   2   3
ATOM      3  C   UNL     1      -5.152   2.503  -0.087  0.00  0.00    +0.149 A 
ATOM      4  N   UNL     1      -5.718   1.555   0.639  0.00  0.00    -0.198 NA
ATOM      5  C   UNL     1      -7.026   1.328   0.536  0.00  0.00    +0.217 A 
ATOM      6  N   UNL     1      -7.761   2.055  -0.297  0.00  0.00    -0.181 NA
ATOM      7  C   UNL     1      -7.188   3.007  -1.026  0.00  0.00    +0.222 A 
ATOM      8  N   UNL     1      -5.881   3.232  -0.914  0.00  0.00    -0.198 NA
ATOM      9  N   UNL     1      -7.948   3.765  -1.893  0.00  0.00    -0.306 N 
ATOM     10  C   UNL     1      -9.387   3.521  -2.011  0.00  0.00    +0.132 C 
ATOM     11  C   UNL     1      -7.315   4.815  -2.695  0.00  0.00    +0.132 C 
ATOM     12  N   UNL     1      -7.616   0.338   1.294  0.00  0.00    -0.327 N 
ATOM     13  H   UNL     1      -8.697   0.150   1.209  0.00  0.00    +0.145 HD
ATOM     14  H   UNL     1      -7.006  -0.265   1.984  0.00  0.00    +0.145 HD
ENDBRANCH   2   3
BRANCH   2  15
ATOM     15  S   UNL     1      -2.785   1.179   0.019  0.00  0.00    -0.077 S 
BRANCH  15  16
ATOM     16  C   UNL     1      -1.122   1.762   0.016  0.00  0.00    +0.168 A 
ATOM     17  N   UNL     1      -0.011   0.966   0.007  0.00  0.00    -0.333 N 
ATOM     18  H   UNL     1      -0.119  -0.129   0.006  0.00  0.00    +0.168 HD
ATOM     19  C   UNL     1       1.094   1.803   0.001  0.00  0.00    +0.070 A 
ATOM     20  C   UNL     1       2.463   1.586  -0.013  0.00  0.00    +0.069 A 
ATOM     21  C   UNL     1       3.330   2.661  -0.016  0.00  0.00    +0.160 A 
ATOM     22  C   UNL     1       2.837   3.962  -0.005  0.00  0.00    +0.161 A 
ATOM     23  C   UNL     1       1.478   4.193   0.011  0.00  0.00    +0.071 A 
ATOM     24  C   UNL     1       0.590   3.114   0.013  0.00  0.00    +0.093 A 
ATOM     25  N   UNL     1      -0.766   3.022   0.026  0.00  0.00    -0.222 NA
ATOM     26  F   UNL     1       3.696   5.005  -0.008  0.00  0.00    -0.202 F 
ATOM     27  F   UNL     1       4.664   2.449  -0.030  0.00  0.00    -0.202 F 
ENDBRANCH  15  16
ENDBRANCH   2  15
TORSDOF 3
