REMARK  Name = ZINC16817606
REMARK  8 active torsions:
REMARK  status: ('A' for Active; 'I' for Inactive)
REMARK    1  A    between atoms: C_4  and  N_7
REMARK    2  A    between atoms: C_8  and  C_26
REMARK    3  A    between atoms: C_11  and  S_12
REMARK    4  A    between atoms: S_12  and  C_13
REMARK    5  A    between atoms: C_13  and  C_14
REMARK    6  A    between atoms: C_17  and  C_23
REMARK    7  A    between atoms: C_19  and  N_20
REMARK    8  A    between atoms: C_26  and  N_56
REMARK                            x       y       z     vdW  Elec       q    Type
REMARK                         _______ _______ _______ _____ _____    ______ ____
ROOT
ATOM      1  N   UNL     1      -1.576   1.798  -0.192  0.00  0.00    -0.276 N 
ATOM      2  C   UNL     1      -2.020   2.720  -1.102  0.00  0.00    +0.122 A 
ATOM      3  N   UNL     1      -3.047   3.324  -0.573  0.00  0.00    -0.135 NA
ATOM      4  N   UNL     1      -3.277   2.858   0.603  0.00  0.00    -0.122 NA
ATOM      5  C   UNL     1      -2.405   1.918   0.889  0.00  0.00    +0.196 A 
ENDROOT
BRANCH   1   9
ATOM      6  C   UNL     1       1.641  -0.817  -0.633  0.00  0.00    +0.000 A 
ATOM      7  C   UNL     1       0.356  -1.316  -0.519  0.00  0.00    +0.002 A 
ATOM      8  C   UNL     1      -0.711  -0.452  -0.371  0.00  0.00    +0.026 A 
ATOM      9  C   UNL     1      -0.494   0.918  -0.337  0.00  0.00    +0.050 A 
ATOM     10  C   UNL     1       0.797   1.416  -0.451  0.00  0.00    +0.026 A 
ATOM     11  C   UNL     1       1.861   0.548  -0.598  0.00  0.00    +0.002 A 
ENDBRANCH   1   9
BRANCH   5  12
ATOM     12  S   UNL     1      -2.320   0.989   2.384  0.00  0.00    -0.081 S 
BRANCH  12  13
ATOM     13  C   UNL     1      -3.712   1.714   3.285  0.00  0.00    +0.114 C 
BRANCH  13  14
ATOM     14  C   UNL     1      -3.836   1.054   4.634  0.00  0.00    -0.007 A 
ATOM     15  C   UNL     1      -3.277   1.654   5.748  0.00  0.00    +0.007 A 
ATOM     16  C   UNL     1      -3.387   1.055   6.986  0.00  0.00    +0.013 A 
ATOM     17  C   UNL     1      -4.064  -0.159   7.113  0.00  0.00    +0.039 A 
ATOM     18  C   UNL     1      -4.625  -0.759   5.985  0.00  0.00    +0.046 A 
ATOM     19  C   UNL     1      -4.513  -0.147   4.754  0.00  0.00    +0.131 A 
BRANCH  17  20
ATOM     20  C   UNL     1      -4.186  -0.806   8.437  0.00  0.00    +0.242 C 
ATOM     21  O   UNL     1      -4.776  -1.863   8.544  0.00  0.00    -0.270 OA
ATOM     22  N   UNL     1      -3.643  -0.224   9.524  0.00  0.00    -0.325 N 
ATOM     23  H   UNL     1      -3.172   0.620   9.438  0.00  0.00    +0.145 HD
ATOM     24  H   UNL     1      -3.723  -0.649  10.393  0.00  0.00    +0.145 HD
ENDBRANCH  17  20
BRANCH  19  25
ATOM     25  N   UNL     1      -5.112  -0.779   3.557  0.00  0.00    +0.057 N 
ATOM     26  O   UNL     1      -5.803  -1.775   3.676  0.00  0.00    -0.126 OA
ATOM     27  O   UNL     1      -4.915  -0.303   2.454  0.00  0.00    -0.126 OA
ENDBRANCH  19  25
ENDBRANCH  13  14
ENDBRANCH  12  13
ENDBRANCH   5  12
BRANCH   2  28
ATOM     28  C   UNL     1      -1.433   2.986  -2.464  0.00  0.00    -0.001 C 
BRANCH  28  34
ATOM     29  C   UNL     1      -1.781   0.709  -3.208  0.00  0.00    -0.078 C 
ATOM     30  C   UNL     1      -2.592  -0.167  -4.166  0.00  0.00    -0.019 C 
ATOM     31  C   UNL     1      -2.241   0.204  -5.609  0.00  0.00    -0.004 C 
ATOM     32  C   UNL     1      -2.524   1.693  -5.828  0.00  0.00    -0.019 C 
ATOM     33  C   UNL     1      -1.715   2.515  -4.822  0.00  0.00    -0.078 C 
ATOM     34  N   UNL     1      -2.117   2.127  -3.453  0.00  0.00    +0.384 N 
ATOM     35  H   UNL     1      -3.132   2.250  -3.356  0.00  0.00    -0.081 HD
ENDBRANCH  28  34
ENDBRANCH   2  28
TORSDOF 8
