REMARK  Name = ZINC43040780
REMARK  7 active torsions:
REMARK  status: ('A' for Active; 'I' for Inactive)
REMARK    1  A    between atoms: C_1  and  C_2
REMARK    2  A    between atoms: C_7  and  N_12
REMARK    3  A    between atoms: C_9  and  C_11
REMARK    4  A    between atoms: N_15  and  N_16
REMARK    5  A    between atoms: C_17  and  C_19
REMARK    6  A    between atoms: C_22  and  S_25
REMARK    7  A    between atoms: S_25  and  C_28
REMARK                            x       y       z     vdW  Elec       q    Type
REMARK                         _______ _______ _______ _____ _____    ______ ____
ROOT
ATOM      1  N   UNL     1       0.735  -0.503   3.687  0.00  0.00    -0.295 N 
ATOM      2  C   UNL     1       0.634   0.166   4.853  0.00  0.00    +0.316 C 
ATOM      3  O   UNL     1      -0.045   1.173   4.919  0.00  0.00    -0.251 OA
ATOM      4  N   UNL     1       1.286  -0.280   5.945  0.00  0.00    -0.218 N 
ATOM      5  H   UNL     1       1.276  -1.306   3.634  0.00  0.00    +0.151 HD
ATOM      6  H   UNL     1       1.213   0.201   6.784  0.00  0.00    +0.174 HD
ENDROOT
BRANCH   1  12
ATOM      7  C   UNL     1      -0.019   1.526   0.010  0.00  0.00    +0.008 C 
ATOM      8  C   UNL     1       0.002  -0.004   0.002  0.00  0.00    -0.009 C 
ATOM      9  C   UNL     1      -1.433  -0.534   0.013  0.00  0.00    +0.003 C 
ATOM     10  C   UNL     1      -2.149  -0.040   1.272  0.00  0.00    +0.002 C 
ATOM     11  C   UNL     1      -1.409  -0.547   2.511  0.00  0.00    +0.022 C 
ATOM     12  C   UNL     1       0.026  -0.018   2.500  0.00  0.00    +0.078 C 
ATOM     13  C   UNL     1       0.742  -0.511   1.242  0.00  0.00    +0.009 C 
ATOM     14  C   UNL     1       2.178   0.019   1.231  0.00  0.00    +0.009 C 
ENDBRANCH   1  12
BRANCH   4  15
ATOM     15  N   UNL     1       2.068  -1.440   5.868  0.00  0.00    -0.229 N 
ATOM     16  C   UNL     1       2.720  -1.886   6.960  0.00  0.00    +0.260 C 
ATOM     17  O   UNL     1       2.629  -1.283   8.011  0.00  0.00    -0.269 OA
ATOM     18  H   UNL     1       2.140  -1.921   5.029  0.00  0.00    +0.173 HD
BRANCH  16  19
ATOM     19  C   UNL     1       3.546  -3.110   6.879  0.00  0.00    +0.038 A 
ATOM     20  C   UNL     1       3.657  -3.802   5.672  0.00  0.00    +0.015 A 
ATOM     21  C   UNL     1       4.429  -4.943   5.603  0.00  0.00    +0.027 A 
ATOM     22  C   UNL     1       5.093  -5.402   6.727  0.00  0.00    +0.088 A 
ATOM     23  C   UNL     1       4.986  -4.721   7.927  0.00  0.00    +0.027 A 
ATOM     24  C   UNL     1       4.222  -3.575   8.008  0.00  0.00    +0.015 A 
BRANCH  22  25
ATOM     25  S   UNL     1       6.077  -6.860   6.631  0.00  0.00    -0.006 S 
ATOM     26  O   UNL     1       6.087  -7.379   7.954  0.00  0.00    -0.170 OA
ATOM     27  O   UNL     1       5.513  -7.608   5.563  0.00  0.00    -0.170 OA
ATOM     28  C   UNL     1       7.733  -6.275   6.177  0.00  0.00    +0.200 C 
ENDBRANCH  22  25
ENDBRANCH  16  19
ENDBRANCH   4  15
TORSDOF 4
