REMARK  Name = ZINC01323234
REMARK  5 active torsions:
REMARK  status: ('A' for Active; 'I' for Inactive)
REMARK    1  A    between atoms: N_9  and  C_10
REMARK    2  A    between atoms: C_10  and  C_11
REMARK    3  A    between atoms: C_11  and  C_13
REMARK    4  A    between atoms: C_11  and  O_29
REMARK    5  A    between atoms: C_13  and  N_62
REMARK                            x       y       z     vdW  Elec       q    Type
REMARK                         _______ _______ _______ _____ _____    ______ ____
ROOT
ATOM      1  C   UNL     1      -2.481   6.066   1.766  0.00  0.00    +0.118 C 
ENDROOT
BRANCH   1   2
ATOM      2  O   UNL     1      -2.784   4.976   2.639  0.00  0.00    -0.392 OA
ATOM      3  H   UNL     1      -2.183   4.898   3.393  0.00  0.00    +0.210 HD
ENDBRANCH   1   2
BRANCH   1   4
ATOM      4  C   UNL     1      -1.069   5.892   1.202  0.00  0.00    +0.151 C 
BRANCH   4  13
ATOM      5  C   UNL     1      -1.671   3.978  -3.620  0.00  0.00    +0.001 A 
ATOM      6  C   UNL     1      -1.819   5.290  -3.203  0.00  0.00    +0.002 A 
ATOM      7  C   UNL     1      -1.630   5.672  -1.885  0.00  0.00    +0.026 A 
ATOM      8  C   UNL     1      -1.280   4.670  -0.982  0.00  0.00    +0.050 A 
ATOM      9  C   UNL     1      -1.129   3.328  -1.416  0.00  0.00    +0.003 A 
ATOM     10  C   UNL     1      -1.326   2.971  -2.753  0.00  0.00    +0.010 A 
ATOM     11  C   UNL     1      -0.768   2.566  -0.238  0.00  0.00    -0.019 A 
ATOM     12  C   UNL     1      -0.721   3.433   0.796  0.00  0.00    +0.023 A 
ATOM     13  N   UNL     1      -1.025   4.695   0.358  0.00  0.00    -0.341 N 
ATOM     14  C   UNL     1      -0.382   3.031   2.213  0.00  0.00    +0.054 C 
ATOM     15  C   UNL     1      -0.529   1.511   2.338  0.00  0.00    +0.006 C 
ATOM     16  C   UNL     1       0.236   0.829   1.201  0.00  0.00    +0.005 C 
ATOM     17  C   UNL     1      -0.488   1.089  -0.126  0.00  0.00    +0.037 C 
ENDBRANCH   4  13
ENDBRANCH   1   4
BRANCH   1  18
ATOM     18  C   UNL     1      -2.561   7.380   2.545  0.00  0.00    -0.045 C 
BRANCH  18  32
ATOM     19  C   UNL     1      -4.854   7.889   1.964  0.00  0.00    -0.074 C 
ATOM     20  C   UNL     1      -6.279   8.022   2.479  0.00  0.00    -0.007 C 
ATOM     21  C   UNL     1      -6.354   9.055   3.608  0.00  0.00    +0.011 C 
ATOM     22  C   UNL     1      -5.378   8.613   4.704  0.00  0.00    +0.020 C 
ATOM     23  C   UNL     1      -3.963   8.596   4.103  0.00  0.00    -0.069 C 
ATOM     24  C   UNL     1      -5.710   7.199   5.125  0.00  0.00    +0.023 A 
ATOM     25  C   UNL     1      -5.413   6.838   6.401  0.00  0.00    +0.022 A 
ATOM     26  C   UNL     1      -5.634   5.527   6.838  0.00  0.00    +0.007 A 
ATOM     27  C   UNL     1      -6.128   4.612   5.955  0.00  0.00    +0.070 A 
ATOM     28  C   UNL     1      -6.421   5.017   4.645  0.00  0.00    +0.251 A 
ATOM     29  O   UNL     1      -6.804   4.194   3.829  0.00  0.00    -0.268 OA
ATOM     30  N   UNL     1      -6.282   6.314   4.276  0.00  0.00    -0.312 N 
ATOM     31  C   UNL     1      -6.828   6.694   2.971  0.00  0.00    +0.126 C 
ATOM     32  N   UNL     1      -3.934   7.540   3.065  0.00  0.00    +0.382 N 
ATOM     33  H   UNL     1      -4.237   6.653   3.484  0.00  0.00    -0.082 HD
ENDBRANCH  18  32
ENDBRANCH   1  18
TORSDOF 5
