REMARK  Name = ZINC13500647
REMARK  10 active torsions:
REMARK  status: ('A' for Active; 'I' for Inactive)
REMARK    1  A    between atoms: C_1  and  C_2
REMARK    2  A    between atoms: C_9  and  C_14
REMARK    3  A    between atoms: C_14  and  N_75
REMARK    4  A    between atoms: C_15  and  N_75
REMARK    5  A    between atoms: C_21  and  C_23
REMARK    6  A    between atoms: C_21  and  C_34
REMARK    7  A    between atoms: C_21  and  N_75
REMARK    8  A    between atoms: N_27  and  C_28
REMARK    9  A    between atoms: C_34  and  C_35
REMARK   10  A    between atoms: C_34  and  C_36
REMARK                            x       y       z     vdW  Elec       q    Type
REMARK                         _______ _______ _______ _____ _____    ______ ____
ROOT
ATOM      1  N   UNL     1       0.734   4.174  -1.151  0.00  0.00    +0.391 N 
ATOM      2  H   UNL     1      -0.235   4.180  -0.811  0.00  0.00    -0.080 HD
ENDROOT
BRANCH   1   3
ATOM      3  C   UNL     1       0.727   3.974  -2.616  0.00  0.00    -0.067 C 
ATOM      4  C   UNL     1       2.148   4.054  -3.175  0.00  0.00    -0.015 C 
ATOM      5  C   UNL     1       2.113   3.845  -4.690  0.00  0.00    -0.002 C 
ATOM      6  C   UNL     1       1.249   4.931  -5.335  0.00  0.00    -0.000 C 
ATOM      7  C   UNL     1      -0.173   4.851  -4.776  0.00  0.00    -0.002 C 
ATOM      8  C   UNL     1      -0.137   5.060  -3.260  0.00  0.00    -0.015 C 
ENDBRANCH   1   3
BRANCH   1   9
ATOM      9  C   UNL     1       1.365   5.470  -0.822  0.00  0.00    -0.036 C 
BRANCH   9  18
ATOM     10  C   UNL     1       2.576   6.314   6.488  0.00  0.00    +0.044 C 
ATOM     11  C   UNL     1       1.683   6.439   5.281  0.00  0.00    -0.050 A 
ATOM     12  C   UNL     1       0.402   6.955   5.423  0.00  0.00    +0.005 A 
ATOM     13  C   UNL     1      -0.432   7.077   4.333  0.00  0.00    +0.026 A 
ATOM     14  C   UNL     1       0.012   6.682   3.076  0.00  0.00    +0.049 A 
ATOM     15  C   UNL     1       1.312   6.160   2.935  0.00  0.00    -0.001 A 
ATOM     16  C   UNL     1       2.141   6.044   4.056  0.00  0.00    +0.013 A 
ATOM     17  C   UNL     1       1.769   5.742   1.609  0.00  0.00    +0.017 A 
ATOM     18  C   UNL     1       0.924   5.884   0.558  0.00  0.00    +0.001 A 
ATOM     19  C   UNL     1      -0.370   6.414   0.753  0.00  0.00    +0.251 A 
ATOM     20  O   UNL     1      -1.116   6.528  -0.205  0.00  0.00    -0.268 OA
ATOM     21  N   UNL     1      -0.800   6.795   1.968  0.00  0.00    -0.322 N 
ATOM     22  H   UNL     1      -1.696   7.155   2.067  0.00  0.00    +0.169 HD
ENDBRANCH   9  18
ENDBRANCH   1   9
BRANCH   1  23
ATOM     23  C   UNL     1       1.468   3.073  -0.494  0.00  0.00    +0.006 C 
BRANCH  23  24
ATOM     24  C   UNL     1       2.945   3.367  -0.468  0.00  0.00    +0.139 A 
ATOM     25  N   UNL     1       3.629   4.023  -1.374  0.00  0.00    -0.115 NA
ATOM     26  N   UNL     1       4.858   4.065  -0.992  0.00  0.00    -0.023 NA
ATOM     27  N   UNL     1       4.978   3.451   0.134  0.00  0.00    -0.044 NA
ATOM     28  N   UNL     1       3.820   3.007   0.490  0.00  0.00    -0.228 N 
BRANCH  28  29
ATOM     29  C   UNL     1       3.514   2.252   1.707  0.00  0.00    +0.111 C 
ATOM     30  C   UNL     1       3.881   3.091   2.933  0.00  0.00    +0.027 C 
ATOM     31  C   UNL     1       3.562   2.302   4.205  0.00  0.00    +0.002 C 
ATOM     32  C   UNL     1       4.371   1.004   4.216  0.00  0.00    +0.000 C 
ATOM     33  C   UNL     1       4.004   0.164   2.990  0.00  0.00    +0.002 C 
ATOM     34  C   UNL     1       4.323   0.953   1.718  0.00  0.00    +0.027 C 
ENDBRANCH  28  29
ENDBRANCH  23  24
BRANCH  23  35
ATOM     35  C   UNL     1       1.220   1.771  -1.259  0.00  0.00    -0.024 C 
ATOM     36  C   UNL     1       2.080   0.656  -0.660  0.00  0.00    +0.006 C 
ATOM     37  C   UNL     1      -0.258   1.389  -1.151  0.00  0.00    +0.006 C 
ENDBRANCH  23  35
ENDBRANCH   1  23
TORSDOF 7
