REMARK  Name = ZINC36554495
REMARK  11 active torsions:
REMARK  status: ('A' for Active; 'I' for Inactive)
REMARK    1  A    between atoms: C_1  and  C_2
REMARK    2  A    between atoms: C_3  and  C_4
REMARK    3  A    between atoms: C_4  and  C_6
REMARK    4  A    between atoms: C_4  and  N_13
REMARK    5  A    between atoms: N_8  and  C_9
REMARK    6  A    between atoms: C_9  and  C_10
REMARK    7  A    between atoms: C_9  and  C_11
REMARK    8  A    between atoms: C_9  and  C_12
REMARK    9  A    between atoms: N_13  and  C_14
REMARK   10  A    between atoms: C_21  and  C_23
REMARK   11  A    between atoms: C_26  and  N_29
REMARK                            x       y       z     vdW  Elec       q    Type
REMARK                         _______ _______ _______ _____ _____    ______ ____
ROOT
ATOM      1  N   UNL     1       0.254  -3.148  -0.201  0.00  0.00    -0.252 N 
ATOM      2  C   UNL     1       0.792  -3.263   1.029  0.00  0.00    +0.252 C 
ATOM      3  O   UNL     1       1.978  -3.054   1.196  0.00  0.00    -0.270 OA
ENDROOT
BRANCH   1   4
ATOM      4  C   UNL     1       1.062  -2.795  -1.287  0.00  0.00    +0.039 A 
ATOM      5  C   UNL     1       0.487  -2.520  -2.522  0.00  0.00    +0.023 A 
ATOM      6  C   UNL     1       1.287  -2.172  -3.592  0.00  0.00    +0.003 A 
ATOM      7  C   UNL     1       2.659  -2.097  -3.437  0.00  0.00    +0.020 A 
ATOM      8  C   UNL     1       3.235  -2.371  -2.209  0.00  0.00    +0.043 A 
ATOM      9  C   UNL     1       2.439  -2.714  -1.132  0.00  0.00    +0.043 A 
ATOM     10 CL   UNL     1       4.958  -2.276  -2.019  0.00  0.00    -0.083 Cl
ENDBRANCH   1   4
BRANCH   2  11
ATOM     11  C   UNL     1      -0.059  -3.644   2.175  0.00  0.00    +0.037 A 
ATOM     12  C   UNL     1      -1.403  -3.268   2.206  0.00  0.00    +0.015 A 
ATOM     13  C   UNL     1      -2.193  -3.627   3.279  0.00  0.00    +0.033 A 
ATOM     14  C   UNL     1      -1.655  -4.358   4.323  0.00  0.00    +0.126 A 
ATOM     15  C   UNL     1      -0.324  -4.734   4.300  0.00  0.00    +0.033 A 
ATOM     16  C   UNL     1       0.475  -4.387   3.230  0.00  0.00    +0.015 A 
BRANCH  14  17
ATOM     17  N   UNL     1      -2.508  -4.740   5.471  0.00  0.00    +0.056 N 
ATOM     18  O   UNL     1      -3.672  -4.412   5.495  0.00  0.00    -0.126 OA
ATOM     19  O   UNL     1      -2.042  -5.379   6.385  0.00  0.00    -0.126 OA
ENDBRANCH  14  17
ENDBRANCH   2  11
BRANCH   1  20
ATOM     20  C   UNL     1      -1.176  -3.391  -0.401  0.00  0.00    +0.190 C 
BRANCH  20  21
ATOM     21  C   UNL     1      -1.365  -4.402  -1.503  0.00  0.00    +0.238 C 
ATOM     22  O   UNL     1      -0.399  -4.872  -2.066  0.00  0.00    -0.273 OA
ATOM     23  N   UNL     1      -2.607  -4.783  -1.863  0.00  0.00    -0.309 N 
ATOM     24  H   UNL     1      -3.379  -4.406  -1.412  0.00  0.00    +0.149 HD
BRANCH  23  25
ATOM     25  C   UNL     1      -2.790  -5.765  -2.934  0.00  0.00    +0.026 C 
ATOM     26  C   UNL     1      -2.099  -7.074  -2.549  0.00  0.00    +0.031 C 
ATOM     27  C   UNL     1      -4.284  -6.019  -3.142  0.00  0.00    +0.031 C 
ATOM     28  C   UNL     1      -2.179  -5.227  -4.229  0.00  0.00    +0.031 C 
ENDBRANCH  23  25
ENDBRANCH  20  21
BRANCH  20  31
ATOM     29  C   UNL     1      -1.840   0.292  -1.261  0.00  0.00    +0.035 C 
ATOM     30  C   UNL     1      -1.159  -0.998  -0.882  0.00  0.00    -0.032 C 
ATOM     31  C   UNL     1      -1.857  -2.101  -0.780  0.00  0.00    +0.000 C 
ENDBRANCH  20  31
ENDBRANCH   1  20
TORSDOF 7
