REMARK  Name = ZINC12290818
REMARK  5 active torsions:
REMARK  status: ('A' for Active; 'I' for Inactive)
REMARK    1  A    between atoms: C_1  and  C_2
REMARK    2  A    between atoms: C_5  and  N_9
REMARK    3  A    between atoms: C_6  and  C_8
REMARK    4  A    between atoms: N_9  and  S_10
REMARK    5  A    between atoms: S_10  and  C_13
REMARK                            x       y       z     vdW  Elec       q    Type
REMARK                         _______ _______ _______ _____ _____    ______ ____
ROOT
ATOM      1  S   UNL     1       2.513  -0.376  -0.740  0.00  0.00    +0.073 S 
ATOM      2  O   UNL     1       3.785  -0.974  -0.527  0.00  0.00    -0.150 OA
ATOM      3  O   UNL     1       1.303  -0.987  -0.313  0.00  0.00    -0.150 OA
ENDROOT
BRANCH   1   4
ATOM      4  C   UNL     1       2.362  -0.120  -2.477  0.00  0.00    +0.116 A 
ATOM      5  C   UNL     1       1.246  -0.537  -3.135  0.00  0.00    +0.030 A 
ATOM      6  C   UNL     1       1.109  -0.343  -4.508  0.00  0.00    +0.018 A 
ATOM      7  C   UNL     1       2.087   0.271  -5.231  0.00  0.00    +0.026 A 
ATOM      8  C   UNL     1       3.253   0.715  -4.585  0.00  0.00    -0.002 A 
ATOM      9  C   UNL     1       3.391   0.522  -3.188  0.00  0.00    +0.010 A 
ATOM     10  C   UNL     1       4.559   0.962  -2.543  0.00  0.00    +0.010 A 
ATOM     11  C   UNL     1       5.537   1.574  -3.265  0.00  0.00    +0.001 A 
ATOM     12  C   UNL     1       5.400   1.768  -4.638  0.00  0.00    +0.001 A 
ATOM     13  C   UNL     1       4.284   1.352  -5.297  0.00  0.00    +0.009 A 
ATOM     14 BR   UNL     1       1.876   0.523  -7.093  0.00  0.00    -0.050 Br
ENDBRANCH   1   4
BRANCH   1  15
ATOM     15  N   UNL     1       2.567   1.118  -0.028  0.00  0.00    -0.216 N 
ATOM     16  H   UNL     1       3.342   1.380   0.492  0.00  0.00    +0.174 HD
BRANCH  15  21
ATOM     17  C   UNL     1      -1.787   4.702  -0.625  0.00  0.00    +0.044 C 
ATOM     18  C   UNL     1      -0.630   3.750  -0.466  0.00  0.00    -0.050 A 
ATOM     19  C   UNL     1      -0.864   2.390  -0.370  0.00  0.00    +0.005 A 
ATOM     20  C   UNL     1       0.194   1.515  -0.219  0.00  0.00    +0.025 A 
ATOM     21  C   UNL     1       1.494   2.001  -0.175  0.00  0.00    +0.051 A 
ATOM     22  C   UNL     1       1.726   3.366  -0.277  0.00  0.00    -0.028 A 
ATOM     23  C   UNL     1       0.664   4.237  -0.423  0.00  0.00    +0.008 A 
ATOM     24  C   UNL     1       3.135   3.898  -0.229  0.00  0.00    +0.046 C 
ENDBRANCH  15  21
ENDBRANCH   1  15
TORSDOF 3
