REMARK  Name = ZINC40538612
REMARK  4 active torsions:
REMARK  status: ('A' for Active; 'I' for Inactive)
REMARK    1  A    between atoms: C_7  and  C_11
REMARK    2  A    between atoms: N_13  and  N_14
REMARK    3  A    between atoms: C_15  and  C_17
REMARK    4  A    between atoms: C_22  and  N_23
REMARK                            x       y       z     vdW  Elec       q    Type
REMARK                         _______ _______ _______ _____ _____    ______ ____
ROOT
ATOM      1  N   UNL     1       0.397  -5.632  -0.088  0.00  0.00    -0.230 N 
ATOM      2  C   UNL     1       0.877  -6.891  -0.076  0.00  0.00    +0.262 C 
ATOM      3  O   UNL     1       2.078  -7.083  -0.083  0.00  0.00    -0.269 OA
ATOM      4  H   UNL     1      -0.561  -5.478  -0.083  0.00  0.00    +0.173 HD
ENDROOT
BRANCH   2   5
ATOM      5  C   UNL     1      -0.054  -8.036  -0.054  0.00  0.00    +0.063 A 
ATOM      6  C   UNL     1      -1.042  -8.156  -1.033  0.00  0.00    +0.015 A 
ATOM      7  C   UNL     1      -1.908  -9.228  -1.008  0.00  0.00    +0.001 A 
ATOM      8  C   UNL     1      -1.803 -10.188  -0.015  0.00  0.00    +0.002 A 
ATOM      9  C   UNL     1      -0.831 -10.082   0.960  0.00  0.00    +0.028 A 
ATOM     10  C   UNL     1       0.053  -9.012   0.946  0.00  0.00    +0.077 A 
BRANCH  10  11
ATOM     11  N   UNL     1       1.041  -8.906   1.928  0.00  0.00    -0.239 N 
ATOM     12  C   UNL     1       1.335  -9.838   2.872  0.00  0.00    +0.114 A 
ATOM     13  C   UNL     1       2.349  -9.353   3.625  0.00  0.00    +0.041 A 
ATOM     14  C   UNL     1       2.686  -8.087   3.130  0.00  0.00    +0.135 A 
ATOM     15  N   UNL     1       1.909  -7.822   2.112  0.00  0.00    -0.175 NA
ENDBRANCH  10  11
ENDBRANCH   2   5
BRANCH   1  18
ATOM     16  C   UNL     1       0.800  -3.286  -0.121  0.00  0.00    +0.262 C 
ATOM     17  O   UNL     1      -0.402  -3.093  -0.115  0.00  0.00    -0.269 OA
ATOM     18  N   UNL     1       1.280  -4.545  -0.109  0.00  0.00    -0.230 N 
ATOM     19  H   UNL     1       2.238  -4.699  -0.114  0.00  0.00    +0.173 HD
BRANCH  16  26
ATOM     20  C   UNL     1       0.164   1.355  -0.176  0.00  0.00    +0.001 A 
ATOM     21  C   UNL     1       1.364   2.051  -0.193  0.00  0.00    +0.002 A 
ATOM     22  C   UNL     1       2.566   1.377  -0.193  0.00  0.00    +0.026 A 
ATOM     23  C   UNL     1       2.582  -0.014  -0.176  0.00  0.00    +0.047 A 
ATOM     24  C   UNL     1       1.367  -0.716  -0.158  0.00  0.00    +0.012 A 
ATOM     25  C   UNL     1       0.159  -0.022  -0.159  0.00  0.00    +0.011 A 
ATOM     26  C   UNL     1       1.726  -2.146  -0.143  0.00  0.00    +0.063 A 
ATOM     27  C   UNL     1       3.089  -2.202  -0.152  0.00  0.00    +0.096 A 
ATOM     28  N   UNL     1       3.599  -0.947  -0.172  0.00  0.00    -0.360 N 
ATOM     29  H   UNL     1       4.545  -0.734  -0.181  0.00  0.00    +0.165 HD
ENDBRANCH  16  26
ENDBRANCH   1  18
TORSDOF 4
