REMARK  Name = ZINC12711856
REMARK  9 active torsions:
REMARK  status: ('A' for Active; 'I' for Inactive)
REMARK    1  A    between atoms: C_1  and  C_2
REMARK    2  A    between atoms: C_3  and  C_31
REMARK    3  A    between atoms: C_8  and  C_10
REMARK    4  A    between atoms: C_10  and  S_11
REMARK    5  A    between atoms: S_11  and  C_12
REMARK    6  A    between atoms: C_15  and  C_24
REMARK    7  A    between atoms: N_16  and  C_17
REMARK    8  A    between atoms: C_17  and  C_18
REMARK    9  A    between atoms: C_27  and  O_30
REMARK                            x       y       z     vdW  Elec       q    Type
REMARK                         _______ _______ _______ _____ _____    ______ ____
ROOT
ATOM      1  C   UNL     1       5.826  -1.161  -0.009  0.00  0.00    +0.192 A 
ATOM      2  N   UNL     1       5.122  -2.252  -0.212  0.00  0.00    -0.122 NA
ATOM      3  N   UNL     1       3.866  -1.976  -0.194  0.00  0.00    -0.128 NA
ATOM      4  C   UNL     1       3.692  -0.693   0.022  0.00  0.00    +0.165 A 
ATOM      5  N   UNL     1       4.941  -0.130   0.141  0.00  0.00    -0.300 N 
ENDROOT
BRANCH   4   6
ATOM      6  C   UNL     1       2.397   0.014   0.113  0.00  0.00    +0.020 A 
ATOM      7  C   UNL     1       2.325   1.266   0.727  0.00  0.00    +0.015 A 
ATOM      8  C   UNL     1       1.116   1.923   0.809  0.00  0.00    +0.046 A 
ATOM      9  C   UNL     1      -0.030   1.341   0.284  0.00  0.00    +0.117 A 
ATOM     10  C   UNL     1       0.037   0.095  -0.327  0.00  0.00    +0.046 A 
ATOM     11  C   UNL     1       1.243  -0.568  -0.414  0.00  0.00    +0.015 A 
BRANCH   9  12
ATOM     12  O   UNL     1      -1.221   1.988   0.372  0.00  0.00    -0.507 OA
ATOM     13  H   UNL     1      -1.409   2.569  -0.377  0.00  0.00    +0.292 HD
ENDBRANCH   9  12
ENDBRANCH   4   6
BRANCH   1  14
ATOM     14  S   UNL     1       7.583  -1.048   0.051  0.00  0.00    -0.077 S 
BRANCH  14  15
ATOM     15  C   UNL     1       8.020  -2.781  -0.235  0.00  0.00    +0.173 C 
BRANCH  15  23
ATOM     16  C   UNL     1      14.714  -2.590  -0.048  0.00  0.00    +0.066 C 
ATOM     17  C   UNL     1      13.668  -3.655  -0.254  0.00  0.00    +0.050 A 
ATOM     18  C   UNL     1      14.024  -4.945  -0.467  0.00  0.00    +0.011 A 
ATOM     19  S   UNL     1      12.417  -5.709  -0.634  0.00  0.00    -0.057 S 
ATOM     20  C   UNL     1      11.461  -4.277  -0.412  0.00  0.00    +0.165 A 
ATOM     21  N   UNL     1      12.384  -3.351  -0.238  0.00  0.00    -0.230 NA
ATOM     22  N   UNL     1      10.078  -4.140  -0.420  0.00  0.00    -0.264 N 
ATOM     23  C   UNL     1       9.519  -2.929  -0.226  0.00  0.00    +0.229 C 
ATOM     24  O   UNL     1      10.223  -1.959  -0.044  0.00  0.00    -0.275 OA
ATOM     25  C   UNL     1      15.396  -5.564  -0.540  0.00  0.00    +0.053 C 
ATOM     26  H   UNL     1       9.515  -4.916  -0.566  0.00  0.00    +0.157 HD
ENDBRANCH  15  23
ENDBRANCH  14  15
ENDBRANCH   1  14
BRANCH   5  27
ATOM     27  C   UNL     1       5.258   1.280   0.383  0.00  0.00    +0.157 C 
BRANCH  27  28
ATOM     28  C   UNL     1       5.386   1.523   1.888  0.00  0.00    +0.138 C 
ATOM     29  C   UNL     1       5.605   3.027   2.158  0.00  0.00    +0.035 C 
ATOM     30  C   UNL     1       6.644   3.006   3.312  0.00  0.00    +0.031 C 
ATOM     31  C   UNL     1       7.475   1.754   2.938  0.00  0.00    +0.160 C 
ATOM     32  O   UNL     1       6.525   0.821   2.398  0.00  0.00    -0.375 OA
ENDBRANCH  27  28
ENDBRANCH   5  27
TORSDOF 7
