REMARK  Name = ZINC05006777
REMARK  6 active torsions:
REMARK  status: ('A' for Active; 'I' for Inactive)
REMARK    1  A    between atoms: C_1  and  C_2
REMARK    2  A    between atoms: C_2  and  C_25
REMARK    3  A    between atoms: N_3  and  N_4
REMARK    4  A    between atoms: C_10  and  C_13
REMARK    5  A    between atoms: N_15  and  C_16
REMARK    6  A    between atoms: C_20  and  N_22
REMARK                            x       y       z     vdW  Elec       q    Type
REMARK                         _______ _______ _______ _____ _____    ______ ____
ROOT
ATOM      1  N   UNL     1       4.123  -1.817  -2.478  0.00  0.00    -0.126 NA
ATOM      2  C   UNL     1       3.088  -2.018  -1.689  0.00  0.00    +0.183 C 
ATOM      3  N   UNL     1       3.136  -2.963  -0.686  0.00  0.00    -0.264 N 
ATOM      4  C   UNL     1       2.298  -3.002   0.342  0.00  0.00    +0.220 C 
ATOM      5  O   UNL     1       2.519  -3.844   1.186  0.00  0.00    -0.275 OA
ATOM      6  C   UNL     1       1.115  -2.123   0.578  0.00  0.00    +0.120 C 
ATOM      7  C   UNL     1       1.249  -0.777  -0.135  0.00  0.00    +0.149 C 
ATOM      8  S   UNL     1       1.599  -1.083  -1.890  0.00  0.00    -0.075 S 
ATOM      9  H   UNL     1       3.827  -3.642  -0.735  0.00  0.00    +0.157 HD
ENDROOT
BRANCH   7  10
ATOM     10  C   UNL     1      -0.038  -0.004  -0.003  0.00  0.00    +0.231 C 
ATOM     11  O   UNL     1      -1.093  -0.594   0.093  0.00  0.00    -0.274 OA
ATOM     12  N   UNL     1      -0.016   1.344   0.009  0.00  0.00    -0.285 N 
ATOM     13  H   UNL     1       0.832   1.815   0.001  0.00  0.00    +0.155 HD
BRANCH  12  14
ATOM     14  C   UNL     1      -1.216   2.063   0.029  0.00  0.00    +0.036 A 
ATOM     15  C   UNL     1      -2.312   1.570   0.726  0.00  0.00    +0.023 A 
ATOM     16  C   UNL     1      -3.495   2.282   0.744  0.00  0.00    +0.004 A 
ATOM     17  C   UNL     1      -3.589   3.485   0.067  0.00  0.00    +0.033 A 
ATOM     18  C   UNL     1      -2.501   3.978  -0.628  0.00  0.00    +0.128 A 
ATOM     19  C   UNL     1      -1.313   3.273  -0.645  0.00  0.00    +0.056 A 
BRANCH  18  20
ATOM     20  N   UNL     1      -2.606   5.266  -1.350  0.00  0.00    +0.056 N 
ATOM     21  O   UNL     1      -3.652   5.891  -1.331  0.00  0.00    -0.126 OA
ATOM     22  O   UNL     1      -1.648   5.701  -1.962  0.00  0.00    -0.126 OA
ENDBRANCH  18  20
ENDBRANCH  12  14
ENDBRANCH   7  10
BRANCH   1  25
ATOM     23  C   UNL     1       6.345  -1.536  -4.005  0.00  0.00    +0.068 C 
ATOM     24  C   UNL     1       5.086  -0.729  -4.193  0.00  0.00    +0.068 C 
ATOM     25  N   UNL     1       4.060  -0.929  -3.412  0.00  0.00    -0.152 NA
BRANCH  24  26
ATOM     26  C   UNL     1       5.014   0.284  -5.258  0.00  0.00    -0.002 A 
ATOM     27  C   UNL     1       6.113   0.504  -6.094  0.00  0.00    +0.010 A 
ATOM     28  C   UNL     1       6.036   1.452  -7.093  0.00  0.00    +0.001 A 
ATOM     29  C   UNL     1       4.878   2.191  -7.263  0.00  0.00    +0.000 A 
ATOM     30  C   UNL     1       3.788   1.982  -6.436  0.00  0.00    +0.001 A 
ATOM     31  C   UNL     1       3.848   1.035  -5.436  0.00  0.00    +0.010 A 
ENDBRANCH  24  26
ENDBRANCH   1  25
TORSDOF 5
