REMARK  Name = ZINC38604782
REMARK  4 active torsions:
REMARK  status: ('A' for Active; 'I' for Inactive)
REMARK    1  A    between atoms: C_1  and  C_2
REMARK    2  A    between atoms: C_5  and  C_29
REMARK    3  A    between atoms: C_8  and  C_10
REMARK    4  A    between atoms: C_12  and  C_23
REMARK                            x       y       z     vdW  Elec       q    Type
REMARK                         _______ _______ _______ _____ _____    ______ ____
ROOT
ATOM      1  C   UNL     1      -4.708  -0.615   0.116  0.00  0.00    +0.152 C 
ATOM      2  C   UNL     1      -4.982   0.847  -0.183  0.00  0.00    -0.014 C 
ATOM      3  C   UNL     1      -5.779   1.543   0.729  0.00  0.00    +0.002 A 
ATOM      4  C   UNL     1      -6.083   2.906   0.527  0.00  0.00    +0.025 A 
ATOM      5  C   UNL     1      -6.862   3.560   1.431  0.00  0.00    +0.019 A 
ATOM      6  C   UNL     1      -7.367   2.911   2.556  0.00  0.00    +0.017 A 
ATOM      7  C   UNL     1      -7.108   1.597   2.805  0.00  0.00    +0.025 A 
ATOM      8  C   UNL     1      -6.310   0.858   1.913  0.00  0.00    +0.041 A 
ATOM      9  N   UNL     1      -6.056  -0.431   2.159  0.00  0.00    -0.284 N 
ATOM     10  C   UNL     1      -5.320  -1.191   1.373  0.00  0.00    +0.230 C 
ATOM     11  O   UNL     1      -5.131  -2.358   1.660  0.00  0.00    -0.274 OA
ATOM     12 BR   UNL     1      -7.266   5.387   1.156  0.00  0.00    -0.050 Br
ATOM     13  H   UNL     1      -6.435  -0.829   2.958  0.00  0.00    +0.155 HD
ENDROOT
BRANCH   1  20
ATOM     14  C   UNL     1      -0.130   2.023   0.244  0.00  0.00    +0.111 C 
ATOM     15  C   UNL     1       0.043   0.527   0.312  0.00  0.00    +0.232 C 
ATOM     16  O   UNL     1       1.155   0.049   0.385  0.00  0.00    -0.274 OA
ATOM     17  N   UNL     1      -1.037  -0.278   0.291  0.00  0.00    -0.186 N 
ATOM     18  C   UNL     1      -1.013  -1.748   0.357  0.00  0.00    +0.136 C 
ATOM     19  C   UNL     1      -2.506  -2.130   0.297  0.00  0.00    +0.083 C 
ATOM     20  C   UNL     1      -3.215  -0.798   0.202  0.00  0.00    +0.055 C 
ATOM     21  N   UNL     1      -2.363   0.144   0.211  0.00  0.00    -0.185 NA
BRANCH  18  22
ATOM     22  C   UNL     1      -0.266  -2.321  -0.820  0.00  0.00    -0.025 A 
ATOM     23  C   UNL     1      -0.397  -1.743  -2.069  0.00  0.00    +0.005 A 
ATOM     24  C   UNL     1       0.288  -2.268  -3.148  0.00  0.00    +0.000 A 
ATOM     25  C   UNL     1       1.104  -3.372  -2.979  0.00  0.00    +0.000 A 
ATOM     26  C   UNL     1       1.235  -3.949  -1.730  0.00  0.00    +0.000 A 
ATOM     27  C   UNL     1       0.553  -3.421  -0.650  0.00  0.00    +0.005 A 
ENDBRANCH  18  22
ENDBRANCH   1  20
BRANCH   2  28
ATOM     28  C   UNL     1      -4.452   1.478  -1.337  0.00  0.00    -0.020 A 
ATOM     29  C   UNL     1      -3.555   2.551  -1.207  0.00  0.00    +0.008 A 
ATOM     30  C   UNL     1      -3.046   3.157  -2.334  0.00  0.00    +0.001 A 
ATOM     31  C   UNL     1      -3.417   2.712  -3.593  0.00  0.00    +0.000 A 
ATOM     32  C   UNL     1      -4.301   1.655  -3.732  0.00  0.00    +0.001 A 
ATOM     33  C   UNL     1      -4.816   1.031  -2.618  0.00  0.00    +0.008 A 
ENDBRANCH   2  28
TORSDOF 3
