REMARK  Name = ZINC33570098
REMARK  6 active torsions:
REMARK  status: ('A' for Active; 'I' for Inactive)
REMARK    1  A    between atoms: C_1  and  C_2
REMARK    2  A    between atoms: C_5  and  C_8
REMARK    3  A    between atoms: C_8  and  O_9
REMARK    4  A    between atoms: O_9  and  C_10
REMARK    5  A    between atoms: C_13  and  N_29
REMARK    6  A    between atoms: C_15  and  C_16
REMARK                            x       y       z     vdW  Elec       q    Type
REMARK                         _______ _______ _______ _____ _____    ______ ____
ROOT
ATOM      1  C   UNL     1      -1.202   3.132  -0.183  0.00  0.00    +0.128 A 
ATOM      2  C   UNL     1       0.010   3.799  -0.251  0.00  0.00    +0.048 A 
ATOM      3  C   UNL     1       1.196   3.092  -0.181  0.00  0.00    +0.036 A 
ATOM      4  C   UNL     1       1.183   1.714  -0.042  0.00  0.00    +0.127 A 
ATOM      5  C   UNL     1      -0.012   1.032   0.028  0.00  0.00    +0.044 A 
ATOM      6  C   UNL     1      -1.220   1.735  -0.048  0.00  0.00    +0.020 A 
ENDROOT
BRANCH   6   7
ATOM      7  C   UNL     1      -2.498   1.015   0.019  0.00  0.00    +0.032 C 
ATOM      8  C   UNL     1      -2.540  -0.249   0.509  0.00  0.00    +0.079 C 
ATOM      9  C   UNL     1      -3.660  -1.209   0.527  0.00  0.00    +0.265 C 
ATOM     10  O   UNL     1      -4.748  -0.925   0.060  0.00  0.00    -0.269 OA
ATOM     11  N   UNL     1      -3.429  -2.393   1.068  0.00  0.00    -0.192 N 
ATOM     12  C   UNL     1      -2.187  -2.691   1.599  0.00  0.00    +0.167 C 
ATOM     13  N   UNL     1      -1.794  -3.796   2.171  0.00  0.00    -0.279 NA
ATOM     14  S   UNL     1      -1.255  -1.196   1.313  0.00  0.00    -0.049 S 
ATOM     15  C   UNL     1      -4.445  -3.344   1.109  0.00  0.00    +0.173 A 
ATOM     16  N   UNL     1      -5.684  -3.252   0.667  0.00  0.00    -0.233 NA
ATOM     17  C   UNL     1      -6.527  -4.260   0.781  0.00  0.00    +0.120 A 
ATOM     18  C   UNL     1      -6.096  -5.398   1.379  0.00  0.00    +0.068 A 
ATOM     19  S   UNL     1      -4.408  -4.952   1.762  0.00  0.00    -0.060 S 
ATOM     20  H   UNL     1      -0.764  -3.883   2.547  0.00  0.00    +0.189 HD
ENDBRANCH   6   7
BRANCH   4  21
ATOM     21  N   UNL     1       2.461   0.970   0.032  0.00  0.00    +0.056 N 
ATOM     22  O   UNL     1       2.454  -0.242   0.154  0.00  0.00    -0.126 OA
ATOM     23  O   UNL     1       3.519   1.569  -0.030  0.00  0.00    -0.126 OA
ENDBRANCH   4  21
BRANCH   1  24
ATOM     24  O   UNL     1      -2.367   3.826  -0.252  0.00  0.00    -0.487 OA
BRANCH  24  25
ATOM     25  C   UNL     1      -2.270   5.245  -0.395  0.00  0.00    +0.264 C 
BRANCH  25  30
ATOM     26  C   UNL     1      -7.574   7.525  -0.620  0.00  0.00    +0.044 C 
ATOM     27  C   UNL     1      -6.191   6.931  -0.561  0.00  0.00    -0.050 A 
ATOM     28  C   UNL     1      -5.555   6.778   0.657  0.00  0.00    +0.004 A 
ATOM     29  C   UNL     1      -4.287   6.232   0.711  0.00  0.00    +0.007 A 
ATOM     30  C   UNL     1      -3.653   5.840  -0.454  0.00  0.00    -0.010 A 
ATOM     31  C   UNL     1      -4.286   5.998  -1.672  0.00  0.00    +0.007 A 
ATOM     32  C   UNL     1      -5.557   6.540  -1.726  0.00  0.00    +0.004 A 
ENDBRANCH  25  30
ENDBRANCH  24  25
ENDBRANCH   1  24
TORSDOF 5
