REMARK  Name = ZINC05619753
REMARK  8 active torsions:
REMARK  status: ('A' for Active; 'I' for Inactive)
REMARK    1  A    between atoms: C_1  and  C_2
REMARK    2  A    between atoms: C_6  and  O_8
REMARK    3  A    between atoms: O_8  and  C_9
REMARK    4  A    between atoms: C_9  and  C_11
REMARK    5  A    between atoms: C_9  and  C_12
REMARK    6  A    between atoms: N_14  and  N_15
REMARK    7  A    between atoms: C_16  and  C_17
REMARK    8  A    between atoms: C_21  and  N_23
REMARK                            x       y       z     vdW  Elec       q    Type
REMARK                         _______ _______ _______ _____ _____    ______ ____
ROOT
ATOM      1  C   UNL     1       1.083   7.244  -0.467  0.00  0.00    +0.273 C 
ATOM      2  O   UNL     1       0.009   7.653  -0.855  0.00  0.00    -0.270 OA
ATOM      3  N   UNL     1       2.179   8.021  -0.574  0.00  0.00    -0.204 N 
ATOM      4  H   UNL     1       3.038   7.693  -0.264  0.00  0.00    +0.177 HD
ENDROOT
BRANCH   1   5
ATOM      5  C   UNL     1       1.192   5.866   0.134  0.00  0.00    +0.257 C 
ATOM      6  C   UNL     1       1.588   5.982   1.607  0.00  0.00    +0.062 C 
BRANCH   5   7
ATOM      7  O   UNL     1      -0.069   5.201   0.031  0.00  0.00    -0.480 OA
BRANCH   7  13
ATOM      8  C   UNL     1      -2.475   0.980  -0.432  0.00  0.00    +0.044 C 
ATOM      9  C   UNL     1      -1.202   1.751  -0.198  0.00  0.00    -0.047 A 
ATOM     10  C   UNL     1      -0.013   1.076   0.010  0.00  0.00    +0.003 A 
ATOM     11  C   UNL     1       1.158   1.781   0.220  0.00  0.00    +0.004 A 
ATOM     12  C   UNL     1       1.142   3.162   0.227  0.00  0.00    +0.046 A 
ATOM     13  C   UNL     1      -0.050   3.842   0.024  0.00  0.00    +0.122 A 
ATOM     14  C   UNL     1      -1.224   3.132  -0.186  0.00  0.00    +0.049 A 
ENDBRANCH   7  13
ENDBRANCH   5   7
ENDBRANCH   1   5
BRANCH   3  15
ATOM     15  N   UNL     1       2.079   9.301  -1.133  0.00  0.00    -0.188 NA
ATOM     16  C   UNL     1       3.134  10.050  -1.235  0.00  0.00    +0.138 C 
BRANCH  16  17
ATOM     17  C   UNL     1       3.028  11.398  -1.824  0.00  0.00    -0.003 A 
ATOM     18  C   UNL     1       1.793  11.870  -2.277  0.00  0.00    +0.011 A 
ATOM     19  C   UNL     1       1.700  13.133  -2.822  0.00  0.00    +0.023 A 
ATOM     20  C   UNL     1       2.828  13.929  -2.930  0.00  0.00    +0.071 A 
ATOM     21  C   UNL     1       4.056  13.465  -2.487  0.00  0.00    +0.145 A 
ATOM     22  C   UNL     1       4.162  12.205  -1.936  0.00  0.00    +0.043 A 
ATOM     23 CL   UNL     1       2.704  15.516  -3.623  0.00  0.00    -0.081 Cl
BRANCH  21  24
ATOM     24  N   UNL     1       5.256  14.322  -2.606  0.00  0.00    +0.058 N 
ATOM     25  O   UNL     1       6.336  13.916  -2.217  0.00  0.00    -0.126 OA
ATOM     26  O   UNL     1       5.164  15.435  -3.093  0.00  0.00    -0.126 OA
ENDBRANCH  21  24
ENDBRANCH  16  17
ENDBRANCH   3  15
TORSDOF 6
