REMARK  Name = ZINC39466153
REMARK  8 active torsions:
REMARK  status: ('A' for Active; 'I' for Inactive)
REMARK    1  A    between atoms: C_1  and  C_2
REMARK    2  A    between atoms: C_7  and  C_12
REMARK    3  A    between atoms: C_12  and  C_14
REMARK    4  A    between atoms: C_12  and  N_17
REMARK    5  A    between atoms: C_14  and  C_15
REMARK    6  A    between atoms: C_14  and  C_16
REMARK    7  A    between atoms: C_18  and  C_20
REMARK    8  A    between atoms: N_22  and  C_25
REMARK                            x       y       z     vdW  Elec       q    Type
REMARK                         _______ _______ _______ _____ _____    ______ ____
ROOT
ATOM      1  N   UNL     1      -5.697   2.466  -5.651  0.00  0.00    -0.300 N 
ATOM      2  C   UNL     1      -6.963   2.326  -6.093  0.00  0.00    +0.261 C 
ATOM      3  O   UNL     1      -7.859   2.983  -5.594  0.00  0.00    -0.269 OA
ATOM      4  H   UNL     1      -4.984   1.943  -6.048  0.00  0.00    +0.150 HD
ENDROOT
BRANCH   2   5
ATOM      5  C   UNL     1      -7.260   1.384  -7.170  0.00  0.00    +0.120 C 
ATOM      6  C   UNL     1      -8.475   1.148  -7.711  0.00  0.00    +0.119 C 
ATOM      7  N   UNL     1      -8.335   0.199  -8.693  0.00  0.00    -0.253 N 
ATOM      8  N   UNL     1      -7.021  -0.164  -8.769  0.00  0.00    -0.160 NA
ATOM      9  N   UNL     1      -6.329   0.560  -7.839  0.00  0.00    -0.259 N 
ATOM     10  H   UNL     1      -6.910  -1.155  -8.617  0.00  0.00    +0.168 HD
ATOM     11  H   UNL     1      -5.375   0.514  -7.669  0.00  0.00    +0.168 HD
BRANCH   7  12
ATOM     12  C   UNL     1      -9.418  -0.337  -9.522  0.00  0.00    +0.092 C 
ATOM     13  C   UNL     1      -9.521  -1.849  -9.311  0.00  0.00    +0.024 C 
ATOM     14  C   UNL     1     -10.652  -2.408 -10.177  0.00  0.00    +0.002 C 
ATOM     15  C   UNL     1     -10.358  -2.118 -11.650  0.00  0.00    +0.000 C 
ATOM     16  C   UNL     1     -10.254  -0.606 -11.861  0.00  0.00    +0.002 C 
ATOM     17  C   UNL     1      -9.123  -0.047 -10.995  0.00  0.00    +0.024 C 
ENDBRANCH   7  12
ENDBRANCH   2   5
BRANCH   1  18
ATOM     18  C   UNL     1      -5.399   3.410  -4.571  0.00  0.00    +0.142 C 
BRANCH  18  25
ATOM     19  C   UNL     1      -0.013   1.086   0.008  0.00  0.00    +0.044 C 
ATOM     20  C   UNL     1      -0.742   1.585  -1.213  0.00  0.00    -0.048 A 
ATOM     21  C   UNL     1      -0.038   1.825  -2.385  0.00  0.00    +0.005 A 
ATOM     22  C   UNL     1      -0.681   2.278  -3.502  0.00  0.00    +0.030 A 
ATOM     23  C   UNL     1      -2.060   2.502  -3.470  0.00  0.00    +0.089 A 
ATOM     24  N   UNL     1      -2.959   2.938  -4.389  0.00  0.00    -0.231 NA
ATOM     25  C   UNL     1      -4.145   2.977  -3.856  0.00  0.00    +0.129 A 
ATOM     26  H   UNL     1      -4.835   2.506  -1.944  0.00  0.00    +0.167 HD
ATOM     27  N   UNL     1      -4.089   2.568  -2.560  0.00  0.00    -0.340 N 
ATOM     28  C   UNL     1      -2.772   2.259  -2.284  0.00  0.00    +0.067 A 
ATOM     29  C   UNL     1      -2.103   1.794  -1.159  0.00  0.00    +0.031 A 
ENDBRANCH  18  25
BRANCH  18  30
ATOM     30  C   UNL     1      -5.194   4.808  -5.158  0.00  0.00    +0.011 C 
ATOM     31  C   UNL     1      -6.467   5.249  -5.883  0.00  0.00    +0.009 C 
ATOM     32  C   UNL     1      -4.883   5.794  -4.030  0.00  0.00    +0.009 C 
ENDBRANCH  18  30
ENDBRANCH   1  18
TORSDOF 5
