REMARK  Name = ZINC23561759
REMARK  7 active torsions:
REMARK  status: ('A' for Active; 'I' for Inactive)
REMARK    1  A    between atoms: C_1  and  C_2
REMARK    2  A    between atoms: C_2  and  C_4
REMARK    3  A    between atoms: C_2  and  S_13
REMARK    4  A    between atoms: N_6  and  C_7
REMARK    5  A    between atoms: S_13  and  C_14
REMARK    6  A    between atoms: N_21  and  C_29
REMARK    7  A    between atoms: C_24  and  C_26
REMARK                            x       y       z     vdW  Elec       q    Type
REMARK                         _______ _______ _______ _____ _____    ______ ____
ROOT
ATOM      1  C   UNL     1       2.718  -3.060   0.426  0.00  0.00    +0.116 A 
ATOM      2  C   UNL     1       3.041  -4.339   0.905  0.00  0.00    +0.116 A 
ATOM      3  C   UNL     1       2.031  -5.276   1.406  0.00  0.00    +0.288 A 
ATOM      4  O   UNL     1       0.853  -4.974   1.425  0.00  0.00    -0.265 OA
ATOM      5  N   UNL     1       2.446  -6.485   1.845  0.00  0.00    -0.153 NA
ATOM      6  C   UNL     1       3.746  -6.822   1.826  0.00  0.00    +0.353 A 
ATOM      7  O   UNL     1       4.067  -7.921   2.233  0.00  0.00    -0.244 OA
ATOM      8  N   UNL     1       4.707  -5.997   1.376  0.00  0.00    -0.273 N 
ATOM      9  C   UNL     1       4.390  -4.741   0.905  0.00  0.00    +0.155 A 
ATOM     10  N   UNL     1       5.308  -3.897   0.454  0.00  0.00    -0.214 NA
ATOM     11  C   UNL     1       4.962  -2.703   0.012  0.00  0.00    +0.136 A 
ATOM     12  N   UNL     1       3.712  -2.286  -0.013  0.00  0.00    -0.225 NA
ENDROOT
BRANCH  11  13
ATOM     13  C   UNL     1       6.041  -1.779  -0.491  0.00  0.00    +0.057 C 
ATOM     14  C   UNL     1       5.644  -0.335  -0.807  0.00  0.00    +0.012 C 
ATOM     15  C   UNL     1       5.949  -1.311  -1.945  0.00  0.00    +0.012 C 
ENDBRANCH  11  13
BRANCH   8  16
ATOM     16  C   UNL     1       6.105  -6.437   1.386  0.00  0.00    +0.094 C 
ATOM     17  C   UNL     1       6.926  -6.211   0.115  0.00  0.00    +0.027 C 
ATOM     18  C   UNL     1       6.478  -7.624   0.496  0.00  0.00    +0.027 C 
ENDBRANCH   8  16
BRANCH   1  19
ATOM     19  S   UNL     1       1.049  -2.497   0.399  0.00  0.00    -0.093 S 
BRANCH  19  21
ATOM     20  C   UNL     1       1.809  -0.965  -1.732  0.00  0.00    +0.029 C 
ATOM     21  C   UNL     1       1.287  -0.843  -0.299  0.00  0.00    +0.135 C 
BRANCH  21  22
ATOM     22  C   UNL     1      -0.028  -0.107  -0.304  0.00  0.00    +0.226 C 
ATOM     23  O   UNL     1      -1.069  -0.724  -0.233  0.00  0.00    -0.275 OA
ATOM     24  N   UNL     1      -0.046   1.238  -0.389  0.00  0.00    -0.312 N 
ATOM     25  H   UNL     1       0.898   1.798  -0.450  0.00  0.00    +0.149 HD
BRANCH  24  26
ATOM     26  C   UNL     1      -1.325   1.954  -0.401  0.00  0.00    +0.073 C 
ATOM     27  C   UNL     1      -1.869   2.003  -1.830  0.00  0.00    +0.022 C 
ATOM     28  C   UNL     1      -3.204   2.750  -1.842  0.00  0.00    +0.002 C 
ATOM     29  C   UNL     1      -2.995   4.176  -1.327  0.00  0.00    +0.000 C 
ATOM     30  C   UNL     1      -2.451   4.127   0.102  0.00  0.00    +0.002 C 
ATOM     31  C   UNL     1      -1.116   3.379   0.114  0.00  0.00    +0.022 C 
ENDBRANCH  24  26
ENDBRANCH  21  22
ENDBRANCH  19  21
ENDBRANCH   1  19
TORSDOF 6
