REMARK  Name = ZINC65466050
REMARK  9 active torsions:
REMARK  status: ('A' for Active; 'I' for Inactive)
REMARK    1  A    between atoms: C_1  and  C_2
REMARK    2  A    between atoms: C_2  and  N_3
REMARK    3  A    between atoms: C_5  and  C_8
REMARK    4  A    between atoms: N_11  and  C_14
REMARK    5  A    between atoms: C_14  and  C_15
REMARK    6  A    between atoms: N_17  and  C_18
REMARK    7  A    between atoms: C_19  and  C_25
REMARK    8  A    between atoms: N_21  and  C_24
REMARK    9  A    between atoms: C_22  and  C_23
REMARK                            x       y       z     vdW  Elec       q    Type
REMARK                         _______ _______ _______ _____ _____    ______ ____
ROOT
ATOM      1  C   UNL     1       2.614  -0.328   6.726  0.00  0.00    +0.019 C 
ATOM      2  C   UNL     1       1.940  -0.512   8.089  0.00  0.00    -0.011 C 
ATOM      3  C   UNL     1       1.552  -1.982   8.265  0.00  0.00    -0.078 C 
ATOM      4  N   UNL     1       2.755  -2.821   8.194  0.00  0.00    +0.385 N 
ATOM      5  C   UNL     1       3.366  -2.704   6.865  0.00  0.00    -0.078 C 
ATOM      6  C   UNL     1       3.824  -1.262   6.635  0.00  0.00    -0.011 C 
ATOM      7  H   UNL     1       3.415  -2.520   8.895  0.00  0.00    -0.081 HD
ENDROOT
BRANCH   1  10
ATOM      8  N   UNL     1       3.306   3.139   5.832  0.00  0.00    -0.271 N 
ATOM      9  C   UNL     1       2.675   1.966   5.615  0.00  0.00    +0.112 A 
ATOM     10  C   UNL     1       3.068   1.101   6.578  0.00  0.00    -0.007 A 
ATOM     11  C   UNL     1       3.972   1.768   7.412  0.00  0.00    +0.138 A 
ATOM     12  N   UNL     1       4.120   2.988   6.963  0.00  0.00    -0.179 NA
BRANCH   8  14
ATOM     13  C   UNL     1       2.769   5.523   5.927  0.00  0.00    +0.029 C 
ATOM     14  C   UNL     1       3.170   4.354   5.025  0.00  0.00    +0.140 C 
ENDBRANCH   8  14
ENDBRANCH   1  10
BRANCH   4  15
ATOM     15  C   UNL     1       2.388  -4.222   8.442  0.00  0.00    +0.019 C 
BRANCH  15  16
ATOM     16  C   UNL     1       3.635  -5.066   8.491  0.00  0.00    +0.201 C 
ATOM     17  O   UNL     1       4.722  -4.552   8.336  0.00  0.00    -0.278 OA
ATOM     18  N   UNL     1       3.542  -6.394   8.708  0.00  0.00    -0.284 N 
ATOM     19  H   UNL     1       2.678  -6.796   8.891  0.00  0.00    +0.155 HD
BRANCH  18  20
ATOM     20  C   UNL     1       4.698  -7.196   8.670  0.00  0.00    +0.077 A 
ATOM     21  C   UNL     1       5.555  -7.357   7.572  0.00  0.00    +0.081 A 
ATOM     22  N   UNL     1       6.516  -8.176   7.916  0.00  0.00    -0.175 NA
ATOM     23  N   UNL     1       6.308  -8.566   9.245  0.00  0.00    -0.270 N 
ATOM     24  C   UNL     1       5.185  -7.946   9.691  0.00  0.00    +0.057 A 
ATOM     25  C   UNL     1       4.586  -8.070  11.069  0.00  0.00    +0.067 C 
ATOM     26  C   UNL     1       7.155  -9.477  10.019  0.00  0.00    +0.172 C 
ATOM     27  C   UNL     1       5.396  -6.702   6.224  0.00  0.00    +0.069 C 
ENDBRANCH  18  20
ENDBRANCH  15  16
ENDBRANCH   4  15
TORSDOF 5
