REMARK  Name = ZINC12655324
REMARK  7 active torsions:
REMARK  status: ('A' for Active; 'I' for Inactive)
REMARK    1  A    between atoms: C_4  and  C_7
REMARK    2  A    between atoms: N_9  and  C_10
REMARK    3  A    between atoms: C_10  and  C_19
REMARK    4  A    between atoms: C_11  and  C_12
REMARK    5  A    between atoms: C_19  and  O_21
REMARK    6  A    between atoms: O_21  and  C_22
REMARK    7  A    between atoms: C_22  and  N_23
REMARK                            x       y       z     vdW  Elec       q    Type
REMARK                         _______ _______ _______ _____ _____    ______ ____
ROOT
ATOM      1  C   UNL     1       3.238   2.763  -1.239  0.00  0.00    +0.119 C 
ATOM      2  C   UNL     1       4.060   2.774  -0.163  0.00  0.00    +0.038 C 
ENDROOT
BRANCH   2   3
ATOM      3  C   UNL     1       5.479   3.123  -0.326  0.00  0.00    -0.023 A 
ATOM      4  C   UNL     1       6.405   2.781   0.666  0.00  0.00    +0.011 A 
ATOM      5  C   UNL     1       7.734   3.106   0.505  0.00  0.00    +0.039 A 
ATOM      6  C   UNL     1       8.153   3.780  -0.631  0.00  0.00    +0.123 A 
ATOM      7  C   UNL     1       7.240   4.127  -1.616  0.00  0.00    +0.039 A 
ATOM      8  C   UNL     1       5.909   3.803  -1.470  0.00  0.00    +0.011 A 
ATOM      9  F   UNL     1       9.457   4.101  -0.781  0.00  0.00    -0.205 F 
ENDBRANCH   2   3
BRANCH   1  12
ATOM     10  C   UNL     1       3.314   3.940  -3.305  0.00  0.00    +0.248 C 
ATOM     11  O   UNL     1       2.376   4.622  -2.939  0.00  0.00    -0.270 OA
ATOM     12  N   UNL     1       3.764   2.939  -2.523  0.00  0.00    -0.276 N 
ATOM     13  H   UNL     1       4.454   2.340  -2.851  0.00  0.00    +0.155 HD
BRANCH  10  17
ATOM     14  C   UNL     1       5.171   4.715  -7.045  0.00  0.00    +0.000 A 
ATOM     15  C   UNL     1       4.178   5.559  -6.582  0.00  0.00    +0.001 A 
ATOM     16  C   UNL     1       3.571   5.313  -5.368  0.00  0.00    +0.013 A 
ATOM     17  C   UNL     1       3.960   4.210  -4.607  0.00  0.00    +0.037 A 
ATOM     18  C   UNL     1       4.966   3.365  -5.078  0.00  0.00    +0.013 A 
ATOM     19  C   UNL     1       5.562   3.619  -6.296  0.00  0.00    +0.001 A 
ENDBRANCH  10  17
ENDBRANCH   1  12
BRANCH   1  20
ATOM     20  C   UNL     1       1.795   2.567  -1.058  0.00  0.00    +0.355 C 
ATOM     21  O   UNL     1       1.057   2.557  -2.024  0.00  0.00    -0.243 OA
BRANCH  20  22
ATOM     22  O   UNL     1       1.287   2.397   0.180  0.00  0.00    -0.440 OA
BRANCH  22  23
ATOM     23  C   UNL     1      -0.149   2.208   0.284  0.00  0.00    +0.353 C 
BRANCH  23  24
ATOM     24  N   UNL     1      -0.483   0.818  -0.035  0.00  0.00    -0.199 N 
ATOM     25  C   UNL     1      -0.493   0.303  -1.278  0.00  0.00    +0.256 C 
ATOM     26  O   UNL     1      -0.230   0.908  -2.298  0.00  0.00    -0.269 OA
ATOM     27  C   UNL     1      -0.874  -1.123  -1.194  0.00  0.00    +0.049 A 
ATOM     28  C   UNL     1      -1.044  -2.135  -2.125  0.00  0.00    +0.014 A 
ATOM     29  C   UNL     1      -1.424  -3.400  -1.702  0.00  0.00    +0.001 A 
ATOM     30  C   UNL     1      -1.634  -3.657  -0.361  0.00  0.00    +0.001 A 
ATOM     31  C   UNL     1      -1.468  -2.654   0.581  0.00  0.00    +0.014 A 
ATOM     32  C   UNL     1      -1.088  -1.385   0.174  0.00  0.00    +0.049 A 
ATOM     33  C   UNL     1      -0.825  -0.111   0.876  0.00  0.00    +0.256 C 
ATOM     34  O   UNL     1      -0.904   0.067   2.075  0.00  0.00    -0.269 OA
ENDBRANCH  23  24
ENDBRANCH  22  23
ENDBRANCH  20  22
ENDBRANCH   1  20
TORSDOF 7
