REMARK  Name = ZINC20249073
REMARK  5 active torsions:
REMARK  status: ('A' for Active; 'I' for Inactive)
REMARK    1  A    between atoms: C_1  and  C_2
REMARK    2  A    between atoms: C_5  and  C_7
REMARK    3  A    between atoms: N_9  and  C_10
REMARK    4  A    between atoms: C_14  and  N_17
REMARK    5  A    between atoms: C_15  and  C_16
REMARK                            x       y       z     vdW  Elec       q    Type
REMARK                         _______ _______ _______ _____ _____    ______ ____
ROOT
ATOM      1  C   UNL     1      -1.306   2.066  -0.561  0.00  0.00    +0.284 C 
ATOM      2  O   UNL     1      -1.282   3.163  -1.089  0.00  0.00    -0.266 OA
ATOM      3  N   UNL     1      -2.438   1.625   0.023  0.00  0.00    -0.279 N 
ATOM      4  H   UNL     1      -2.488   0.600   0.420  0.00  0.00    +0.155 HD
ENDROOT
BRANCH   3   5
ATOM      5  C   UNL     1      -3.547   2.470   0.126  0.00  0.00    +0.038 A 
ATOM      6  C   UNL     1      -3.374   3.849   0.124  0.00  0.00    +0.024 A 
ATOM      7  C   UNL     1      -4.469   4.684   0.225  0.00  0.00    +0.004 A 
ATOM      8  C   UNL     1      -5.740   4.153   0.328  0.00  0.00    +0.023 A 
ATOM      9  C   UNL     1      -5.921   2.775   0.330  0.00  0.00    +0.029 A 
ATOM     10  C   UNL     1      -4.822   1.933   0.224  0.00  0.00    -0.009 A 
ATOM     11  C   UNL     1      -5.015   0.438   0.220  0.00  0.00    +0.047 C 
BRANCH   9  12
ATOM     12  N   UNL     1      -7.206   2.238   0.433  0.00  0.00    -0.358 N 
ATOM     13  H   UNL     1      -7.348   1.147   0.434  0.00  0.00    +0.142 HD
ATOM     14  H   UNL     1      -8.076   2.906   0.513  0.00  0.00    +0.142 HD
ENDBRANCH   9  12
ENDBRANCH   3   5
BRANCH   1  19
ATOM     15  C   UNL     1       1.759  -1.809   0.248  0.00  0.00    +0.086 C 
ATOM     16  C   UNL     1       1.242  -0.470  -0.213  0.00  0.00    +0.103 A 
ATOM     17  C   UNL     1       1.953   0.457  -0.892  0.00  0.00    +0.045 A 
ATOM     18  C   UNL     1       1.099   1.547  -1.120  0.00  0.00    +0.055 A 
ATOM     19  C   UNL     1      -0.105   1.226  -0.562  0.00  0.00    +0.190 A 
ATOM     20  O   UNL     1       0.002  -0.003  -0.016  0.00  0.00    -0.455 OA
ENDBRANCH   1  19
TORSDOF 3
