REMARK  Name = ZINC38965902
REMARK  7 active torsions:
REMARK  status: ('A' for Active; 'I' for Inactive)
REMARK    1  A    between atoms: C_1  and  O_2
REMARK    2  A    between atoms: O_2  and  C_3
REMARK    3  A    between atoms: C_6  and  N_9
REMARK    4  A    between atoms: N_9  and  C_10
REMARK    5  A    between atoms: C_12  and  C_21
REMARK    6  A    between atoms: C_26  and  O_33
REMARK    7  A    between atoms: O_33  and  C_34
REMARK                            x       y       z     vdW  Elec       q    Type
REMARK                         _______ _______ _______ _____ _____    ______ ____
ROOT
ATOM      1  C   UNL     1       2.510  -3.963   4.343  0.00  0.00    +0.188 C 
ATOM      2  C   UNL     1       2.125  -4.388   5.772  0.00  0.00    +0.135 C 
ATOM      3  N   UNL     1       3.291  -5.140   6.247  0.00  0.00    -0.366 N 
ATOM      4  C   UNL     1       4.220  -5.182   5.315  0.00  0.00    +0.100 C 
ATOM      5  N   UNL     1       3.859  -4.525   4.163  0.00  0.00    -0.272 N 
ATOM      6  C   UNL     1       4.702  -4.470   3.091  0.00  0.00    +0.078 C 
ATOM      7  C   UNL     1       5.914  -5.059   3.132  0.00  0.00    +0.015 C 
ATOM      8  C   UNL     1       6.325  -5.743   4.289  0.00  0.00    +0.005 C 
ATOM      9  C   UNL     1       5.498  -5.808   5.371  0.00  0.00    +0.042 C 
ATOM     10  H   UNL     1       3.368  -5.547   7.124  0.00  0.00    +0.161 HD
ENDROOT
BRANCH   2  11
ATOM     11  C   UNL     1       0.882  -5.280   5.750  0.00  0.00    +0.124 C 
ATOM     12  C   UNL     1       0.429  -5.482   7.182  0.00  0.00    -0.002 C 
ATOM     13  C   UNL     1       0.352  -6.764   7.639  0.00  0.00    -0.003 A 
ATOM     14  C   UNL     1      -0.076  -7.047   9.009  0.00  0.00    +0.055 A 
ATOM     15  C   UNL     1      -0.137  -8.344   9.423  0.00  0.00    +0.121 A 
ATOM     16  C   UNL     1       0.201  -9.397   8.565  0.00  0.00    +0.047 A 
ATOM     17  C   UNL     1       0.605  -9.196   7.284  0.00  0.00    +0.027 A 
ATOM     18  C   UNL     1       0.701  -7.894   6.760  0.00  0.00    +0.041 A 
ATOM     19  N   UNL     1       1.099  -7.711   5.501  0.00  0.00    -0.284 N 
ATOM     20  C   UNL     1       1.213  -6.517   4.946  0.00  0.00    +0.226 C 
ATOM     21  O   UNL     1       1.582  -6.415   3.791  0.00  0.00    -0.275 OA
ATOM     22  H   UNL     1       1.316  -8.492   4.967  0.00  0.00    +0.155 HD
BRANCH  15  23
ATOM     23  O   UNL     1      -0.533  -8.620  10.694  0.00  0.00    -0.495 OA
ATOM     24  C   UNL     1      -0.579  -9.996  11.074  0.00  0.00    +0.277 C 
ENDBRANCH  15  23
ENDBRANCH   2  11
BRANCH   1  25
ATOM     25  N   UNL     1       2.540  -2.503   4.230  0.00  0.00    -0.324 N 
ATOM     26  H   UNL     1       2.882  -1.967   4.963  0.00  0.00    +0.148 HD
BRANCH  25  30
ATOM     27  C   UNL     1       1.156  -0.652   0.761  0.00  0.00    +0.120 A 
ATOM     28  C   UNL     1       1.264  -2.033   0.814  0.00  0.00    +0.047 A 
ATOM     29  C   UNL     1       1.723  -2.648   1.962  0.00  0.00    +0.026 A 
ATOM     30  C   UNL     1       2.075  -1.881   3.066  0.00  0.00    +0.029 A 
ATOM     31  C   UNL     1       1.966  -0.498   3.013  0.00  0.00    +0.026 A 
ATOM     32  C   UNL     1       1.513   0.115   1.861  0.00  0.00    +0.047 A 
BRANCH  27  34
ATOM     33  C   UNL     1       0.354  -0.898  -1.464  0.00  0.00    +0.277 C 
ATOM     34  O   UNL     1       0.704  -0.048  -0.370  0.00  0.00    -0.495 OA
ENDBRANCH  27  34
ENDBRANCH  25  30
ENDBRANCH   1  25
TORSDOF 5
