REMARK  Name = ZINC39280172
REMARK  6 active torsions:
REMARK  status: ('A' for Active; 'I' for Inactive)
REMARK    1  A    between atoms: C_1  and  C_2
REMARK    2  A    between atoms: C_2  and  N_3
REMARK    3  A    between atoms: C_13  and  C_21
REMARK    4  A    between atoms: C_15  and  C_19
REMARK    5  A    between atoms: C_16  and  N_18
REMARK    6  A    between atoms: C_24  and  C_27
REMARK                            x       y       z     vdW  Elec       q    Type
REMARK                         _______ _______ _______ _____ _____    ______ ____
ROOT
ATOM      1  N   UNL     1      -1.372  -0.511   0.012  0.00  0.00    -0.264 NA
ATOM      2  C   UNL     1      -1.829  -1.179  -1.011  0.00  0.00    +0.151 C 
ATOM      3  N   UNL     1      -1.155  -1.512  -2.197  0.00  0.00    -0.304 N 
ATOM      4  C   UNL     1      -1.619  -2.753  -2.747  0.00  0.00    +0.181 C 
ATOM      5  C   UNL     1      -3.176  -2.711  -2.845  0.00  0.00    +0.158 C 
ATOM      6  S   UNL     1      -3.461  -1.893  -1.226  0.00  0.00    -0.076 S 
ATOM      7  C   UNL     1      -3.603  -4.151  -2.865  0.00  0.00    +0.133 C 
ATOM      8  C   UNL     1      -2.862  -4.984  -3.629  0.00  0.00    +0.066 C 
ATOM      9  C   UNL     1      -3.198  -6.447  -3.709  0.00  0.00    +0.103 C 
ATOM     10  C   UNL     1      -4.122  -6.833  -2.587  0.00  0.00    +0.098 C 
ATOM     11  C   UNL     1      -4.795  -5.890  -1.884  0.00  0.00    +0.198 C 
ATOM     12  O   UNL     1      -4.659  -4.580  -2.163  0.00  0.00    -0.444 OA
ATOM     13  C   UNL     1      -1.727  -4.456  -4.397  0.00  0.00    +0.246 C 
ATOM     14  O   UNL     1      -1.370  -4.997  -5.428  0.00  0.00    -0.270 OA
ATOM     15  N   UNL     1      -1.088  -3.357  -3.931  0.00  0.00    -0.292 N 
ATOM     16  H   UNL     1      -0.314  -2.995  -4.391  0.00  0.00    +0.151 HD
ATOM     17  H   UNL     1      -0.458  -0.969  -2.597  0.00  0.00    +0.150 HD
ENDROOT
BRANCH   9  18
ATOM     18  C   UNL     1      -3.873  -6.732  -5.027  0.00  0.00    -0.034 A 
ATOM     19  C   UNL     1      -5.056  -6.093  -5.350  0.00  0.00    +0.005 A 
ATOM     20  C   UNL     1      -5.675  -6.354  -6.558  0.00  0.00    +0.003 A 
ATOM     21  C   UNL     1      -5.111  -7.255  -7.443  0.00  0.00    -0.050 A 
ATOM     22  C   UNL     1      -3.929  -7.893  -7.120  0.00  0.00    +0.003 A 
ATOM     23  C   UNL     1      -3.307  -7.629  -5.913  0.00  0.00    +0.005 A 
ATOM     24  C   UNL     1      -5.787  -7.540  -8.759  0.00  0.00    +0.044 C 
ENDBRANCH   9  18
BRANCH  11  25
ATOM     25  N   UNL     1      -5.632  -6.278  -0.868  0.00  0.00    -0.328 N 
ATOM     26  H   UNL     1      -5.737  -7.219  -0.659  0.00  0.00    +0.145 HD
ATOM     27  H   UNL     1      -6.119  -5.611  -0.359  0.00  0.00    +0.145 HD
ENDBRANCH  11  25
BRANCH   1  29
ATOM     28  C   UNL     1      -0.019   1.526   0.010  0.00  0.00    +0.029 C 
ATOM     29  C   UNL     1       0.002  -0.004   0.002  0.00  0.00    +0.141 C 
ENDBRANCH   1  29
BRANCH  10  30
ATOM     30  C   UNL     1      -4.292  -8.216  -2.256  0.00  0.00    +0.101 C 
ATOM     31  N   UNL     1      -4.427  -9.313  -1.994  0.00  0.00    -0.191 NA
ENDBRANCH  10  30
TORSDOF 4
