REMARK  Name = ZINC67139798
REMARK  9 active torsions:
REMARK  status: ('A' for Active; 'I' for Inactive)
REMARK    1  A    between atoms: C_1  and  C_2
REMARK    2  A    between atoms: C_2  and  C_3
REMARK    3  A    between atoms: C_2  and  C_4
REMARK    4  A    between atoms: C_2  and  O_5
REMARK    5  A    between atoms: O_5  and  C_6
REMARK    6  A    between atoms: N_8  and  C_9
REMARK    7  A    between atoms: C_9  and  C_10
REMARK    8  A    between atoms: N_12  and  N_13
REMARK    9  A    between atoms: C_14  and  C_16
REMARK                            x       y       z     vdW  Elec       q    Type
REMARK                         _______ _______ _______ _____ _____    ______ ____
ROOT
ATOM      1  C   UNL     1       4.570  -0.648  -3.886  0.00  0.00    +0.246 C 
ATOM      2  O   UNL     1       3.858  -1.337  -4.585  0.00  0.00    -0.273 OA
ATOM      3  N   UNL     1       5.841  -0.399  -4.259  0.00  0.00    -0.233 N 
ATOM      4  H   UNL     1       6.411   0.152  -3.700  0.00  0.00    +0.173 HD
ENDROOT
BRANCH   3   5
ATOM      5  N   UNL     1       6.339  -0.935  -5.454  0.00  0.00    -0.229 N 
ATOM      6  C   UNL     1       7.610  -0.685  -5.827  0.00  0.00    +0.276 C 
ATOM      7  O   UNL     1       8.325   0.006  -5.125  0.00  0.00    -0.267 OA
ATOM      8  H   UNL     1       5.769  -1.486  -6.013  0.00  0.00    +0.173 HD
BRANCH   6   9
ATOM      9  C   UNL     1       8.131  -1.247  -7.077  0.00  0.00    +0.104 A 
ATOM     10  C   UNL     1       9.406  -1.080  -7.577  0.00  0.00    +0.047 A 
ATOM     11  C   UNL     1       9.470  -1.784  -8.784  0.00  0.00    +0.036 A 
ATOM     12  C   UNL     1       8.259  -2.355  -8.996  0.00  0.00    +0.098 A 
ATOM     13  N   UNL     1       7.439  -2.041  -7.963  0.00  0.00    -0.356 N 
ATOM     14  H   UNL     1       6.517  -2.327  -7.866  0.00  0.00    +0.166 HD
ATOM     15 BR   UNL     1      10.977  -1.913  -9.919  0.00  0.00    -0.049 Br
ENDBRANCH   6   9
ENDBRANCH   3   5
BRANCH   1  16
ATOM     16  C   UNL     1       4.035  -0.071  -2.601  0.00  0.00    +0.205 C 
BRANCH  16  19
ATOM     17  C   UNL     1       1.952  -0.085  -1.337  0.00  0.00    +0.401 C 
ATOM     18  O   UNL     1       2.488   0.619  -0.503  0.00  0.00    -0.226 OA
ATOM     19  N   UNL     1       2.641  -0.485  -2.424  0.00  0.00    -0.272 N 
ATOM     20  H   UNL     1       2.213  -1.047  -3.089  0.00  0.00    +0.153 HD
BRANCH  17  21
ATOM     21  O   UNL     1       0.671  -0.465  -1.174  0.00  0.00    -0.445 OA
BRANCH  21  23
ATOM     22  C   UNL     1      -0.019   1.526   0.010  0.00  0.00    +0.055 C 
ATOM     23  C   UNL     1       0.002  -0.004   0.002  0.00  0.00    +0.107 C 
ATOM     24  C   UNL     1       0.742  -0.511   1.242  0.00  0.00    +0.055 C 
ATOM     25  C   UNL     1      -1.433  -0.534   0.013  0.00  0.00    +0.055 C 
ENDBRANCH  21  23
ENDBRANCH  17  21
ENDBRANCH  16  19
ENDBRANCH   1  16
TORSDOF 6
