REMARK  Name = ZINC14904601
REMARK  3 active torsions:
REMARK  status: ('A' for Active; 'I' for Inactive)
REMARK    1  A    between atoms: N_10  and  N_11
REMARK    2  A    between atoms: C_15  and  C_16
REMARK    3  A    between atoms: C_20  and  N_22
REMARK                            x       y       z     vdW  Elec       q    Type
REMARK                         _______ _______ _______ _____ _____    ______ ____
ROOT
ATOM      1  N   UNL     1       4.099  -5.693   0.051  0.00  0.00    -0.170 N 
ATOM      2  C   UNL     1       4.714  -5.645  -1.119  0.00  0.00    +0.275 C 
ATOM      3  O   UNL     1       4.094  -5.598  -2.166  0.00  0.00    -0.267 OA
ATOM      4  C   UNL     1       6.192  -5.649  -1.091  0.00  0.00    +0.079 C 
ATOM      5  C   UNL     1       7.077  -5.607  -2.118  0.00  0.00    +0.028 C 
ATOM      6  S   UNL     1       6.492  -5.725   0.670  0.00  0.00    -0.059 S 
ATOM      7  C   UNL     1       4.790  -5.739   1.208  0.00  0.00    +0.138 C 
ATOM      8  S   UNL     1       4.182  -5.800   2.807  0.00  0.00    -0.026 S 
ENDROOT
BRANCH   1  18
ATOM      9  C   UNL     1      -1.540  -1.573   1.480  0.00  0.00    +0.002 A 
ATOM     10  C   UNL     1      -0.598  -0.594   1.759  0.00  0.00    +0.001 A 
ATOM     11  C   UNL     1       0.747  -0.892   1.631  0.00  0.00    +0.017 A 
ATOM     12  C   UNL     1       1.127  -2.149   1.231  0.00  0.00    +0.041 A 
ATOM     13  C   UNL     1       0.196  -3.171   0.939  0.00  0.00    +0.080 A 
ATOM     14  C   UNL     1      -1.169  -2.831   1.080  0.00  0.00    +0.029 A 
ATOM     15  N   UNL     1       0.725  -4.354   0.557  0.00  0.00    -0.224 NA
ATOM     16  C   UNL     1       2.021  -4.549   0.462  0.00  0.00    +0.176 A 
ATOM     17  S   UNL     1       2.681  -2.958   0.938  0.00  0.00    -0.051 S 
ATOM     18  N   UNL     1       2.699  -5.691   0.089  0.00  0.00    -0.234 N 
ATOM     19  H   UNL     1       2.206  -6.493  -0.146  0.00  0.00    +0.173 HD
ENDBRANCH   1  18
BRANCH   5  20
ATOM     20  C   UNL     1       8.510  -5.810  -1.862  0.00  0.00    -0.022 A 
ATOM     21  C   UNL     1       8.947  -6.232  -0.601  0.00  0.00    +0.008 A 
ATOM     22  C   UNL     1      10.293  -6.421  -0.370  0.00  0.00    +0.003 A 
ATOM     23  C   UNL     1      11.211  -6.195  -1.381  0.00  0.00    +0.033 A 
ATOM     24  C   UNL     1      10.787  -5.778  -2.630  0.00  0.00    +0.127 A 
ATOM     25  C   UNL     1       9.444  -5.589  -2.880  0.00  0.00    +0.040 A 
BRANCH  24  26
ATOM     26  N   UNL     1      11.778  -5.539  -3.704  0.00  0.00    +0.056 N 
ATOM     27  O   UNL     1      12.956  -5.708  -3.488  0.00  0.00    -0.126 OA
ATOM     28  O   UNL     1      11.410  -5.175  -4.796  0.00  0.00    -0.126 OA
ENDBRANCH  24  26
ENDBRANCH   5  20
TORSDOF 3
