REMARK  Name = ZINC56663082
REMARK  11 active torsions:
REMARK  status: ('A' for Active; 'I' for Inactive)
REMARK    1  A    between atoms: C_1  and  C_2
REMARK    2  A    between atoms: C_2  and  C_4
REMARK    3  A    between atoms: C_2  and  N_12
REMARK    4  A    between atoms: C_4  and  C_5
REMARK    5  A    between atoms: C_8  and  O_11
REMARK    6  A    between atoms: N_15  and  C_16
REMARK    7  A    between atoms: C_20  and  C_22
REMARK    8  A    between atoms: N_24  and  C_25
REMARK    9  A    between atoms: C_25  and  C_26
REMARK   10  A    between atoms: C_25  and  C_27
REMARK   11  A    between atoms: C_25  and  C_28
REMARK                            x       y       z     vdW  Elec       q    Type
REMARK                         _______ _______ _______ _____ _____    ______ ____
ROOT
ATOM      1  N   UNL     1       0.721  -0.677   3.437  0.00  0.00    -0.296 N 
ATOM      2  C   UNL     1       2.064  -0.780   3.421  0.00  0.00    +0.304 C 
ATOM      3  O   UNL     1       2.698  -0.632   4.448  0.00  0.00    -0.253 OA
ATOM      4  N   UNL     1       2.706  -1.046   2.266  0.00  0.00    -0.269 N 
ATOM      5  H   UNL     1       0.215  -0.795   2.618  0.00  0.00    +0.151 HD
ATOM      6  H   UNL     1       2.198  -1.230   1.460  0.00  0.00    +0.156 HD
ENDROOT
BRANCH   4   7
ATOM      7  C   UNL     1       4.105  -1.058   2.228  0.00  0.00    +0.035 A 
ATOM      8  C   UNL     1       4.774  -0.603   1.098  0.00  0.00    +0.023 A 
ATOM      9  C   UNL     1       6.155  -0.612   1.056  0.00  0.00    +0.003 A 
ATOM     10  C   UNL     1       6.880  -1.072   2.137  0.00  0.00    +0.013 A 
ATOM     11  C   UNL     1       6.218  -1.530   3.277  0.00  0.00    +0.038 A 
ATOM     12  C   UNL     1       4.823  -1.516   3.321  0.00  0.00    +0.036 A 
BRANCH  11  13
ATOM     13  C   UNL     1       6.991  -2.023   4.437  0.00  0.00    +0.245 C 
ATOM     14  O   UNL     1       6.413  -2.422   5.429  0.00  0.00    -0.270 OA
ATOM     15  N   UNL     1       8.338  -2.031   4.394  0.00  0.00    -0.307 N 
ATOM     16  H   UNL     1       8.800  -1.713   3.602  0.00  0.00    +0.150 HD
BRANCH  15  17
ATOM     17  C   UNL     1       9.105  -2.520   5.543  0.00  0.00    +0.026 C 
ATOM     18  C   UNL     1       8.736  -3.979   5.819  0.00  0.00    +0.031 C 
ATOM     19  C   UNL     1      10.601  -2.422   5.236  0.00  0.00    +0.031 C 
ATOM     20  C   UNL     1       8.779  -1.669   6.772  0.00  0.00    +0.031 C 
ENDBRANCH  15  17
ENDBRANCH  11  13
ENDBRANCH   4   7
BRANCH   1  22
ATOM     21  C   UNL     1      -0.213  -1.692   5.457  0.00  0.00    +0.028 C 
ATOM     22  C   UNL     1       0.023  -0.388   4.693  0.00  0.00    +0.076 C 
BRANCH  22  23
ATOM     23  C   UNL     1      -1.321   0.276   4.388  0.00  0.00    +0.057 C 
BRANCH  23  24
ATOM     24  C   UNL     1      -1.084   1.618   3.745  0.00  0.00    -0.045 A 
ATOM     25  C   UNL     1      -0.960   2.748   4.532  0.00  0.00    +0.007 A 
ATOM     26  C   UNL     1      -0.743   3.980   3.945  0.00  0.00    +0.045 A 
ATOM     27  C   UNL     1      -0.650   4.082   2.565  0.00  0.00    +0.117 A 
ATOM     28  C   UNL     1      -0.774   2.947   1.778  0.00  0.00    +0.045 A 
ATOM     29  C   UNL     1      -0.986   1.717   2.370  0.00  0.00    +0.007 A 
BRANCH  27  30
ATOM     30  O   UNL     1      -0.437   5.293   1.985  0.00  0.00    -0.507 OA
ATOM     31  H   UNL     1       0.497   5.513   1.867  0.00  0.00    +0.292 HD
ENDBRANCH  27  30
ENDBRANCH  23  24
ENDBRANCH  22  23
ENDBRANCH   1  22
TORSDOF 7
