REMARK  Name = ZINC46341105
REMARK  5 active torsions:
REMARK  status: ('A' for Active; 'I' for Inactive)
REMARK    1  A    between atoms: C_3  and  N_14
REMARK    2  A    between atoms: C_4  and  S_10
REMARK    3  A    between atoms: C_6  and  N_7
REMARK    4  A    between atoms: S_10  and  N_13
REMARK    5  A    between atoms: N_14  and  C_15
REMARK                            x       y       z     vdW  Elec       q    Type
REMARK                         _______ _______ _______ _____ _____    ______ ____
ROOT
ATOM      1  C   UNL     1      -0.017   1.378   0.010  0.00  0.00    +0.034 A 
ATOM      2  C   UNL     1       1.169   2.087   0.002  0.00  0.00    +0.027 A 
ATOM      3  C   UNL     1       2.381   1.409  -0.013  0.00  0.00    +0.054 A 
ATOM      4  C   UNL     1       2.396   0.020  -0.021  0.00  0.00    +0.128 A 
ATOM      5  C   UNL     1       1.207  -0.682  -0.013  0.00  0.00    +0.063 A 
ATOM      6  C   UNL     1       0.002  -0.004   0.002  0.00  0.00    +0.128 A 
ENDROOT
BRANCH   6   7
ATOM      7  N   UNL     1      -1.270  -0.760   0.010  0.00  0.00    +0.056 N 
ATOM      8  O   UNL     1      -2.325  -0.168   0.023  0.00  0.00    -0.126 OA
ATOM      9  O   UNL     1      -1.256  -1.969   0.004  0.00  0.00    -0.126 OA
ENDBRANCH   6   7
BRANCH   4  10
ATOM     10  S   UNL     1       3.931  -0.846  -0.041  0.00  0.00    +0.058 S 
ATOM     11  O   UNL     1       4.735  -0.270   0.980  0.00  0.00    -0.153 OA
ATOM     12  O   UNL     1       3.616  -2.231  -0.072  0.00  0.00    -0.153 OA
BRANCH  10  13
ATOM     13  N   UNL     1       4.672  -0.496  -1.480  0.00  0.00    -0.203 NA
ATOM     14  H   UNL     1       4.239   0.093  -2.118  0.00  0.00    +0.144 HD
ATOM     15  H   UNL     1       5.538  -0.880  -1.685  0.00  0.00    +0.144 HD
ENDBRANCH  10  13
ENDBRANCH   4  10
BRANCH   3  16
ATOM     16  N   UNL     1       3.582   2.122  -0.021  0.00  0.00    -0.339 N 
ATOM     17  H   UNL     1       4.428   1.647  -0.032  0.00  0.00    +0.146 HD
BRANCH  16  18
ATOM     18  C   UNL     1       3.564   3.587  -0.014  0.00  0.00    +0.071 C 
ATOM     19  C   UNL     1       4.529   4.310  -0.956  0.00  0.00    +0.024 C 
ATOM     20  C   UNL     1       4.791   4.306   0.552  0.00  0.00    +0.024 C 
ENDBRANCH  16  18
ENDBRANCH   3  16
TORSDOF 5
