REMARK  Name = ZINC08236479
REMARK  5 active torsions:
REMARK  status: ('A' for Active; 'I' for Inactive)
REMARK    1  A    between atoms: C_1  and  C_2
REMARK    2  A    between atoms: C_2  and  C_24
REMARK    3  A    between atoms: C_9  and  N_12
REMARK    4  A    between atoms: C_13  and  C_15
REMARK    5  A    between atoms: C_18  and  N_21
REMARK                            x       y       z     vdW  Elec       q    Type
REMARK                         _______ _______ _______ _____ _____    ______ ____
ROOT
ATOM      1  N   UNL     1       1.143   1.901   0.001  0.00  0.00    -0.304 N 
ATOM      2  C   UNL     1      -0.014   1.211   0.009  0.00  0.00    +0.245 C 
ATOM      3  O   UNL     1       0.002  -0.004   0.002  0.00  0.00    -0.270 OA
ATOM      4  H   UNL     1       1.130   2.871   0.007  0.00  0.00    +0.150 HD
ENDROOT
BRANCH   1  13
ATOM      5  C   UNL     1       5.942   2.210  -1.177  0.00  0.00    +0.011 C 
ATOM      6  C   UNL     1       4.884   1.447  -0.378  0.00  0.00    -0.026 C 
ATOM      7  C   UNL     1       5.233   1.501   1.114  0.00  0.00    +0.081 C 
ATOM      8  C   UNL     1       4.061   0.961   1.898  0.00  0.00    +0.110 A 
ATOM      9  C   UNL     1       2.818   0.823   1.393  0.00  0.00    +0.014 A 
ATOM     10  C   UNL     1       2.011   0.292   2.415  0.00  0.00    +0.047 A 
ATOM     11  C   UNL     1       2.806   0.136   3.492  0.00  0.00    +0.195 A 
ATOM     12  O   UNL     1       4.047   0.544   3.169  0.00  0.00    -0.467 OA
ATOM     13  C   UNL     1       2.422   1.186  -0.015  0.00  0.00    +0.107 C 
ATOM     14  C   UNL     1       3.512   2.089  -0.606  0.00  0.00    +0.034 C 
ATOM     15  C   UNL     1       4.848  -0.011  -0.841  0.00  0.00    +0.011 C 
ENDBRANCH   1  13
BRANCH   2  16
ATOM     16  C   UNL     1      -1.305   1.933   0.019  0.00  0.00    +0.037 A 
ATOM     17  C   UNL     1      -1.327   3.329   0.032  0.00  0.00    +0.015 A 
ATOM     18  C   UNL     1      -2.534   3.996   0.037  0.00  0.00    +0.033 A 
ATOM     19  C   UNL     1      -3.721   3.285   0.039  0.00  0.00    +0.126 A 
ATOM     20  C   UNL     1      -3.706   1.901   0.030  0.00  0.00    +0.033 A 
ATOM     21  C   UNL     1      -2.506   1.222   0.021  0.00  0.00    +0.015 A 
BRANCH  19  22
ATOM     22  N   UNL     1      -5.013   4.008   0.050  0.00  0.00    +0.056 N 
ATOM     23  O   UNL     1      -6.060   3.384   0.051  0.00  0.00    -0.126 OA
ATOM     24  O   UNL     1      -5.030   5.225   0.057  0.00  0.00    -0.126 OA
ENDBRANCH  19  22
ENDBRANCH   2  16
TORSDOF 3
