REMARK  Name = ZINC09505002
REMARK  4 active torsions:
REMARK  status: ('A' for Active; 'I' for Inactive)
REMARK    1  A    between atoms: C_1  and  C_2
REMARK    2  A    between atoms: C_17  and  C_19
REMARK    3  A    between atoms: N_22  and  S_25
REMARK    4  A    between atoms: S_25  and  C_28
REMARK                            x       y       z     vdW  Elec       q    Type
REMARK                         _______ _______ _______ _____ _____    ______ ____
ROOT
ATOM      1  C   UNL     1       0.767  -7.859  10.534  0.00  0.00    +0.047 C 
ATOM      2  C   UNL     1      -0.546  -7.668  11.249  0.00  0.00    -0.006 A 
ATOM      3  C   UNL     1      -0.633  -7.939  12.591  0.00  0.00    +0.046 A 
ATOM      4  C   UNL     1      -1.823  -7.776  13.287  0.00  0.00    +0.021 A 
ATOM      5  C   UNL     1      -2.946  -7.331  12.613  0.00  0.00    +0.019 A 
ATOM      6  C   UNL     1      -2.867  -7.058  11.271  0.00  0.00    +0.041 A 
ATOM      7  C   UNL     1      -1.674  -7.211  10.529  0.00  0.00    +0.085 A 
ATOM      8  N   UNL     1      -1.756  -6.901   9.217  0.00  0.00    -0.224 NA
ATOM      9  C   UNL     1      -2.870  -6.484   8.659  0.00  0.00    +0.162 A 
ATOM     10  S   UNL     1      -4.007  -6.476  10.038  0.00  0.00    -0.052 S 
ATOM     11  N   UNL     1      -3.101  -6.134   7.344  0.00  0.00    -0.307 N 
ATOM     12  C   UNL     1      -4.497  -5.721   7.147  0.00  0.00    +0.126 C 
ATOM     13  C   UNL     1      -4.760  -5.516   5.652  0.00  0.00    +0.126 C 
ATOM     14  N   UNL     1      -3.754  -4.581   5.125  0.00  0.00    -0.298 N 
ATOM     15  C   UNL     1      -2.335  -4.859   5.395  0.00  0.00    +0.126 C 
ATOM     16  C   UNL     1      -2.169  -5.087   6.906  0.00  0.00    +0.126 C 
ATOM     17  C   UNL     1      -4.122  -3.501   4.408  0.00  0.00    +0.219 C 
ATOM     18  O   UNL     1      -5.298  -3.235   4.272  0.00  0.00    -0.275 OA
ATOM     19 CL   UNL     1       0.775  -8.497  13.438  0.00  0.00    -0.083 Cl
ENDROOT
BRANCH  17  20
ATOM     20  C   UNL     1      -3.073  -2.623   3.775  0.00  0.00    +0.078 C 
ATOM     21  C   UNL     1      -2.760  -1.450   4.707  0.00  0.00    +0.030 C 
ATOM     22  C   UNL     1      -1.669  -0.579   4.077  0.00  0.00    +0.110 C 
ATOM     23  N   UNL     1      -2.101  -0.181   2.731  0.00  0.00    -0.176 NA
ATOM     24  C   UNL     1      -2.518  -1.225   1.784  0.00  0.00    +0.110 C 
ATOM     25  C   UNL     1      -3.594  -2.089   2.439  0.00  0.00    +0.030 C 
BRANCH  23  26
ATOM     26  S   UNL     1      -2.126   1.416   2.290  0.00  0.00    +0.067 S 
ATOM     27  O   UNL     1      -2.236   2.167   3.491  0.00  0.00    -0.152 OA
ATOM     28  O   UNL     1      -3.066   1.530   1.231  0.00  0.00    -0.152 OA
BRANCH  26  29
ATOM     29  C   UNL     1      -0.546   1.791   1.605  0.00  0.00    +0.143 A 
ATOM     30  C   UNL     1      -0.132   1.704   0.317  0.00  0.00    +0.036 A 
ATOM     31  C   UNL     1       1.168   2.056   0.005  0.00  0.00    +0.010 A 
ATOM     32  C   UNL     1       1.990   2.477   0.997  0.00  0.00    +0.047 A 
ATOM     33  S   UNL     1       0.923   2.385   2.426  0.00  0.00    -0.077 S 
ENDBRANCH  26  29
ENDBRANCH  23  26
ENDBRANCH  17  20
TORSDOF 3
