REMARK  Name = ZINC13237797
REMARK  12 active torsions:
REMARK  status: ('A' for Active; 'I' for Inactive)
REMARK    1  A    between atoms: C_1  and  C_2
REMARK    2  A    between atoms: C_4  and  C_31
REMARK    3  A    between atoms: C_6  and  S_10
REMARK    4  A    between atoms: C_7  and  C_8
REMARK    5  A    between atoms: S_10  and  C_11
REMARK    6  A    between atoms: C_11  and  C_12
REMARK    7  A    between atoms: N_14  and  C_15
REMARK    8  A    between atoms: C_16  and  C_29
REMARK    9  A    between atoms: C_17  and  C_28
REMARK   10  A    between atoms: C_18  and  C_27
REMARK   11  A    between atoms: N_19  and  C_20
REMARK   12  A    between atoms: C_20  and  C_21
REMARK                            x       y       z     vdW  Elec       q    Type
REMARK                         _______ _______ _______ _____ _____    ______ ____
ROOT
ATOM      1  C   UNL     1      -5.691   2.651  -1.568  0.00  0.00    +0.228 C 
ATOM      2  O   UNL     1      -6.005   3.566  -2.299  0.00  0.00    -0.275 OA
ATOM      3  N   UNL     1      -6.632   1.805  -1.104  0.00  0.00    -0.270 N 
ATOM      4  H   UNL     1      -6.373   1.035  -0.574  0.00  0.00    +0.156 HD
ENDROOT
BRANCH   3   5
ATOM      5  C   UNL     1      -7.970   2.036  -1.384  0.00  0.00    +0.123 A 
ATOM      6  C   UNL     1      -8.607   1.789  -2.592  0.00  0.00    +0.095 A 
ATOM      7  C   UNL     1     -10.007   2.187  -2.401  0.00  0.00    -0.011 A 
ATOM      8  C   UNL     1     -10.110   2.639  -1.140  0.00  0.00    +0.022 A 
ATOM      9  N   UNL     1      -8.889   2.549  -0.526  0.00  0.00    -0.329 N 
ATOM     10  C   UNL     1     -11.371   3.161  -0.502  0.00  0.00    +0.064 C 
ATOM     11  C   UNL     1     -11.111   2.111  -3.422  0.00  0.00    +0.047 C 
BRANCH   6  12
ATOM     12  C   UNL     1      -8.018   1.252  -3.782  0.00  0.00    +0.103 C 
ATOM     13  N   UNL     1      -7.551   0.825  -4.726  0.00  0.00    -0.191 NA
ENDBRANCH   6  12
BRANCH   9  14
ATOM     14  C   UNL     1      -8.615   2.950   0.856  0.00  0.00    +0.154 C 
BRANCH  14  15
ATOM     15  C   UNL     1      -8.318   4.451   0.903  0.00  0.00    +0.138 C 
ATOM     16  C   UNL     1      -8.114   4.913   2.367  0.00  0.00    +0.035 C 
ATOM     17  C   UNL     1      -7.232   6.176   2.156  0.00  0.00    +0.031 C 
ATOM     18  C   UNL     1      -6.383   5.782   0.929  0.00  0.00    +0.160 C 
ATOM     19  O   UNL     1      -7.075   4.734   0.241  0.00  0.00    -0.375 OA
ENDBRANCH  14  15
ENDBRANCH   9  14
ENDBRANCH   3   5
BRANCH   1  20
ATOM     20  C   UNL     1      -4.247   2.459  -1.179  0.00  0.00    +0.172 C 
BRANCH  20  21
ATOM     21  S   UNL     1      -3.237   3.744  -1.956  0.00  0.00    -0.096 S 
BRANCH  21  27
ATOM     22  C   UNL     1       1.977   4.443  -1.580  0.00  0.00    +0.045 C 
ATOM     23  C   UNL     1       0.737   3.667  -1.218  0.00  0.00    -0.032 A 
ATOM     24  C   UNL     1       0.808   2.562  -0.389  0.00  0.00    +0.027 A 
ATOM     25  C   UNL     1      -0.348   1.869  -0.074  0.00  0.00    +0.040 A 
ATOM     26  N   UNL     1      -1.518   2.239  -0.555  0.00  0.00    -0.245 NA
ATOM     27  C   UNL     1      -1.646   3.292  -1.349  0.00  0.00    +0.112 A 
ATOM     28  C   UNL     1      -0.517   4.047  -1.714  0.00  0.00    +0.098 A 
ATOM     29  C   UNL     1      -0.266   0.666   0.829  0.00  0.00    +0.065 C 
BRANCH  28  30
ATOM     30  C   UNL     1      -0.650   5.215  -2.601  0.00  0.00    +0.389 C 
ATOM     31  O   UNL     1      -0.562   5.076  -3.805  0.00  0.00    -0.240 OA
ATOM     32  O   UNL     1      -0.870   6.437  -2.077  0.00  0.00    -0.240 OA
ENDBRANCH  28  30
ENDBRANCH  21  27
ENDBRANCH  20  21
ENDBRANCH   1  20
TORSDOF 8
