REMARK  Name = ZINC08974753
REMARK  3 active torsions:
REMARK  status: ('A' for Active; 'I' for Inactive)
REMARK    1  A    between atoms: C_1  and  C_2
REMARK    2  A    between atoms: C_2  and  C_3
REMARK    3  A    between atoms: C_2  and  N_4
REMARK                            x       y       z     vdW  Elec       q    Type
REMARK                         _______ _______ _______ _____ _____    ______ ____
ROOT
ATOM      1  N   UNL     1      -0.749   3.044   1.275  0.00  0.00    -0.222 N 
ATOM      2  C   UNL     1      -1.929   3.679   1.290  0.00  0.00    +0.240 C 
ATOM      3  O   UNL     1      -2.950   3.024   1.300  0.00  0.00    -0.274 OA
ATOM      4  C   UNL     1      -2.024   5.178   1.293  0.00  0.00    +0.148 C 
ATOM      5  C   UNL     1      -2.807   5.644   0.062  0.00  0.00    +0.064 C 
ATOM      6  C   UNL     1      -3.208   7.088   0.225  0.00  0.00    -0.025 A 
ATOM      7  C   UNL     1      -3.643   7.776  -0.897  0.00  0.00    +0.005 A 
ATOM      8  C   UNL     1      -4.039   9.095  -0.801  0.00  0.00    +0.000 A 
ATOM      9  C   UNL     1      -4.002   9.738   0.423  0.00  0.00    +0.002 A 
ATOM     10  C   UNL     1      -3.566   9.063   1.542  0.00  0.00    +0.023 A 
ATOM     11  C   UNL     1      -3.161   7.730   1.450  0.00  0.00    +0.033 A 
ATOM     12  N   UNL     1      -2.721   7.102   2.611  0.00  0.00    -0.321 N 
ATOM     13  C   UNL     1      -2.788   5.641   2.538  0.00  0.00    +0.123 C 
ATOM     14  C   UNL     1      -2.154   5.033   3.791  0.00  0.00    +0.183 C 
ATOM     15  O   UNL     1      -2.812   5.558   4.948  0.00  0.00    -0.376 OA
ATOM     16  C   UNL     1      -2.776   6.984   5.051  0.00  0.00    +0.178 C 
ATOM     17  C   UNL     1      -3.417   7.601   3.804  0.00  0.00    +0.133 C 
ATOM     18  C   UNL     1      -0.656   5.797   1.284  0.00  0.00    +0.238 C 
ATOM     19  O   UNL     1      -0.556   7.006   1.286  0.00  0.00    -0.274 OA
ATOM     20  N   UNL     1       0.459   5.052   1.274  0.00  0.00    -0.239 N 
ATOM     21  C   UNL     1       0.415   3.711   1.273  0.00  0.00    +0.315 C 
ATOM     22  O   UNL     1       1.456   3.085   1.265  0.00  0.00    -0.252 OA
ATOM     23  H   UNL     1       1.445   5.538   1.267  0.00  0.00    +0.159 HD
ENDROOT
BRANCH   1  25
ATOM     24  C   UNL     1      -0.013   1.086   0.008  0.00  0.00    +0.028 C 
ATOM     25  C   UNL     1      -0.729   1.579   1.267  0.00  0.00    +0.080 C 
ATOM     26  C   UNL     1       0.011   1.072   2.506  0.00  0.00    +0.028 C 
ENDBRANCH   1  25
TORSDOF 1
