REMARK  Name = ZINC60376012
REMARK  8 active torsions:
REMARK  status: ('A' for Active; 'I' for Inactive)
REMARK    1  A    between atoms: C_1  and  C_2
REMARK    2  A    between atoms: C_5  and  C_7
REMARK    3  A    between atoms: C_13  and  C_15
REMARK    4  A    between atoms: C_15  and  O_16
REMARK    5  A    between atoms: O_16  and  C_17
REMARK    6  A    between atoms: C_19  and  C_28
REMARK    7  A    between atoms: C_21  and  C_27
REMARK    8  A    between atoms: N_24  and  C_26
REMARK                            x       y       z     vdW  Elec       q    Type
REMARK                         _______ _______ _______ _____ _____    ______ ____
ROOT
ATOM      1  C   UNL     1       1.040  -4.034  -0.026  0.00  0.00    +0.087 A 
ATOM      2  C   UNL     1       2.390  -4.260  -0.028  0.00  0.00    +0.077 A 
ATOM      3  S   UNL     1       2.430  -6.047  -0.040  0.00  0.00    -0.060 S 
ATOM      4  C   UNL     1       0.662  -6.312  -0.041  0.00  0.00    +0.165 A 
ATOM      5  N   UNL     1       0.208  -5.073  -0.027  0.00  0.00    -0.224 NA
ATOM      6  N   UNL     1      -0.046  -7.507  -0.050  0.00  0.00    -0.262 N 
ATOM      7  C   UNL     1       0.614  -8.682  -0.058  0.00  0.00    +0.256 C 
ATOM      8  O   UNL     1       1.826  -8.696  -0.059  0.00  0.00    -0.272 OA
ATOM      9  H   UNL     1      -1.016  -7.496  -0.050  0.00  0.00    +0.157 HD
ENDROOT
BRANCH   1  14
ATOM     10  C   UNL     1      -0.018   1.503   0.010  0.00  0.00    +0.051 C 
ATOM     11  C   UNL     1       0.002  -0.004   0.002  0.00  0.00    -0.013 A 
ATOM     12  C   UNL     1      -1.041  -0.871   0.002  0.00  0.00    +0.011 A 
ATOM     13  C   UNL     1      -0.789  -2.227  -0.007  0.00  0.00    +0.018 A 
ATOM     14  C   UNL     1       0.512  -2.653  -0.015  0.00  0.00    +0.038 A 
ATOM     15  S   UNL     1       1.405  -1.107  -0.018  0.00  0.00    -0.092 S 
ENDBRANCH   1  14
BRANCH   7  16
ATOM     16  C   UNL     1      -0.155  -9.978  -0.068  0.00  0.00    +0.326 C 
BRANCH  16  17
ATOM     17  O   UNL     1       0.761 -11.075  -0.076  0.00  0.00    -0.465 OA
BRANCH  17  18
ATOM     18  C   UNL     1       0.227 -12.325  -0.085  0.00  0.00    +0.244 A 
ATOM     19  C   UNL     1       0.971 -13.583  -0.088  0.00  0.00    +0.085 A 
ATOM     20  C   UNL     1       2.331 -13.912  -0.084  0.00  0.00    -0.033 A 
ATOM     21  C   UNL     1       2.675 -15.239  -0.090  0.00  0.00    +0.027 A 
ATOM     22  C   UNL     1       1.679 -16.206  -0.098  0.00  0.00    +0.041 A 
ATOM     23  N   UNL     1       0.405 -15.883  -0.102  0.00  0.00    -0.233 NA
ATOM     24  C   UNL     1       0.012 -14.614  -0.097  0.00  0.00    +0.162 A 
ATOM     25  N   UNL     1      -1.215 -14.008  -0.099  0.00  0.00    -0.246 N 
ATOM     26  N   UNL     1      -1.045 -12.620  -0.086  0.00  0.00    -0.131 NA
ATOM     27  C   UNL     1      -2.504 -14.704  -0.107  0.00  0.00    +0.175 C 
ATOM     28  C   UNL     1       2.069 -17.662  -0.104  0.00  0.00    +0.065 C 
ATOM     29  C   UNL     1       3.388 -12.838  -0.075  0.00  0.00    +0.045 C 
ENDBRANCH  17  18
ENDBRANCH  16  17
ENDBRANCH   7  16
TORSDOF 4
