REMARK  Name = ZINC63666903
REMARK  7 active torsions:
REMARK  status: ('A' for Active; 'I' for Inactive)
REMARK    1  A    between atoms: C_6  and  C_10
REMARK    2  A    between atoms: C_10  and  C_11
REMARK    3  A    between atoms: C_11  and  C_12
REMARK    4  A    between atoms: C_12  and  N_13
REMARK    5  A    between atoms: C_14  and  C_16
REMARK    6  A    between atoms: N_19  and  C_22
REMARK    7  A    between atoms: C_26  and  N_29
REMARK                            x       y       z     vdW  Elec       q    Type
REMARK                         _______ _______ _______ _____ _____    ______ ____
ROOT
ATOM      1  N   UNL     1       1.810  -6.528  -1.547  0.00  0.00    -0.315 N 
ATOM      2  C   UNL     1       2.227  -7.184  -2.649  0.00  0.00    +0.216 C 
ATOM      3  O   UNL     1       2.857  -6.596  -3.502  0.00  0.00    -0.276 OA
ATOM      4  H   UNL     1       1.306  -6.999  -0.865  0.00  0.00    +0.149 HD
ENDROOT
BRANCH   2   5
ATOM      5  C   UNL     1       1.909  -8.647  -2.820  0.00  0.00    +0.077 C 
ATOM      6  C   UNL     1       2.529  -9.443  -1.668  0.00  0.00    +0.028 C 
ATOM      7  C   UNL     1       2.255 -10.934  -1.880  0.00  0.00    +0.088 C 
ATOM      8  N   UNL     1       2.833 -11.362  -3.161  0.00  0.00    -0.271 NA
ATOM      9  C   UNL     1       2.220 -10.644  -4.286  0.00  0.00    +0.088 C 
ATOM     10  C   UNL     1       2.492  -9.145  -4.146  0.00  0.00    +0.028 C 
BRANCH   8  11
ATOM     11  C   UNL     1       2.711 -12.815  -3.334  0.00  0.00    +0.260 C 
ATOM     12  N   UNL     1       3.280 -13.254  -4.629  0.00  0.00    -0.159 NA
ATOM     13  N   UNL     1       2.653 -13.992  -5.363  0.00  0.00    -0.156 NA
ATOM     14  C   UNL     1       1.305 -14.472  -4.982  0.00  0.00    +0.279 C 
ATOM     15  S   UNL     1       0.949 -13.319  -3.580  0.00  0.00    -0.069 S 
BRANCH  14  16
ATOM     16  N   UNL     1       0.347 -14.297  -6.076  0.00  0.00    -0.270 N 
ATOM     17  C   UNL     1       0.207 -12.966  -6.655  0.00  0.00    +0.111 C 
ATOM     18  C   UNL     1      -0.441 -13.049  -8.037  0.00  0.00    +0.019 C 
ATOM     19  C   UNL     1      -1.718 -13.892  -7.931  0.00  0.00    +0.011 C 
ATOM     20  C   UNL     1      -1.319 -15.337  -7.622  0.00  0.00    +0.096 C 
ATOM     21  C   UNL     1      -0.339 -15.365  -6.484  0.00  0.00    +0.218 C 
ATOM     22  O   UNL     1      -0.165 -16.415  -5.902  0.00  0.00    -0.276 OA
ENDBRANCH  14  16
ENDBRANCH   8  11
ENDBRANCH   2   5
BRANCH   1  23
ATOM     23  C   UNL     1       2.118  -5.106  -1.380  0.00  0.00    +0.104 C 
BRANCH  23  24
ATOM     24  C   UNL     1       1.536  -4.610  -0.056  0.00  0.00    +0.022 C 
BRANCH  24  25
ATOM     25  C   UNL     1       1.858  -3.124   0.118  0.00  0.00    +0.048 C 
BRANCH  25  31
ATOM     26  C   UNL     1      -2.253   0.297   1.800  0.00  0.00    +0.002 A 
ATOM     27  C   UNL     1      -1.197   1.218   1.920  0.00  0.00    +0.002 A 
ATOM     28  C   UNL     1       0.098   0.848   1.878  0.00  0.00    +0.027 A 
ATOM     29  C   UNL     1       0.442  -0.569   1.700  0.00  0.00    +0.060 A 
ATOM     30  N   UNL     1       1.577  -1.202   1.624  0.00  0.00    -0.363 N 
ATOM     31  C   UNL     1       1.275  -2.628   1.443  0.00  0.00    +0.174 C 
ATOM     32  N   UNL     1      -0.189  -2.742   1.424  0.00  0.00    -0.363 N 
ATOM     33  C   UNL     1      -0.676  -1.544   1.574  0.00  0.00    +0.060 A 
ATOM     34  C   UNL     1      -2.049  -1.025   1.634  0.00  0.00    +0.027 A 
ATOM     35  H   UNL     1       2.460  -0.805   1.676  0.00  0.00    +0.162 HD
ATOM     36  H   UNL     1      -0.699  -3.560   1.319  0.00  0.00    +0.162 HD
ENDBRANCH  25  31
ENDBRANCH  24  25
ENDBRANCH  23  24
ENDBRANCH   1  23
TORSDOF 7
