REMARK  Name = ZINC31777902
REMARK  5 active torsions:
REMARK  status: ('A' for Active; 'I' for Inactive)
REMARK    1  A    between atoms: C_1  and  C_2
REMARK    2  A    between atoms: C_3  and  C_14
REMARK    3  A    between atoms: C_4  and  C_13
REMARK    4  A    between atoms: N_5  and  C_7
REMARK    5  A    between atoms: C_22  and  C_24
REMARK                            x       y       z     vdW  Elec       q    Type
REMARK                         _______ _______ _______ _____ _____    ______ ____
ROOT
ATOM      1  C   UNL     1       4.763   0.805  -0.082  0.00  0.00    +0.196 C 
ATOM      2  C   UNL     1       5.882   1.230   0.829  0.00  0.00    +0.238 C 
ATOM      3  O   UNL     1       6.456   0.380   1.476  0.00  0.00    -0.273 OA
ATOM      4  N   UNL     1       6.272   2.499   0.958  0.00  0.00    -0.312 N 
ATOM      5  C   UNL     1       5.739   3.611   0.182  0.00  0.00    +0.123 C 
ATOM      6  C   UNL     1       4.358   3.268  -0.380  0.00  0.00    +0.128 C 
ATOM      7  N   UNL     1       4.425   1.921  -0.978  0.00  0.00    -0.280 N 
ATOM      8  C   UNL     1       4.188   1.720  -2.289  0.00  0.00    +0.248 C 
ATOM      9  O   UNL     1       3.983   2.668  -3.022  0.00  0.00    -0.270 OA
ATOM     10  H   UNL     1       7.052   2.679   1.712  0.00  0.00    +0.149 HD
ENDROOT
BRANCH   8  11
ATOM     11  C   UNL     1       4.179   0.349  -2.836  0.00  0.00    +0.042 A 
ATOM     12  C   UNL     1       4.486   0.130  -4.182  0.00  0.00    +0.062 A 
ATOM     13  C   UNL     1       4.482  -1.155  -4.689  0.00  0.00    +0.168 A 
ATOM     14  C   UNL     1       4.161  -2.231  -3.860  0.00  0.00    +0.184 A 
ATOM     15  C   UNL     1       3.851  -2.012  -2.524  0.00  0.00    +0.087 A 
ATOM     16  C   UNL     1       3.859  -0.732  -2.011  0.00  0.00    +0.037 A 
ATOM     17 CL   UNL     1       3.452  -3.353  -1.497  0.00  0.00    -0.080 Cl
ATOM     18  O   UNL     1       4.223  -3.379  -4.595  0.00  0.00    -0.451 OA
ATOM     19  C   UNL     1       4.980  -3.043  -5.772  0.00  0.00    +0.466 C 
ATOM     20  O   UNL     1       4.744  -1.633  -5.941  0.00  0.00    -0.453 OA
ENDBRANCH   8  11
BRANCH   1  23
ATOM     21  C   UNL     1       4.604  -1.544   2.039  0.00  0.00    +0.068 C 
ATOM     22  C   UNL     1       3.484  -0.602   1.678  0.00  0.00    +0.066 A 
ATOM     23  C   UNL     1       3.556   0.435   0.741  0.00  0.00    +0.026 A 
ATOM     24  C   UNL     1       2.349   1.047   0.705  0.00  0.00    +0.048 A 
ATOM     25  N   UNL     1       1.542   0.418   1.588  0.00  0.00    -0.236 N 
ATOM     26  N   UNL     1       2.278  -0.613   2.186  0.00  0.00    -0.171 NA
ATOM     27  C   UNL     1       1.973   2.219  -0.165  0.00  0.00    +0.066 C 
BRANCH  25  28
ATOM     28  C   UNL     1       0.205   0.741   1.859  0.00  0.00    +0.066 A 
ATOM     29  C   UNL     1      -0.208   2.066   1.837  0.00  0.00    +0.028 A 
ATOM     30  C   UNL     1      -1.528   2.381   2.099  0.00  0.00    +0.002 A 
ATOM     31  C   UNL     1      -2.434   1.379   2.393  0.00  0.00    +0.000 A 
ATOM     32  C   UNL     1      -2.024   0.058   2.422  0.00  0.00    +0.002 A 
ATOM     33  C   UNL     1      -0.707  -0.263   2.155  0.00  0.00    +0.028 A 
ENDBRANCH  25  28
ENDBRANCH   1  23
TORSDOF 3
