REMARK  Name = ZINC09426314
REMARK  6 active torsions:
REMARK  status: ('A' for Active; 'I' for Inactive)
REMARK    1  A    between atoms: C_1  and  C_2
REMARK    2  A    between atoms: C_11  and  C_13
REMARK    3  A    between atoms: N_20  and  C_21
REMARK    4  A    between atoms: C_21  and  C_22
REMARK    5  A    between atoms: C_25  and  O_28
REMARK    6  A    between atoms: O_28  and  C_29
REMARK                            x       y       z     vdW  Elec       q    Type
REMARK                         _______ _______ _______ _____ _____    ______ ____
ROOT
ATOM      1  C   UNL     1      -0.013   1.086   0.008  0.00  0.00    +0.066 C 
ATOM      2  C   UNL     1      -0.718   1.572   1.248  0.00  0.00    +0.047 A 
ATOM      3  C   UNL     1      -0.006   1.802   2.389  0.00  0.00    +0.093 A 
ATOM      4  C   UNL     1      -0.685   2.250   3.538  0.00  0.00    +0.257 A 
ATOM      5  O   UNL     1      -0.080   2.474   4.574  0.00  0.00    -0.267 OA
ATOM      6  N   UNL     1      -2.017   2.426   3.468  0.00  0.00    -0.259 N 
ATOM      7  C   UNL     1      -2.673   2.196   2.292  0.00  0.00    +0.206 A 
ATOM      8  N   UNL     1      -2.035   1.781   1.224  0.00  0.00    -0.221 NA
ATOM      9  N   UNL     1      -4.034   2.436   2.276  0.00  0.00    -0.259 N 
ATOM     10  C   UNL     1      -4.477   3.506   3.047  0.00  0.00    +0.162 C 
ATOM     11  C   UNL     1      -2.798   2.848   4.634  0.00  0.00    +0.192 C 
ATOM     12  N   UNL     1      -5.514   4.301   2.621  0.00  0.00    -0.314 N 
ATOM     13  H   UNL     1      -4.645   1.890   1.757  0.00  0.00    +0.158 HD
ATOM     14  H   UNL     1      -5.812   5.043   3.169  0.00  0.00    +0.149 HD
ATOM     15  N   UNL     1      -3.902   3.788   4.227  0.00  0.00    -0.340 N 
ATOM     16  H   UNL     1      -4.192   4.585   4.806  0.00  0.00    +0.164 HD
ENDROOT
BRANCH  11  17
ATOM     17  C   UNL     1      -3.393   1.619   5.324  0.00  0.00    +0.036 C 
ATOM     18  C   UNL     1      -2.263   0.691   5.789  0.00  0.00    +0.012 C 
ATOM     19  C   UNL     1      -2.886  -0.603   6.316  0.00  0.00    +0.027 C 
ATOM     20  C   UNL     1      -3.991  -0.293   7.283  0.00  0.00    -0.031 C 
ATOM     21  C   UNL     1      -4.566   0.863   7.380  0.00  0.00    -0.031 C 
ATOM     22  C   UNL     1      -4.200   2.057   6.548  0.00  0.00    +0.034 C 
ENDBRANCH  11  17
BRANCH  12  23
ATOM     23  C   UNL     1      -6.168   4.027   1.339  0.00  0.00    +0.139 C 
BRANCH  23  24
ATOM     24  C   UNL     1      -7.264   5.035   1.109  0.00  0.00    -0.030 A 
ATOM     25  C   UNL     1      -8.547   4.773   1.551  0.00  0.00    +0.009 A 
ATOM     26  C   UNL     1      -9.552   5.698   1.346  0.00  0.00    +0.046 A 
ATOM     27  C   UNL     1      -9.275   6.886   0.686  0.00  0.00    +0.120 A 
ATOM     28  C   UNL     1      -7.988   7.145   0.238  0.00  0.00    +0.046 A 
ATOM     29  C   UNL     1      -6.985   6.219   0.451  0.00  0.00    +0.009 A 
BRANCH  27  30
ATOM     30  O   UNL     1     -10.264   7.796   0.478  0.00  0.00    -0.495 OA
ATOM     31  C   UNL     1     -11.565   7.463   0.966  0.00  0.00    +0.277 C 
ENDBRANCH  27  30
ENDBRANCH  23  24
ENDBRANCH  12  23
TORSDOF 4
