REMARK  Name = ZINC16134273
REMARK  9 active torsions:
REMARK  status: ('A' for Active; 'I' for Inactive)
REMARK    1  A    between atoms: C_1  and  C_2
REMARK    2  A    between atoms: C_2  and  N_3
REMARK    3  A    between atoms: C_7  and  S_25
REMARK    4  A    between atoms: N_10  and  C_23
REMARK    5  A    between atoms: C_12  and  C_13
REMARK    6  A    between atoms: N_17  and  C_21
REMARK    7  A    between atoms: C_21  and  C_22
REMARK    8  A    between atoms: C_23  and  C_24
REMARK    9  A    between atoms: S_25  and  C_28
REMARK                            x       y       z     vdW  Elec       q    Type
REMARK                         _______ _______ _______ _____ _____    ______ ____
ROOT
ATOM      1  N   UNL     1       0.817  -0.355   1.276  0.00  0.00    -0.287 N 
ATOM      2  C   UNL     1       2.116  -0.852   1.235  0.00  0.00    +0.057 A 
ATOM      3  C   UNL     1       3.099  -0.843   0.255  0.00  0.00    +0.027 A 
ATOM      4  C   UNL     1       4.325  -1.429   0.504  0.00  0.00    +0.029 A 
ATOM      5  C   UNL     1       4.577  -2.025   1.728  0.00  0.00    +0.099 A 
ATOM      6  C   UNL     1       3.606  -2.039   2.709  0.00  0.00    +0.052 A 
ATOM      7  C   UNL     1       2.371  -1.453   2.469  0.00  0.00    +0.058 A 
ATOM      8  N   UNL     1       1.223  -1.314   3.243  0.00  0.00    -0.287 N 
ATOM      9  C   UNL     1       0.289  -0.640   2.505  0.00  0.00    +0.098 C 
ATOM     10  C   UNL     1      -0.984  -0.303   2.932  0.00  0.00    +0.043 C 
ENDROOT
BRANCH  10  11
ATOM     11  C   UNL     1      -1.337  -0.469   4.268  0.00  0.00    +0.055 C 
ATOM     12  C   UNL     1      -2.643  -0.247   4.673  0.00  0.00    +0.193 C 
ATOM     13  C   UNL     1      -3.718   0.141   3.856  0.00  0.00    +0.289 C 
ATOM     14  O   UNL     1      -3.678   0.346   2.654  0.00  0.00    -0.266 OA
ATOM     15  N   UNL     1      -4.802   0.243   4.651  0.00  0.00    -0.229 N 
ATOM     16  C   UNL     1      -4.441  -0.064   5.910  0.00  0.00    +0.243 C 
ATOM     17  S   UNL     1      -5.487  -0.070   7.266  0.00  0.00    +0.007 S 
ATOM     18  O   UNL     1      -3.134  -0.369   5.937  0.00  0.00    -0.430 OA
BRANCH  15  19
ATOM     19  C   UNL     1      -6.148   0.623   4.217  0.00  0.00    +0.114 C 
ATOM     20  C   UNL     1      -6.929  -0.631   3.817  0.00  0.00    +0.025 C 
ENDBRANCH  15  19
ENDBRANCH  10  11
BRANCH   5  21
ATOM     21  S   UNL     1       6.144  -2.770   2.034  0.00  0.00    +0.091 S 
ATOM     22  O   UNL     1       5.889  -3.761   3.020  0.00  0.00    -0.161 OA
ATOM     23  O   UNL     1       6.630  -3.134   0.750  0.00  0.00    -0.161 OA
BRANCH  21  24
ATOM     24  C   UNL     1       7.163  -1.442   2.734  0.00  0.00    +0.526 C 
ATOM     25  F   UNL     1       6.573  -0.973   3.913  0.00  0.00    -0.150 F 
ATOM     26  F   UNL     1       8.442  -1.934   3.016  0.00  0.00    -0.150 F 
ATOM     27  F   UNL     1       7.259  -0.393   1.813  0.00  0.00    -0.150 F 
ENDBRANCH  21  24
ENDBRANCH   5  21
BRANCH   1  29
ATOM     28  C   UNL     1       0.399   1.857   0.320  0.00  0.00    +0.025 C 
ATOM     29  C   UNL     1       0.135   0.355   0.191  0.00  0.00    +0.109 C 
ENDBRANCH   1  29
BRANCH   8  30
ATOM     30  C   UNL     1       1.047  -1.801   4.613  0.00  0.00    +0.109 C 
ATOM     31  C   UNL     1       1.386  -0.682   5.600  0.00  0.00    +0.025 C 
ENDBRANCH   8  30
TORSDOF 6
