REMARK  Name = ZINC64024367
REMARK  7 active torsions:
REMARK  status: ('A' for Active; 'I' for Inactive)
REMARK    1  A    between atoms: C_1  and  O_2
REMARK    2  A    between atoms: O_2  and  C_3
REMARK    3  A    between atoms: C_8  and  C_13
REMARK    4  A    between atoms: C_13  and  N_14
REMARK    5  A    between atoms: C_15  and  C_17
REMARK    6  A    between atoms: N_23  and  C_25
REMARK    7  A    between atoms: C_25  and  C_26
REMARK                            x       y       z     vdW  Elec       q    Type
REMARK                         _______ _______ _______ _____ _____    ______ ____
ROOT
ATOM      1  N   UNL     1       0.068  -3.969  -5.032  0.00  0.00    -0.311 N 
ATOM      2  C   UNL     1      -0.841  -4.433  -5.913  0.00  0.00    +0.218 C 
ATOM      3  O   UNL     1      -0.600  -5.425  -6.567  0.00  0.00    -0.275 OA
ATOM      4  H   UNL     1      -0.126  -3.175  -4.509  0.00  0.00    +0.149 HD
ENDROOT
BRANCH   2   5
ATOM      5  C   UNL     1      -2.157  -3.719  -6.084  0.00  0.00    +0.093 C 
ATOM      6  C   UNL     1      -2.916  -3.711  -4.752  0.00  0.00    +0.023 C 
ATOM      7  C   UNL     1      -4.156  -2.827  -4.906  0.00  0.00    +0.097 C 
ATOM      8  C   UNL     1      -4.900  -3.205  -6.155  0.00  0.00    +0.216 C 
ATOM      9  O   UNL     1      -6.053  -2.845  -6.267  0.00  0.00    -0.276 OA
ATOM     10  N   UNL     1      -4.361  -3.914  -7.147  0.00  0.00    -0.300 N 
ATOM     11  C   UNL     1      -3.003  -4.447  -7.129  0.00  0.00    +0.120 C 
BRANCH  10  12
ATOM     12  C   UNL     1      -5.182  -4.172  -8.332  0.00  0.00    +0.111 C 
BRANCH  12  13
ATOM     13  C   UNL     1      -4.979  -3.046  -9.348  0.00  0.00    +0.006 C 
ATOM     14  C   UNL     1      -5.507  -1.733  -8.767  0.00  0.00    +0.005 C 
ATOM     15  C   UNL     1      -5.303  -0.607  -9.783  0.00  0.00    +0.000 C 
ATOM     16  C   UNL     1      -6.063  -0.937 -11.069  0.00  0.00    +0.000 C 
ATOM     17  C   UNL     1      -5.535  -2.251 -11.651  0.00  0.00    +0.000 C 
ATOM     18  C   UNL     1      -5.738  -3.376 -10.635  0.00  0.00    +0.005 C 
ENDBRANCH  12  13
ENDBRANCH  10  12
ENDBRANCH   2   5
BRANCH   1  19
ATOM     19  C   UNL     1       1.347  -4.662  -4.865  0.00  0.00    +0.150 C 
BRANCH  19  25
ATOM     20  C   UNL     1       0.605  -0.606  -1.054  0.00  0.00    +0.122 A 
ATOM     21  C   UNL     1       1.193   0.221  -2.099  0.00  0.00    +0.048 A 
ATOM     22  C   UNL     1       1.804  -0.317  -3.171  0.00  0.00    +0.031 A 
ATOM     23  C   UNL     1       1.890  -1.778  -3.307  0.00  0.00    +0.060 A 
ATOM     24  N   UNL     1       2.412  -2.544  -4.221  0.00  0.00    -0.362 N 
ATOM     25  C   UNL     1       2.188  -3.936  -3.814  0.00  0.00    +0.191 C 
ATOM     26  N   UNL     1       1.464  -3.883  -2.538  0.00  0.00    -0.362 N 
ATOM     27  C   UNL     1       1.289  -2.624  -2.240  0.00  0.00    +0.064 A 
ATOM     28  C   UNL     1       0.647  -1.960  -1.104  0.00  0.00    +0.073 A 
ATOM     29  H   UNL     1       2.866  -2.248  -5.026  0.00  0.00    +0.162 HD
ATOM     30  H   UNL     1       1.171  -4.644  -2.012  0.00  0.00    +0.162 HD
BRANCH  20  32
ATOM     31  C   UNL     1      -0.017   1.425   0.010  0.00  0.00    +0.277 C 
ATOM     32  O   UNL     1       0.002  -0.004   0.002  0.00  0.00    -0.495 OA
ENDBRANCH  20  32
ENDBRANCH  19  25
ENDBRANCH   1  19
TORSDOF 6
