REMARK  Name = ZINC23064724
REMARK  6 active torsions:
REMARK  status: ('A' for Active; 'I' for Inactive)
REMARK    1  A    between atoms: C_1  and  O_2
REMARK    2  A    between atoms: O_2  and  C_3
REMARK    3  A    between atoms: C_6  and  C_9
REMARK    4  A    between atoms: C_12  and  C_28
REMARK    5  A    between atoms: C_15  and  C_17
REMARK    6  A    between atoms: C_17  and  N_18
REMARK                            x       y       z     vdW  Elec       q    Type
REMARK                         _______ _______ _______ _____ _____    ______ ____
ROOT
ATOM      1  C   UNL     1       4.806   0.536  -0.040  0.00  0.00    +0.137 C 
ATOM      2  C   UNL     1       3.825   1.725  -0.031  0.00  0.00    +0.087 C 
ATOM      3  C   UNL     1       2.462   1.072  -0.015  0.00  0.00    +0.069 C 
ATOM      4  N   UNL     1       2.598  -0.209  -0.024  0.00  0.00    -0.181 NA
ATOM      5  N   UNL     1       3.922  -0.641  -0.038  0.00  0.00    -0.184 N 
ATOM      6  C   UNL     1       4.328  -1.926  -0.048  0.00  0.00    +0.255 C 
ATOM      7  O   UNL     1       5.512  -2.188  -0.060  0.00  0.00    -0.272 OA
ENDROOT
BRANCH   3   8
ATOM      8  C   UNL     1       1.175   1.791   0.001  0.00  0.00    -0.002 A 
ATOM      9  C   UNL     1       1.160   3.198   0.008  0.00  0.00    +0.010 A 
ATOM     10  C   UNL     1      -0.012   3.882   0.023  0.00  0.00    +0.009 A 
ATOM     11  C   UNL     1      -1.234   3.185   0.030  0.00  0.00    -0.018 A 
ATOM     12  C   UNL     1      -2.459   3.871   0.044  0.00  0.00    +0.008 A 
ATOM     13  C   UNL     1      -3.626   3.170   0.035  0.00  0.00    +0.001 A 
ATOM     14  C   UNL     1      -3.626   1.776   0.028  0.00  0.00    +0.001 A 
ATOM     15  C   UNL     1      -2.459   1.076   0.019  0.00  0.00    +0.008 A 
ATOM     16  C   UNL     1      -1.233   1.767   0.018  0.00  0.00    -0.017 A 
ATOM     17  C   UNL     1      -0.013   1.076   0.008  0.00  0.00    +0.018 A 
ENDBRANCH   3   8
BRANCH   1  21
ATOM     18  C   UNL     1       7.204   0.610  -3.576  0.00  0.00    +0.120 A 
ATOM     19  C   UNL     1       7.748   0.997  -2.360  0.00  0.00    +0.046 A 
ATOM     20  C   UNL     1       6.971   0.972  -1.218  0.00  0.00    +0.009 A 
ATOM     21  C   UNL     1       5.652   0.562  -1.287  0.00  0.00    -0.024 A 
ATOM     22  C   UNL     1       5.109   0.171  -2.497  0.00  0.00    +0.009 A 
ATOM     23  C   UNL     1       5.881   0.199  -3.642  0.00  0.00    +0.046 A 
BRANCH  18  25
ATOM     24  C   UNL     1       7.341   0.222  -5.918  0.00  0.00    +0.277 C 
ATOM     25  O   UNL     1       7.967   0.634  -4.701  0.00  0.00    -0.495 OA
ENDBRANCH  18  25
ENDBRANCH   1  21
BRANCH   6  26
ATOM     26  C   UNL     1       3.310  -3.037  -0.044  0.00  0.00    +0.223 C 
BRANCH  26  27
ATOM     27  N   UNL     1       3.999  -4.330  -0.057  0.00  0.00    -0.290 N 
ATOM     28  C   UNL     1       4.322  -4.923   1.121  0.00  0.00    +0.203 A 
ATOM     29  N   UNL     1       4.937  -6.075   1.151  0.00  0.00    -0.230 NA
ATOM     30  C   UNL     1       5.266  -6.706   0.028  0.00  0.00    +0.115 A 
ATOM     31  C   UNL     1       4.972  -6.171  -1.239  0.00  0.00    +0.072 A 
ATOM     32  C   UNL     1       4.294  -4.909  -1.236  0.00  0.00    +0.263 A 
ATOM     33  O   UNL     1       3.992  -4.366  -2.285  0.00  0.00    -0.267 OA
ATOM     34  C   UNL     1       5.399  -6.984  -2.362  0.00  0.00    +0.023 A 
ATOM     35  C   UNL     1       6.022  -8.150  -2.128  0.00  0.00    +0.048 A 
ATOM     36  S   UNL     1       6.080  -8.237  -0.348  0.00  0.00    -0.077 S 
ENDBRANCH  26  27
ENDBRANCH   6  26
TORSDOF 5
