REMARK  Name = ZINC20505709
REMARK  5 active torsions:
REMARK  status: ('A' for Active; 'I' for Inactive)
REMARK    1  A    between atoms: C_3  and  C_9
REMARK    2  A    between atoms: C_4  and  O_8
REMARK    3  A    between atoms: C_6  and  O_7
REMARK    4  A    between atoms: C_9  and  N_10
REMARK    5  A    between atoms: N_10  and  C_11
REMARK                            x       y       z     vdW  Elec       q    Type
REMARK                         _______ _______ _______ _____ _____    ______ ____
ROOT
ATOM      1  C   UNL     1       2.499   4.664  -1.239  0.00  0.00    +0.140 C 
ENDROOT
BRANCH   1   4
ATOM      2  C   UNL     1       5.218   7.266  -0.947  0.00  0.00    +0.046 A 
ATOM      3  C   UNL     1       3.978   6.657  -0.924  0.00  0.00    +0.012 A 
ATOM      4  C   UNL     1       3.853   5.325  -1.266  0.00  0.00    +0.011 A 
ATOM      5  C   UNL     1       4.975   4.592  -1.628  0.00  0.00    +0.125 A 
ATOM      6  C   UNL     1       6.220   5.202  -1.657  0.00  0.00    +0.091 A 
ATOM      7  C   UNL     1       6.342   6.540  -1.313  0.00  0.00    +0.120 A 
BRANCH   7   8
ATOM      8  O   UNL     1       7.562   7.138  -1.335  0.00  0.00    -0.507 OA
ATOM      9  H   UNL     1       8.452   6.562  -1.626  0.00  0.00    +0.292 HD
ENDBRANCH   7   8
BRANCH   5  10
ATOM     10  O   UNL     1       4.853   3.280  -1.959  0.00  0.00    -0.506 OA
ATOM     11  H   UNL     1       5.742   2.700  -2.246  0.00  0.00    +0.292 HD
ENDBRANCH   5  10
ENDBRANCH   1   4
BRANCH   1  12
ATOM     12  N   UNL     1       2.356   3.890   0.001  0.00  0.00    -0.337 N 
ATOM     13  H   UNL     1       3.192   3.834   0.714  0.00  0.00    +0.146 HD
BRANCH  12  14
ATOM     14  C   UNL     1       1.088   3.305   0.084  0.00  0.00    +0.065 A 
ATOM     15  C   UNL     1       0.893   2.001  -0.356  0.00  0.00    +0.064 A 
ATOM     16  C   UNL     1      -0.362   1.426  -0.273  0.00  0.00    +0.037 A 
ATOM     17  C   UNL     1      -1.423   2.149   0.242  0.00  0.00    +0.021 A 
ATOM     18  C   UNL     1      -1.230   3.446   0.686  0.00  0.00    +0.037 A 
ATOM     19  C   UNL     1       0.021   4.026   0.606  0.00  0.00    +0.064 A 
ATOM     20 CL   UNL     1       0.261   5.655   1.156  0.00  0.00    -0.082 Cl
ATOM     21 BR   UNL     1      -3.139   1.361   0.347  0.00  0.00    -0.050 Br
ATOM     22 CL   UNL     1       2.222   1.096  -1.008  0.00  0.00    -0.082 Cl
ENDBRANCH  12  14
ENDBRANCH   1  12
TORSDOF 5
