REMARK  Name = ZINC42406088
REMARK  3 active torsions:
REMARK  status: ('A' for Active; 'I' for Inactive)
REMARK    1  A    between atoms: C_5  and  N_17
REMARK    2  A    between atoms: C_6  and  N_7
REMARK    3  A    between atoms: C_12  and  C_14
REMARK                            x       y       z     vdW  Elec       q    Type
REMARK                         _______ _______ _______ _____ _____    ______ ____
ROOT
ATOM      1  C   UNL     1       0.485   0.775   0.210  0.00  0.00    +0.030 A 
ATOM      2  C   UNL     1       1.785   1.243   0.217  0.00  0.00    -0.024 A 
ATOM      3  C   UNL     1       2.843   0.366   0.019  0.00  0.00    +0.038 A 
ATOM      4  C   UNL     1       2.596  -0.985  -0.186  0.00  0.00    +0.048 A 
ATOM      5  C   UNL     1       1.294  -1.457  -0.193  0.00  0.00    +0.048 A 
ATOM      6  C   UNL     1       0.233  -0.573   0.006  0.00  0.00    +0.052 A 
ATOM      7  N   UNL     1       4.159   0.846   0.026  0.00  0.00    -0.285 N 
ATOM      8  C   UNL     1       4.447   2.039   0.579  0.00  0.00    +0.218 C 
ATOM      9  O   UNL     1       5.589   2.446   0.565  0.00  0.00    -0.275 OA
ATOM     10  C   UNL     1       3.367   2.873   1.214  0.00  0.00    +0.101 C 
ATOM     11  C   UNL     1       2.059   2.709   0.439  0.00  0.00    +0.046 C 
ATOM     12  H   UNL     1       4.868   0.315  -0.370  0.00  0.00    +0.155 HD
ENDROOT
BRANCH   6  13
ATOM     13  N   UNL     1      -1.087  -1.047  -0.001  0.00  0.00    -0.317 N 
ATOM     14  C   UNL     1      -1.727  -1.496   1.243  0.00  0.00    +0.106 C 
ATOM     15  C   UNL     1      -2.271  -2.913   1.034  0.00  0.00    +0.019 C 
ATOM     16  C   UNL     1      -3.192  -2.926  -0.188  0.00  0.00    +0.004 C 
ATOM     17  C   UNL     1      -2.398  -2.525  -1.433  0.00  0.00    +0.032 C 
ATOM     18  C   UNL     1      -1.857  -1.099  -1.251  0.00  0.00    +0.159 C 
BRANCH  18  19
ATOM     19  C   UNL     1      -0.963  -0.744  -2.411  0.00  0.00    +0.231 C 
ATOM     20  O   UNL     1       0.174  -1.164  -2.451  0.00  0.00    -0.274 OA
ATOM     21  N   UNL     1      -1.426   0.041  -3.403  0.00  0.00    -0.328 N 
ATOM     22  H   UNL     1      -2.335   0.378  -3.371  0.00  0.00    +0.145 HD
ATOM     23  H   UNL     1      -0.850   0.270  -4.150  0.00  0.00    +0.145 HD
ENDBRANCH  18  19
ENDBRANCH   6  13
BRANCH   5  24
ATOM     24  N   UNL     1       1.042  -2.819  -0.399  0.00  0.00    -0.356 N 
ATOM     25  H   UNL     1       1.780  -3.432  -0.538  0.00  0.00    +0.142 HD
ATOM     26  H   UNL     1       0.130  -3.148  -0.404  0.00  0.00    +0.142 HD
ENDBRANCH   5  24
TORSDOF 3
