REMARK  Name = ZINC64115704
REMARK  9 active torsions:
REMARK  status: ('A' for Active; 'I' for Inactive)
REMARK    1  A    between atoms: C_1  and  C_2
REMARK    2  A    between atoms: C_4  and  C_8
REMARK    3  A    between atoms: C_5  and  C_7
REMARK    4  A    between atoms: C_8  and  C_9
REMARK    5  A    between atoms: C_8  and  N_10
REMARK    6  A    between atoms: N_10  and  C_11
REMARK    7  A    between atoms: C_14  and  S_20
REMARK    8  A    between atoms: C_16  and  N_17
REMARK    9  A    between atoms: S_20  and  N_23
REMARK                            x       y       z     vdW  Elec       q    Type
REMARK                         _______ _______ _______ _____ _____    ______ ____
ROOT
ATOM      1  C   UNL     1      -3.428  -4.067  -1.418  0.00  0.00    +0.058 A 
ATOM      2  C   UNL     1      -2.885  -5.339  -1.545  0.00  0.00    +0.027 A 
ATOM      3  C   UNL     1      -3.696  -6.404  -1.884  0.00  0.00    +0.030 A 
ATOM      4  C   UNL     1      -5.048  -6.205  -2.098  0.00  0.00    +0.107 A 
ATOM      5  C   UNL     1      -5.592  -4.940  -1.972  0.00  0.00    +0.063 A 
ATOM      6  C   UNL     1      -4.787  -3.871  -1.628  0.00  0.00    +0.149 A 
ENDROOT
BRANCH   6   7
ATOM      7  N   UNL     1      -5.372  -2.519  -1.488  0.00  0.00    +0.058 N 
ATOM      8  O   UNL     1      -4.975  -1.775  -0.621  0.00  0.00    -0.126 OA
ATOM      9  O   UNL     1      -6.246  -2.157  -2.241  0.00  0.00    -0.126 OA
ENDBRANCH   6   7
BRANCH   4  10
ATOM     10  S   UNL     1      -6.079  -7.566  -2.530  0.00  0.00    +0.056 S 
ATOM     11  O   UNL     1      -7.204  -7.024  -3.209  0.00  0.00    -0.153 OA
ATOM     12  O   UNL     1      -5.234  -8.546  -3.118  0.00  0.00    -0.153 OA
BRANCH  10  13
ATOM     13  N   UNL     1      -6.647  -8.218  -1.118  0.00  0.00    -0.204 NA
ATOM     14  H   UNL     1      -6.388  -7.832  -0.267  0.00  0.00    +0.144 HD
ATOM     15  H   UNL     1      -7.239  -8.986  -1.142  0.00  0.00    +0.144 HD
ENDBRANCH  10  13
ENDBRANCH   4  10
BRANCH   1  16
ATOM     16  N   UNL     1      -2.611  -2.987  -1.075  0.00  0.00    -0.335 N 
ATOM     17  H   UNL     1      -2.973  -2.088  -1.067  0.00  0.00    +0.147 HD
BRANCH  16  18
ATOM     18  C   UNL     1      -1.206  -3.214  -0.727  0.00  0.00    +0.101 C 
ATOM     19  C   UNL     1      -1.100  -3.577   0.755  0.00  0.00    +0.033 C 
BRANCH  18  23
ATOM     20  C   UNL     1       0.077   1.667  -1.424  0.00  0.00    +0.086 C 
ATOM     21  C   UNL     1       0.131   0.166  -1.296  0.00  0.00    +0.103 A 
ATOM     22  C   UNL     1      -0.912  -0.638  -1.022  0.00  0.00    +0.050 A 
ATOM     23  C   UNL     1      -0.413  -1.961  -0.996  0.00  0.00    +0.013 A 
ATOM     24  C   UNL     1       0.904  -1.886  -1.256  0.00  0.00    +0.107 A 
ATOM     25  O   UNL     1       1.227  -0.596  -1.443  0.00  0.00    -0.465 OA
ATOM     26  C   UNL     1       1.856  -3.052  -1.330  0.00  0.00    +0.086 C 
ENDBRANCH  18  23
ENDBRANCH  16  18
ENDBRANCH   1  16
TORSDOF 6
