REMARK  Name = ZINC67242246
REMARK  7 active torsions:
REMARK  status: ('A' for Active; 'I' for Inactive)
REMARK    1  A    between atoms: C_1  and  C_2
REMARK    2  A    between atoms: C_2  and  N_3
REMARK    3  A    between atoms: C_4  and  C_6
REMARK    4  A    between atoms: C_6  and  N_7
REMARK    5  A    between atoms: C_13  and  C_15
REMARK    6  A    between atoms: C_18  and  N_21
REMARK    7  A    between atoms: C_23  and  C_26
REMARK                            x       y       z     vdW  Elec       q    Type
REMARK                         _______ _______ _______ _____ _____    ______ ____
ROOT
ATOM      1  N   UNL     1       1.603  -3.778   2.607  0.00  0.00    -0.261 N 
ATOM      2  C   UNL     1       2.702  -4.556   2.692  0.00  0.00    +0.111 A 
ATOM      3  C   UNL     1       2.300  -5.847   2.651  0.00  0.00    +0.065 A 
ATOM      4  C   UNL     1       0.901  -5.859   2.535  0.00  0.00    +0.147 A 
ATOM      5  N   UNL     1       0.483  -4.615   2.514  0.00  0.00    -0.156 NA
ATOM      6  N   UNL     1       0.091  -7.000   2.460  0.00  0.00    -0.265 N 
ATOM      7  C   UNL     1       0.650  -8.226   2.498  0.00  0.00    +0.249 C 
ATOM      8  O   UNL     1       1.856  -8.342   2.597  0.00  0.00    -0.270 OA
ATOM      9  H   UNL     1      -0.871  -6.908   2.381  0.00  0.00    +0.157 HD
ENDROOT
BRANCH   7  10
ATOM     10  C   UNL     1      -0.203  -9.429   2.419  0.00  0.00    +0.037 A 
ATOM     11  C   UNL     1      -1.589  -9.297   2.300  0.00  0.00    +0.015 A 
ATOM     12  C   UNL     1      -2.382 -10.421   2.227  0.00  0.00    +0.028 A 
ATOM     13  C   UNL     1      -1.805 -11.686   2.272  0.00  0.00    +0.065 A 
ATOM     14  C   UNL     1      -0.426 -11.820   2.392  0.00  0.00    +0.028 A 
ATOM     15  C   UNL     1       0.374 -10.701   2.459  0.00  0.00    +0.015 A 
BRANCH  13  16
ATOM     16  N   UNL     1      -2.613 -12.824   2.199  0.00  0.00    -0.240 N 
ATOM     17  C   UNL     1      -2.185 -14.113   2.237  0.00  0.00    +0.117 A 
ATOM     18  C   UNL     1      -3.275 -14.909   2.139  0.00  0.00    -0.013 A 
ATOM     19  C   UNL     1      -4.402 -14.087   2.038  0.00  0.00    +0.138 A 
ATOM     20  N   UNL     1      -4.008 -12.840   2.079  0.00  0.00    -0.175 NA
ATOM     21  C   UNL     1      -3.274 -16.416   2.138  0.00  0.00    +0.047 C 
ENDBRANCH  13  16
ENDBRANCH   7  10
BRANCH   1  22
ATOM     22  C   UNL     1       1.583  -2.313   2.615  0.00  0.00    +0.239 C 
BRANCH  22  24
ATOM     23  N   UNL     1       0.711  -0.489   1.189  0.00  0.00    -0.314 N 
ATOM     24  C   UNL     1       0.854  -1.814   1.394  0.00  0.00    +0.234 C 
ATOM     25  O   UNL     1       0.396  -2.604   0.595  0.00  0.00    -0.274 OA
ATOM     26  H   UNL     1       1.077   0.142   1.827  0.00  0.00    +0.149 HD
BRANCH  23  28
ATOM     27  C   UNL     1      -0.019   1.526   0.010  0.00  0.00    +0.024 C 
ATOM     28  C   UNL     1       0.002  -0.004   0.002  0.00  0.00    +0.101 C 
ENDBRANCH  23  28
ENDBRANCH  22  24
ENDBRANCH   1  22
TORSDOF 5
