REMARK  Name = ZINC33479168
REMARK  11 active torsions:
REMARK  status: ('A' for Active; 'I' for Inactive)
REMARK    1  A    between atoms: C_1  and  C_2
REMARK    2  A    between atoms: C_2  and  N_3
REMARK    3  A    between atoms: C_4  and  N_30
REMARK    4  A    between atoms: C_5  and  C_13
REMARK    5  A    between atoms: C_6  and  C_12
REMARK    6  A    between atoms: C_7  and  C_10
REMARK    7  A    between atoms: N_17  and  C_21
REMARK    8  A    between atoms: C_21  and  C_23
REMARK    9  A    between atoms: C_21  and  C_24
REMARK   10  A    between atoms: N_33  and  C_36
REMARK   11  A    between atoms: C_36  and  C_37
REMARK                            x       y       z     vdW  Elec       q    Type
REMARK                         _______ _______ _______ _____ _____    ______ ____
ROOT
ATOM      1  N   UNL     1       7.705   3.132   6.411  0.00  0.00    -0.295 N 
ATOM      2  C   UNL     1       7.001   2.259   5.646  0.00  0.00    +0.112 A 
ATOM      3  C   UNL     1       6.394   2.684   4.453  0.00  0.00    +0.019 A 
ATOM      4  C   UNL     1       6.525   4.024   4.051  0.00  0.00    -0.017 A 
ATOM      5  C   UNL     1       7.247   4.901   4.856  0.00  0.00    +0.120 A 
ATOM      6  C   UNL     1       7.841   4.421   6.051  0.00  0.00    +0.270 A 
ATOM      7  O   UNL     1       8.479   5.182   6.757  0.00  0.00    -0.266 OA
ATOM      8  C   UNL     1       5.888   4.506   2.773  0.00  0.00    +0.046 C 
ENDROOT
BRANCH   3   9
ATOM      9  C   UNL     1       5.636   1.738   3.632  0.00  0.00    +0.032 C 
ATOM     10  C   UNL     1       4.290   1.883   3.493  0.00  0.00    +0.077 C 
ATOM     11  C   UNL     1       3.350   1.042   2.824  0.00  0.00    +0.259 C 
ATOM     12  O   UNL     1       3.709   0.021   2.264  0.00  0.00    -0.269 OA
ATOM     13  N   UNL     1       2.080   1.407   2.826  0.00  0.00    -0.248 N 
ATOM     14  C   UNL     1       1.681   2.537   3.452  0.00  0.00    +0.121 C 
ATOM     15  S   UNL     1       0.105   3.189   3.587  0.00  0.00    -0.027 S 
ATOM     16  S   UNL     1       3.217   3.175   4.104  0.00  0.00    -0.061 S 
BRANCH  13  17
ATOM     17  C   UNL     1       1.088   0.571   2.145  0.00  0.00    +0.110 C 
ATOM     18  C   UNL     1       0.487   1.347   0.971  0.00  0.00    +0.033 C 
BRANCH  17  19
ATOM     19  C   UNL     1      -0.006   0.200   3.113  0.00  0.00    -0.027 A 
ATOM     20  C   UNL     1      -1.323   0.180   2.694  0.00  0.00    +0.005 A 
ATOM     21  C   UNL     1      -2.326  -0.156   3.584  0.00  0.00    +0.000 A 
ATOM     22  C   UNL     1      -2.011  -0.481   4.890  0.00  0.00    +0.000 A 
ATOM     23  C   UNL     1      -0.694  -0.463   5.309  0.00  0.00    +0.000 A 
ATOM     24  C   UNL     1       0.309  -0.122   4.420  0.00  0.00    +0.005 A 
ENDBRANCH  17  19
ENDBRANCH  13  17
ENDBRANCH   3   9
BRANCH   2  25
ATOM     25  N   UNL     1       6.882   0.958   6.039  0.00  0.00    -0.320 N 
ATOM     26  C   UNL     1       7.560   0.058   5.096  0.00  0.00    +0.088 C 
ATOM     27  C   UNL     1       7.471  -1.380   5.613  0.00  0.00    -0.060 C 
ATOM     28  N   UNL     1       6.059  -1.755   5.771  0.00  0.00    +0.382 N 
ATOM     29  C   UNL     1       5.381  -0.855   6.715  0.00  0.00    -0.060 C 
ATOM     30  C   UNL     1       5.470   0.583   6.198  0.00  0.00    +0.088 C 
ATOM     31  H   UNL     1       5.569  -1.653   4.792  0.00  0.00    -0.082 HD
BRANCH  28  32
ATOM     32  C   UNL     1       5.931  -3.155   6.195  0.00  0.00    -0.082 C 
ATOM     33  C   UNL     1       6.425  -4.074   5.075  0.00  0.00    -0.017 C 
ENDBRANCH  28  32
ENDBRANCH   2  25
BRANCH   1  35
ATOM     34  C   UNL     1       9.786   2.285   7.378  0.00  0.00    +0.027 C 
ATOM     35  C   UNL     1       8.328   2.662   7.651  0.00  0.00    +0.123 C 
ENDBRANCH   1  35
BRANCH   5  36
ATOM     36  C   UNL     1       7.395   6.274   4.477  0.00  0.00    +0.105 C 
ATOM     37  N   UNL     1       7.512   7.363   4.177  0.00  0.00    -0.191 NA
ENDBRANCH   5  36
TORSDOF 7
