REMARK  Name = ZINC67009710
REMARK  6 active torsions:
REMARK  status: ('A' for Active; 'I' for Inactive)
REMARK    1  A    between atoms: C_3  and  O_10
REMARK    2  A    between atoms: C_6  and  C_7
REMARK    3  A    between atoms: O_10  and  C_11
REMARK    4  A    between atoms: C_11  and  C_12
REMARK    5  A    between atoms: N_14  and  C_15
REMARK    6  A    between atoms: C_17  and  N_22
REMARK                            x       y       z     vdW  Elec       q    Type
REMARK                         _______ _______ _______ _____ _____    ______ ____
ROOT
ATOM      1  C   UNL     1       4.830   4.142  -0.028  0.00  0.00    +0.255 C 
ATOM      2  O   UNL     1       5.804   3.419  -0.038  0.00  0.00    -0.272 OA
ATOM      3  N   UNL     1       4.985   5.481  -0.016  0.00  0.00    -0.281 N 
ATOM      4  H   UNL     1       4.208   6.059  -0.074  0.00  0.00    +0.155 HD
ENDROOT
BRANCH   3   5
ATOM      5  C   UNL     1       6.266   6.036   0.080  0.00  0.00    +0.054 A 
ATOM      6  C   UNL     1       7.345   5.406  -0.525  0.00  0.00    +0.057 A 
ATOM      7  C   UNL     1       8.608   5.957  -0.428  0.00  0.00    +0.128 A 
ATOM      8  C   UNL     1       8.799   7.136   0.270  0.00  0.00    +0.034 A 
ATOM      9  C   UNL     1       7.727   7.766   0.874  0.00  0.00    +0.024 A 
ATOM     10  C   UNL     1       6.459   7.223   0.777  0.00  0.00    +0.062 A 
ATOM     11 CL   UNL     1       5.112   8.019   1.529  0.00  0.00    -0.082 Cl
BRANCH   7  12
ATOM     12  N   UNL     1       9.758   5.285  -1.072  0.00  0.00    +0.056 N 
ATOM     13  O   UNL     1       9.593   4.255  -1.683  0.00  0.00    -0.126 OA
ATOM     14  O   UNL     1      10.864   5.767  -0.989  0.00  0.00    -0.126 OA
ENDBRANCH   7  12
ENDBRANCH   3   5
BRANCH   1  15
ATOM     15  C   UNL     1       3.447   3.543  -0.030  0.00  0.00    +0.325 C 
BRANCH  15  16
ATOM     16  O   UNL     1       3.545   2.117  -0.044  0.00  0.00    -0.481 OA
BRANCH  16  19
ATOM     17  C   UNL     1      -0.016   1.394  -0.041  0.00  0.00    +0.015 A 
ATOM     18  C   UNL     1       1.168   2.097  -0.037  0.00  0.00    +0.048 A 
ATOM     19  C   UNL     1       2.382   1.420  -0.047  0.00  0.00    +0.139 A 
ATOM     20  C   UNL     1       2.407   0.028  -0.060  0.00  0.00    +0.083 A 
ATOM     21  C   UNL     1       1.229  -0.684  -0.064  0.00  0.00    +0.034 A 
ATOM     22  C   UNL     1       0.004  -0.006  -0.054  0.00  0.00    +0.016 A 
ATOM     23 CL   UNL     1       3.927  -0.811  -0.074  0.00  0.00    -0.080 Cl
BRANCH  22  24
ATOM     24  C   UNL     1      -1.256  -0.760  -0.057  0.00  0.00    +0.258 C 
ATOM     25  O   UNL     1      -1.237  -1.973  -0.068  0.00  0.00    -0.296 OA
ENDBRANCH  22  24
ENDBRANCH  16  19
ENDBRANCH  15  16
ENDBRANCH   1  15
TORSDOF 6
