REMARK  Name = ZINC63620019
REMARK  7 active torsions:
REMARK  status: ('A' for Active; 'I' for Inactive)
REMARK    1  A    between atoms: C_1  and  C_2
REMARK    2  A    between atoms: C_4  and  S_25
REMARK    3  A    between atoms: C_5  and  C_24
REMARK    4  A    between atoms: N_7  and  C_8
REMARK    5  A    between atoms: C_8  and  C_9
REMARK    6  A    between atoms: C_11  and  C_14
REMARK    7  A    between atoms: S_25  and  N_28
REMARK                            x       y       z     vdW  Elec       q    Type
REMARK                         _______ _______ _______ _____ _____    ______ ____
ROOT
ATOM      1  C   UNL     1      -0.019   1.526   0.010  0.00  0.00    +0.032 C 
ATOM      2  C   UNL     1       0.002  -0.004   0.002  0.00  0.00    +0.124 C 
ATOM      3  C   UNL     1      -1.407  -0.553   0.057  0.00  0.00    +0.119 C 
ATOM      4  C   UNL     1      -1.497  -1.261   1.165  0.00  0.00    +0.040 C 
ATOM      5  N   UNL     1      -0.311  -1.258   1.871  0.00  0.00    -0.279 N 
ATOM      6  N   UNL     1       0.644  -0.519   1.228  0.00  0.00    -0.213 NA
ATOM      7  C   UNL     1      -2.743  -1.985   1.607  0.00  0.00    +0.063 C 
ATOM      8  H   UNL     1      -0.172  -1.720   2.713  0.00  0.00    +0.166 HD
ENDROOT
BRANCH   3   9
ATOM      9  S   UNL     1      -2.683  -0.294  -1.130  0.00  0.00    +0.060 S 
ATOM     10  O   UNL     1      -3.877  -0.818  -0.565  0.00  0.00    -0.153 OA
ATOM     11  O   UNL     1      -2.571   1.056  -1.558  0.00  0.00    -0.153 OA
BRANCH   9  12
ATOM     12  N   UNL     1      -2.327  -1.238  -2.444  0.00  0.00    -0.177 NA
ATOM     13  C   UNL     1      -1.512  -0.829  -3.597  0.00  0.00    +0.109 C 
ATOM     14  C   UNL     1      -1.476  -2.020  -4.578  0.00  0.00    +0.018 C 
ATOM     15  C   UNL     1      -2.739  -2.831  -4.186  0.00  0.00    +0.018 C 
ATOM     16  C   UNL     1      -2.771  -2.629  -2.648  0.00  0.00    +0.109 C 
ENDBRANCH   9  12
ENDBRANCH   3   9
BRANCH   6  17
ATOM     17  C   UNL     1       1.818  -1.339   0.903  0.00  0.00    +0.185 C 
BRANCH  17  18
ATOM     18  C   UNL     1       2.517  -1.744   2.175  0.00  0.00    +0.187 A 
ATOM     19  N   UNL     1       3.487  -1.052   2.784  0.00  0.00    -0.193 NA
ATOM     20  C   UNL     1       3.874  -1.678   3.861  0.00  0.00    +0.254 A 
ATOM     21  O   UNL     1       3.155  -2.802   3.975  0.00  0.00    -0.335 OA
ATOM     22  N   UNL     1       2.270  -2.821   2.865  0.00  0.00    -0.060 NA
BRANCH  20  23
ATOM     23  C   UNL     1       4.947  -1.215   4.813  0.00  0.00    +0.193 C 
ATOM     24  C   UNL     1       6.185  -2.070   4.658  0.00  0.00    +0.017 C 
ATOM     25  C   UNL     1       6.387  -2.657   5.860  0.00  0.00    -0.004 A 
ATOM     26  C   UNL     1       7.409  -3.589   6.351  0.00  0.00    +0.010 A 
ATOM     27  C   UNL     1       7.348  -4.013   7.634  0.00  0.00    +0.001 A 
ATOM     28  C   UNL     1       6.335  -3.586   8.504  0.00  0.00    +0.002 A 
ATOM     29  C   UNL     1       5.362  -2.731   8.125  0.00  0.00    +0.026 A 
ATOM     30  C   UNL     1       5.329  -2.221   6.798  0.00  0.00    +0.043 A 
ATOM     31  N   UNL     1       4.503  -1.395   6.200  0.00  0.00    -0.370 N 
ATOM     32  H   UNL     1       3.730  -0.973   6.606  0.00  0.00    +0.161 HD
ENDBRANCH  20  23
ENDBRANCH  17  18
ENDBRANCH   6  17
TORSDOF 5
