REMARK  Name = ZINC05838863
REMARK  7 active torsions:
REMARK  status: ('A' for Active; 'I' for Inactive)
REMARK    1  A    between atoms: C_1  and  C_2
REMARK    2  A    between atoms: C_3  and  C_8
REMARK    3  A    between atoms: C_4  and  C_7
REMARK    4  A    between atoms: C_8  and  C_9
REMARK    5  A    between atoms: C_9  and  C_10
REMARK    6  A    between atoms: C_10  and  O_11
REMARK    7  A    between atoms: O_11  and  C_12
REMARK                            x       y       z     vdW  Elec       q    Type
REMARK                         _______ _______ _______ _____ _____    ______ ____
ROOT
ATOM      1  C   UNL     1       5.554   4.193   3.085  0.00  0.00    +0.193 C 
ATOM      2  C   UNL     1       5.728   4.645   4.536  0.00  0.00    +0.264 C 
ATOM      3  O   UNL     1       5.753   3.499   5.391  0.00  0.00    -0.486 OA
ATOM      4  C   UNL     1       5.514   3.715   6.713  0.00  0.00    +0.162 A 
ATOM      5  C   UNL     1       4.253   4.101   7.136  0.00  0.00    +0.049 A 
ATOM      6  C   UNL     1       4.013   4.326   8.479  0.00  0.00    +0.004 A 
ATOM      7  C   UNL     1       5.030   4.164   9.402  0.00  0.00    +0.004 A 
ATOM      8  C   UNL     1       6.290   3.776   8.986  0.00  0.00    +0.049 A 
ATOM      9  C   UNL     1       6.537   3.549   7.642  0.00  0.00    +0.162 A 
ATOM     10  O   UNL     1       7.775   3.167   7.231  0.00  0.00    -0.486 OA
ATOM     11  C   UNL     1       8.888   3.873   7.783  0.00  0.00    +0.257 C 
ATOM     12  C   UNL     1       9.247   5.050   6.874  0.00  0.00    +0.201 C 
ATOM     13  O   UNL     1       9.972   4.572   5.739  0.00  0.00    -0.373 OA
ATOM     14  C   UNL     1      10.509   5.607   4.913  0.00  0.00    +0.201 C 
ATOM     15  C   UNL     1      11.195   4.983   3.696  0.00  0.00    +0.257 C 
ATOM     16  O   UNL     1      10.237   4.245   2.935  0.00  0.00    -0.486 OA
ATOM     17  C   UNL     1       9.883   4.756   1.726  0.00  0.00    +0.162 A 
ATOM     18  C   UNL     1      10.807   4.801   0.694  0.00  0.00    +0.049 A 
ATOM     19  C   UNL     1      10.445   5.322  -0.535  0.00  0.00    +0.004 A 
ATOM     20  C   UNL     1       9.164   5.799  -0.737  0.00  0.00    +0.004 A 
ATOM     21  C   UNL     1       8.238   5.757   0.289  0.00  0.00    +0.049 A 
ATOM     22  C   UNL     1       8.593   5.236   1.522  0.00  0.00    +0.162 A 
ATOM     23  O   UNL     1       7.683   5.194   2.532  0.00  0.00    -0.486 OA
ATOM     24  C   UNL     1       6.304   5.154   2.159  0.00  0.00    +0.264 C 
ENDROOT
BRANCH   1  25
ATOM     25  O   UNL     1       4.165   4.194   2.748  0.00  0.00    -0.370 OA
BRANCH  25  26
ATOM     26  C   UNL     1       3.504   2.954   3.009  0.00  0.00    +0.161 C 
BRANCH  26  27
ATOM     27  C   UNL     1       2.031   3.069   2.613  0.00  0.00    +0.033 C 
BRANCH  27  28
ATOM     28  C   UNL     1       1.322   1.742   2.892  0.00  0.00    +0.043 C 
BRANCH  28  31
ATOM     29  C   UNL     1      -0.013   1.086   0.008  0.00  0.00    +0.069 C 
ATOM     30  C   UNL     1      -0.718   1.572   1.248  0.00  0.00    +0.084 A 
ATOM     31  C   UNL     1      -0.129   1.855   2.501  0.00  0.00    +0.017 A 
ATOM     32  C   UNL     1      -1.171   2.253   3.270  0.00  0.00    +0.138 A 
ATOM     33  O   UNL     1      -2.261   2.193   2.493  0.00  0.00    -0.359 OA
ATOM     34  N   UNL     1      -1.990   1.819   1.375  0.00  0.00    -0.083 NA
ATOM     35  C   UNL     1      -1.115   2.679   4.715  0.00  0.00    +0.089 C 
ENDBRANCH  28  31
ENDBRANCH  27  28
ENDBRANCH  26  27
ENDBRANCH  25  26
ENDBRANCH   1  25
TORSDOF 5
