REMARK  Name = ZINC16085302
REMARK  10 active torsions:
REMARK  status: ('A' for Active; 'I' for Inactive)
REMARK    1  A    between atoms: C_1  and  C_2
REMARK    2  A    between atoms: C_6  and  N_9
REMARK    3  A    between atoms: C_7  and  C_8
REMARK    4  A    between atoms: C_10  and  C_12
REMARK    5  A    between atoms: C_12  and  N_13
REMARK    6  A    between atoms: N_13  and  C_14
REMARK    7  A    between atoms: N_13  and  S_15
REMARK    8  A    between atoms: S_15  and  C_18
REMARK    9  A    between atoms: C_20  and  N_25
REMARK   10  A    between atoms: C_23  and  C_24
REMARK                            x       y       z     vdW  Elec       q    Type
REMARK                         _______ _______ _______ _____ _____    ______ ____
ROOT
ATOM      1  N   UNL     1      -1.434   6.407  -0.255  0.00  0.00    -0.171 NA
ATOM      2  C   UNL     1      -2.144   6.631   1.007  0.00  0.00    +0.132 C 
ENDROOT
BRANCH   1   3
ATOM      3  S   UNL     1      -2.200   6.683  -1.697  0.00  0.00    +0.061 S 
ATOM      4  O   UNL     1      -3.164   7.699  -1.456  0.00  0.00    -0.153 OA
ATOM      5  O   UNL     1      -1.182   6.816  -2.679  0.00  0.00    -0.153 OA
BRANCH   3   6
ATOM      6  C   UNL     1      -3.098   5.221  -2.098  0.00  0.00    +0.111 A 
ATOM      7  C   UNL     1      -2.502   4.229  -2.854  0.00  0.00    +0.061 A 
ATOM      8  C   UNL     1      -3.205   3.081  -3.165  0.00  0.00    +0.128 A 
ATOM      9  C   UNL     1      -4.507   2.927  -2.727  0.00  0.00    +0.033 A 
ATOM     10  C   UNL     1      -5.105   3.921  -1.975  0.00  0.00    +0.007 A 
ATOM     11  C   UNL     1      -4.400   5.068  -1.661  0.00  0.00    -0.024 A 
ATOM     12  C   UNL     1      -5.052   6.152  -0.841  0.00  0.00    +0.046 C 
BRANCH   8  13
ATOM     13  N   UNL     1      -2.565   2.017  -3.971  0.00  0.00    +0.056 N 
ATOM     14  O   UNL     1      -3.186   1.006  -4.249  0.00  0.00    -0.126 OA
ATOM     15  O   UNL     1      -1.418   2.152  -4.357  0.00  0.00    -0.126 OA
ENDBRANCH   8  13
ENDBRANCH   3   6
ENDBRANCH   1   3
BRANCH   1  16
ATOM     16  C   UNL     1      -0.046   5.939  -0.241  0.00  0.00    +0.205 C 
BRANCH  16  18
ATOM     17  N   UNL     1       1.157   3.809   0.130  0.00  0.00    -0.284 N 
ATOM     18  C   UNL     1      -0.020   4.449  -0.020  0.00  0.00    +0.233 C 
ATOM     19  O   UNL     1      -1.059   3.824   0.024  0.00  0.00    -0.274 OA
ATOM     20  H   UNL     1       1.982   4.317   0.174  0.00  0.00    +0.155 HD
BRANCH  17  26
ATOM     21  C   UNL     1       3.427  -0.282   1.639  0.00  0.00    +0.044 C 
ATOM     22  C   UNL     1       2.277   0.404   0.948  0.00  0.00    -0.046 A 
ATOM     23  C   UNL     1       1.251  -0.347   0.404  0.00  0.00    +0.004 A 
ATOM     24  C   UNL     1       0.194   0.279  -0.232  0.00  0.00    +0.002 A 
ATOM     25  C   UNL     1       0.160   1.657  -0.324  0.00  0.00    +0.023 A 
ATOM     26  C   UNL     1       1.188   2.414   0.222  0.00  0.00    +0.037 A 
ATOM     27  C   UNL     1       2.248   1.782   0.859  0.00  0.00    -0.026 A 
ATOM     28  C   UNL     1       3.366   2.599   1.454  0.00  0.00    +0.046 C 
ENDBRANCH  17  26
ENDBRANCH  16  18
ENDBRANCH   1  16
TORSDOF 6
