REMARK  Name = ZINC07440860
REMARK  3 active torsions:
REMARK  status: ('A' for Active; 'I' for Inactive)
REMARK    1  A    between atoms: C_1  and  N_2
REMARK    2  A    between atoms: C_6  and  C_8
REMARK    3  A    between atoms: C_8  and  N_9
REMARK                            x       y       z     vdW  Elec       q    Type
REMARK                         _______ _______ _______ _____ _____    ______ ____
ROOT
ATOM      1  N   UNL     1       0.002  -0.004   0.002  0.00  0.00    -0.290 N 
ATOM      2  C   UNL     1       1.042  -0.666   0.574  0.00  0.00    +0.203 A 
ATOM      3  N   UNL     1       1.129  -1.961   0.612  0.00  0.00    -0.237 NA
ATOM      4  C   UNL     1       0.175  -2.755   0.064  0.00  0.00    +0.078 A 
ATOM      5  C   UNL     1       0.272  -4.147   0.099  0.00  0.00    +0.030 A 
ATOM      6  C   UNL     1      -0.719  -4.915  -0.471  0.00  0.00    +0.022 A 
ATOM      7  C   UNL     1      -1.816  -4.321  -1.083  0.00  0.00    +0.042 A 
ATOM      8  C   UNL     1      -1.934  -2.948  -1.130  0.00  0.00    +0.035 A 
ATOM      9  C   UNL     1      -0.941  -2.154  -0.559  0.00  0.00    +0.066 A 
ATOM     10  C   UNL     1      -1.012  -0.685  -0.580  0.00  0.00    +0.262 A 
ATOM     11  O   UNL     1      -1.947  -0.105  -1.100  0.00  0.00    -0.267 OA
ATOM     12 CL   UNL     1      -3.049  -5.315  -1.793  0.00  0.00    -0.084 Cl
ENDROOT
BRANCH   1  13
ATOM     13  C   UNL     1      -0.018   1.461   0.010  0.00  0.00    +0.222 C 
BRANCH  13  19
ATOM     14  C   UNL     1      -2.318   5.498   4.008  0.00  0.00    +0.129 C 
ATOM     15  N   UNL     1      -1.632   5.026   2.802  0.00  0.00    -0.302 N 
ATOM     16  C   UNL     1      -1.493   3.704   2.580  0.00  0.00    +0.306 C 
ATOM     17  O   UNL     1      -1.937   2.903   3.381  0.00  0.00    -0.252 OA
ATOM     18  N   UNL     1      -0.862   3.269   1.472  0.00  0.00    -0.239 N 
ATOM     19  C   UNL     1      -0.723   1.947   1.250  0.00  0.00    +0.240 C 
ATOM     20  O   UNL     1      -1.165   1.149   2.048  0.00  0.00    -0.273 OA
ATOM     21  H   UNL     1      -1.278   5.664   2.164  0.00  0.00    +0.150 HD
ATOM     22  H   UNL     1      -0.508   3.908   0.833  0.00  0.00    +0.159 HD
ENDBRANCH  13  19
ENDBRANCH   1  13
TORSDOF 2
