REMARK  Name = ZINC10366076
REMARK  9 active torsions:
REMARK  status: ('A' for Active; 'I' for Inactive)
REMARK    1  A    between atoms: C_1  and  C_2
REMARK    2  A    between atoms: C_6  and  O_8
REMARK    3  A    between atoms: O_8  and  C_9
REMARK    4  A    between atoms: C_9  and  C_10
REMARK    5  A    between atoms: C_10  and  O_12
REMARK    6  A    between atoms: O_12  and  C_13
REMARK    7  A    between atoms: C_13  and  C_15
REMARK    8  A    between atoms: C_13  and  C_16
REMARK    9  A    between atoms: N_18  and  C_19
REMARK                            x       y       z     vdW  Elec       q    Type
REMARK                         _______ _______ _______ _____ _____    ______ ____
ROOT
ATOM      1  C   UNL     1      -3.773  10.168  -0.019  0.00  0.00    +0.258 C 
ATOM      2  O   UNL     1      -4.816   9.548  -0.013  0.00  0.00    -0.271 OA
ATOM      3  N   UNL     1      -2.599   9.513   0.069  0.00  0.00    -0.282 N 
ATOM      4  H   UNL     1      -1.769  10.011   0.131  0.00  0.00    +0.155 HD
ENDROOT
BRANCH   3   5
ATOM      5  C   UNL     1      -2.577   8.119   0.073  0.00  0.00    +0.034 A 
ATOM      6  C   UNL     1      -1.532   7.441  -0.544  0.00  0.00    +0.024 A 
ATOM      7  C   UNL     1      -1.500   6.061  -0.547  0.00  0.00    +0.014 A 
ATOM      8  C   UNL     1      -2.520   5.339   0.071  0.00  0.00    +0.033 A 
ATOM      9  C   UNL     1      -3.580   6.021   0.696  0.00  0.00    +0.035 A 
ATOM     10  C   UNL     1      -3.603   7.411   0.694  0.00  0.00    +0.035 A 
ATOM     11  C   UNL     1      -4.664   5.261   1.354  0.00  0.00    +0.195 C 
ATOM     12  O   UNL     1      -5.580   5.849   1.893  0.00  0.00    -0.287 OA
ATOM     13  C   UNL     1      -4.632   3.783   1.353  0.00  0.00    +0.033 A 
ATOM     14  C   UNL     1      -5.647   3.058   1.971  0.00  0.00    +0.012 A 
ATOM     15  C   UNL     1      -5.609   1.675   1.966  0.00  0.00    +0.001 A 
ATOM     16  C   UNL     1      -4.566   1.006   1.351  0.00  0.00    +0.001 A 
ATOM     17  C   UNL     1      -3.545   1.711   0.738  0.00  0.00    +0.012 A 
ATOM     18  C   UNL     1      -3.572   3.103   0.728  0.00  0.00    +0.033 A 
ATOM     19  C   UNL     1      -2.489   3.864   0.070  0.00  0.00    +0.195 C 
ATOM     20  O   UNL     1      -1.573   3.275  -0.470  0.00  0.00    -0.287 OA
ENDBRANCH   3   5
BRANCH   1  21
ATOM     21  C   UNL     1      -3.791  11.671  -0.127  0.00  0.00    +0.259 C 
ATOM     22  C   UNL     1      -3.142  12.096  -1.446  0.00  0.00    +0.062 C 
BRANCH  21  23
ATOM     23  O   UNL     1      -5.164  12.143  -0.090  0.00  0.00    -0.450 OA
BRANCH  23  24
ATOM     24  C   UNL     1      -5.376  13.361   0.433  0.00  0.00    +0.346 C 
ATOM     25  O   UNL     1      -4.446  14.011   0.847  0.00  0.00    -0.247 OA
BRANCH  24  26
ATOM     26  C   UNL     1      -6.775  13.917   0.505  0.00  0.00    +0.349 C 
BRANCH  26  27
ATOM     27  O   UNL     1      -6.741  15.217   1.097  0.00  0.00    -0.481 OA
BRANCH  27  33
ATOM     28  C   UNL     1      -9.222  19.157   2.560  0.00  0.00    +0.044 C 
ATOM     29  C   UNL     1      -9.178  17.782   1.944  0.00  0.00    -0.047 A 
ATOM     30  C   UNL     1     -10.346  17.177   1.520  0.00  0.00    +0.003 A 
ATOM     31  C   UNL     1     -10.309  15.916   0.954  0.00  0.00    +0.004 A 
ATOM     32  C   UNL     1      -9.102  15.260   0.807  0.00  0.00    +0.045 A 
ATOM     33  C   UNL     1      -7.929  15.863   1.237  0.00  0.00    +0.122 A 
ATOM     34  C   UNL     1      -7.969  17.128   1.804  0.00  0.00    +0.049 A 
ENDBRANCH  27  33
ENDBRANCH  26  27
ENDBRANCH  24  26
ENDBRANCH  23  24
ENDBRANCH  21  23
ENDBRANCH   1  21
TORSDOF 7
