REMARK  Name = ZINC05252906
REMARK  6 active torsions:
REMARK  status: ('A' for Active; 'I' for Inactive)
REMARK    1  A    between atoms: C_1  and  C_2
REMARK    2  A    between atoms: C_13  and  S_15
REMARK    3  A    between atoms: S_15  and  C_16
REMARK    4  A    between atoms: C_16  and  C_17
REMARK    5  A    between atoms: N_19  and  C_20
REMARK    6  A    between atoms: C_25  and  N_26
REMARK                            x       y       z     vdW  Elec       q    Type
REMARK                         _______ _______ _______ _____ _____    ______ ____
ROOT
ATOM      1  S   UNL     1      -1.716   8.139   0.021  0.00  0.00    -0.093 S 
ENDROOT
BRANCH   1  14
ATOM      2  C   UNL     1      -5.872   5.152  -0.033  0.00  0.00    +0.088 C 
ATOM      3  C   UNL     1      -4.367   5.233  -0.032  0.00  0.00    +0.128 A 
ATOM      4  N   UNL     1      -3.669   4.117  -0.052  0.00  0.00    -0.228 NA
ATOM      5  C   UNL     1      -2.339   4.151  -0.051  0.00  0.00    +0.121 A 
ATOM      6  C   UNL     1      -1.274   3.135  -0.070  0.00  0.00    +0.046 A 
ATOM      7  C   UNL     1      -1.265   1.743  -0.101  0.00  0.00    +0.014 A 
ATOM      8  C   UNL     1      -0.064   1.067  -0.107  0.00  0.00    +0.001 A 
ATOM      9  C   UNL     1       1.131   1.770  -0.095  0.00  0.00    +0.004 A 
ATOM     10  C   UNL     1       1.135   3.148  -0.070  0.00  0.00    +0.047 A 
ATOM     11  C   UNL     1      -0.066   3.848  -0.057  0.00  0.00    +0.138 A 
ATOM     12  O   UNL     1      -0.350   5.169  -0.033  0.00  0.00    -0.451 OA
ATOM     13  C   UNL     1      -1.681   5.386  -0.028  0.00  0.00    +0.186 A 
ATOM     14  C   UNL     1      -2.467   6.545  -0.007  0.00  0.00    +0.144 A 
ATOM     15  N   UNL     1      -3.791   6.420  -0.010  0.00  0.00    -0.222 NA
ENDBRANCH   1  14
BRANCH   1  16
ATOM     16  C   UNL     1      -3.195   9.183   0.040  0.00  0.00    +0.172 C 
BRANCH  16  17
ATOM     17  C   UNL     1      -2.786  10.633   0.067  0.00  0.00    +0.227 C 
ATOM     18  O   UNL     1      -1.610  10.931   0.072  0.00  0.00    -0.275 OA
ATOM     19  N   UNL     1      -3.726  11.598   0.084  0.00  0.00    -0.283 N 
ATOM     20  H   UNL     1      -4.664  11.363   0.015  0.00  0.00    +0.155 HD
BRANCH  19  21
ATOM     21  C   UNL     1      -3.349  12.941   0.202  0.00  0.00    +0.064 A 
ATOM     22  C   UNL     1      -2.179  13.390  -0.398  0.00  0.00    +0.025 A 
ATOM     23  C   UNL     1      -1.812  14.716  -0.284  0.00  0.00    +0.002 A 
ATOM     24  C   UNL     1      -2.603  15.595   0.435  0.00  0.00    +0.002 A 
ATOM     25  C   UNL     1      -3.764  15.149   1.038  0.00  0.00    +0.034 A 
ATOM     26  C   UNL     1      -4.140  13.825   0.923  0.00  0.00    +0.147 A 
BRANCH  26  27
ATOM     27  N   UNL     1      -5.383  13.349   1.569  0.00  0.00    +0.058 N 
ATOM     28  O   UNL     1      -6.128  14.142   2.117  0.00  0.00    -0.126 OA
ATOM     29  O   UNL     1      -5.663  12.163   1.553  0.00  0.00    -0.126 OA
ENDBRANCH  26  27
ENDBRANCH  19  21
ENDBRANCH  16  17
ENDBRANCH   1  16
TORSDOF 5
