REMARK  Name = ZINC09660431
REMARK  6 active torsions:
REMARK  status: ('A' for Active; 'I' for Inactive)
REMARK    1  A    between atoms: C_1  and  O_2
REMARK    2  A    between atoms: O_2  and  C_3
REMARK    3  A    between atoms: C_6  and  C_9
REMARK    4  A    between atoms: C_14  and  C_22
REMARK    5  A    between atoms: C_26  and  O_28
REMARK    6  A    between atoms: O_28  and  C_29
REMARK                            x       y       z     vdW  Elec       q    Type
REMARK                         _______ _______ _______ _____ _____    ______ ____
ROOT
ATOM      1  C   UNL     1       4.825  -0.089  -0.287  0.00  0.00    +0.032 C 
ATOM      2  C   UNL     1       3.560  -0.844  -0.698  0.00  0.00    +0.060 C 
ATOM      3  C   UNL     1       2.342  -0.024  -0.344  0.00  0.00    +0.020 C 
ATOM      4  C   UNL     1       2.389   1.325  -0.348  0.00  0.00    +0.041 C 
ATOM      5  C   UNL     1       1.185   2.174   0.002  0.00  0.00    +0.177 C 
ATOM      6  N   UNL     1      -0.016   1.354   0.009  0.00  0.00    -0.201 N 
ATOM      7  C   UNL     1       0.002  -0.004   0.002  0.00  0.00    +0.240 A 
ATOM      8  N   UNL     1      -1.236  -0.408   0.020  0.00  0.00    -0.092 NA
ATOM      9  N   UNL     1      -2.035   0.603   0.034  0.00  0.00    -0.021 NA
ATOM     10  N   UNL     1      -1.364   1.709   0.030  0.00  0.00    -0.042 NA
ATOM     11  N   UNL     1       1.193  -0.709  -0.025  0.00  0.00    -0.286 N 
ATOM     12  C   UNL     1       3.575   2.005  -0.678  0.00  0.00    +0.164 C 
ATOM     13  O   UNL     1       3.579   3.220  -0.694  0.00  0.00    -0.292 OA
ATOM     14  C   UNL     1       4.838   1.262  -1.011  0.00  0.00    +0.088 C 
ATOM     15  H   UNL     1       1.216  -1.658   0.174  0.00  0.00    +0.155 HD
ENDROOT
BRANCH   1  19
ATOM     16  C   UNL     1       8.276  -2.352  -1.399  0.00  0.00    +0.120 A 
ATOM     17  C   UNL     1       8.053  -2.034  -0.067  0.00  0.00    +0.046 A 
ATOM     18  C   UNL     1       6.937  -1.302   0.290  0.00  0.00    +0.007 A 
ATOM     19  C   UNL     1       6.042  -0.887  -0.679  0.00  0.00    -0.043 A 
ATOM     20  C   UNL     1       6.259  -1.208  -2.007  0.00  0.00    +0.007 A 
ATOM     21  C   UNL     1       7.376  -1.935  -2.369  0.00  0.00    +0.046 A 
BRANCH  16  23
ATOM     22  C   UNL     1       9.537  -3.364  -3.142  0.00  0.00    +0.277 C 
ATOM     23  O   UNL     1       9.373  -3.073  -1.753  0.00  0.00    -0.495 OA
ENDBRANCH  16  23
ENDBRANCH   1  19
BRANCH   5  24
ATOM     24  C   UNL     1       1.383   2.784   1.366  0.00  0.00    -0.015 A 
ATOM     25  C   UNL     1       1.540   1.968   2.472  0.00  0.00    +0.006 A 
ATOM     26  C   UNL     1       1.723   2.523   3.724  0.00  0.00    +0.004 A 
ATOM     27  C   UNL     1       1.749   3.897   3.875  0.00  0.00    +0.045 A 
ATOM     28  C   UNL     1       1.591   4.718   2.768  0.00  0.00    +0.120 A 
ATOM     29  C   UNL     1       1.413   4.157   1.511  0.00  0.00    +0.051 A 
BRANCH  28  30
ATOM     30  O   UNL     1       1.617   6.069   2.913  0.00  0.00    -0.495 OA
ATOM     31  C   UNL     1       1.810   6.575   4.235  0.00  0.00    +0.277 C 
ENDBRANCH  28  30
ENDBRANCH   5  24
TORSDOF 4
