REMARK  Name = ZINC09783639
REMARK  8 active torsions:
REMARK  status: ('A' for Active; 'I' for Inactive)
REMARK    1  A    between atoms: C_1  and  C_2
REMARK    2  A    between atoms: C_5  and  C_8
REMARK    3  A    between atoms: C_11  and  C_14
REMARK    4  A    between atoms: C_19  and  C_21
REMARK    5  A    between atoms: C_21  and  S_22
REMARK    6  A    between atoms: S_22  and  C_23
REMARK    7  A    between atoms: C_26  and  C_31
REMARK    8  A    between atoms: N_27  and  C_28
REMARK                            x       y       z     vdW  Elec       q    Type
REMARK                         _______ _______ _______ _____ _____    ______ ____
ROOT
ATOM      1  C   UNL     1       3.031 -10.550  -0.994  0.00  0.00    +0.069 C 
ATOM      2  N   UNL     1       2.516  -9.394  -0.756  0.00  0.00    -0.181 NA
ATOM      3  N   UNL     1       1.205  -9.440  -0.286  0.00  0.00    -0.181 N 
ATOM      4  C   UNL     1       0.783 -10.847  -0.191  0.00  0.00    +0.173 C 
ATOM      5  C   UNL     1       2.019 -11.628  -0.678  0.00  0.00    +0.090 C 
ATOM      6  C   UNL     1       0.449  -8.371   0.034  0.00  0.00    +0.246 C 
ATOM      7  O   UNL     1      -0.685  -8.529   0.436  0.00  0.00    -0.273 OA
ENDROOT
BRANCH   1  12
ATOM      8  C   UNL     1       8.358 -11.470  -2.956  0.00  0.00    +0.044 C 
ATOM      9  C   UNL     1       6.963 -11.229  -2.442  0.00  0.00    -0.050 A 
ATOM     10  C   UNL     1       6.522  -9.935  -2.225  0.00  0.00    +0.004 A 
ATOM     11  C   UNL     1       5.246  -9.707  -1.755  0.00  0.00    +0.010 A 
ATOM     12  C   UNL     1       4.397 -10.786  -1.497  0.00  0.00    -0.002 A 
ATOM     13  C   UNL     1       4.850 -12.089  -1.713  0.00  0.00    +0.010 A 
ATOM     14  C   UNL     1       6.127 -12.302  -2.189  0.00  0.00    +0.004 A 
ENDBRANCH   1  12
BRANCH   4  15
ATOM     15  C   UNL     1       0.453 -11.206   1.235  0.00  0.00    +0.128 A 
ATOM     16  C   UNL     1      -0.556 -12.001   1.633  0.00  0.00    +0.046 A 
ATOM     17  C   UNL     1      -0.496 -12.064   3.044  0.00  0.00    +0.041 A 
ATOM     18  C   UNL     1       0.545 -11.303   3.424  0.00  0.00    +0.195 A 
ATOM     19  O   UNL     1       1.120 -10.790   2.324  0.00  0.00    -0.466 OA
ENDBRANCH   4  15
BRANCH   6  20
ATOM     20  C   UNL     1       1.012  -6.980  -0.107  0.00  0.00    +0.175 C 
BRANCH  20  21
ATOM     21  S   UNL     1      -0.236  -5.771   0.397  0.00  0.00    -0.077 S 
BRANCH  21  22
ATOM     22  C   UNL     1       0.663  -4.277   0.140  0.00  0.00    +0.193 A 
ATOM     23  N   UNL     1       1.897  -4.177  -0.301  0.00  0.00    -0.122 NA
ATOM     24  N   UNL     1       2.242  -2.941  -0.370  0.00  0.00    -0.128 NA
ATOM     25  C   UNL     1       1.250  -2.176   0.022  0.00  0.00    +0.167 A 
ATOM     26  N   UNL     1       0.210  -3.009   0.367  0.00  0.00    -0.299 N 
BRANCH  25  27
ATOM     27  C   UNL     1       1.251  -0.700   0.088  0.00  0.00    +0.037 A 
ATOM     28  C   UNL     1       2.457   0.009   0.149  0.00  0.00    +0.014 A 
ATOM     29  C   UNL     1       2.404   1.390   0.209  0.00  0.00    +0.020 A 
ATOM     30  C   UNL     1       1.172   2.021   0.206  0.00  0.00    +0.111 A 
ATOM     31  N   UNL     1       0.052   1.327   0.148  0.00  0.00    -0.263 NA
ATOM     32  C   UNL     1       0.051   0.012   0.090  0.00  0.00    +0.122 A 
ENDBRANCH  25  27
BRANCH  26  33
ATOM     33  C   UNL     1      -1.109  -2.617   0.869  0.00  0.00    +0.091 C 
ATOM     34  C   UNL     1      -1.962  -3.700   1.535  0.00  0.00    +0.027 C 
ATOM     35  C   UNL     1      -2.336  -3.177   0.146  0.00  0.00    +0.027 C 
ENDBRANCH  26  33
ENDBRANCH  21  22
ENDBRANCH  20  21
ENDBRANCH   6  20
TORSDOF 7
