REMARK  Name = ZINC37327696
REMARK  3 active torsions:
REMARK  status: ('A' for Active; 'I' for Inactive)
REMARK    1  A    between atoms: C_1  and  C_2
REMARK    2  A    between atoms: C_2  and  C_4
REMARK    3  A    between atoms: N_9  and  C_10
REMARK                            x       y       z     vdW  Elec       q    Type
REMARK                         _______ _______ _______ _____ _____    ______ ____
ROOT
ATOM      1  C   UNL     1       0.715  -0.518   1.228  0.00  0.00    +0.238 C 
ATOM      2  O   UNL     1       0.488  -0.027   2.313  0.00  0.00    -0.274 OA
ATOM      3  N   UNL     1       1.626  -1.504   1.112  0.00  0.00    -0.239 N 
ATOM      4  C   UNL     1       2.286  -1.944   2.202  0.00  0.00    +0.310 C 
ATOM      5  O   UNL     1       2.058  -1.451   3.289  0.00  0.00    -0.252 OA
ATOM      6  N   UNL     1       3.198  -2.930   2.085  0.00  0.00    -0.268 N 
ATOM      7  H   UNL     1       1.808  -1.897   0.244  0.00  0.00    +0.159 HD
ATOM      8  H   UNL     1       3.333  -3.367   1.230  0.00  0.00    +0.156 HD
ENDROOT
BRANCH   6   9
ATOM      9  C   UNL     1       3.950  -3.322   3.199  0.00  0.00    +0.055 A 
ATOM     10  C   UNL     1       3.380  -3.304   4.465  0.00  0.00    +0.046 A 
ATOM     11  C   UNL     1       4.125  -3.692   5.563  0.00  0.00    +0.061 A 
ATOM     12  C   UNL     1       5.439  -4.099   5.401  0.00  0.00    +0.061 A 
ATOM     13  C   UNL     1       6.009  -4.118   4.140  0.00  0.00    +0.043 A 
ATOM     14  C   UNL     1       5.267  -3.736   3.039  0.00  0.00    +0.064 A 
ATOM     15 CL   UNL     1       5.981  -3.767   1.457  0.00  0.00    -0.082 Cl
ATOM     16 CL   UNL     1       6.372  -4.586   6.781  0.00  0.00    -0.082 Cl
ATOM     17 CL   UNL     1       3.413  -3.670   7.146  0.00  0.00    -0.082 Cl
ENDBRANCH   6   9
BRANCH   1  19
ATOM     18  C   UNL     1      -0.051   1.503   0.013  0.00  0.00    +0.034 C 
ATOM     19  C   UNL     1      -0.023  -0.027   0.009  0.00  0.00    +0.163 C 
ATOM     20 CL   UNL     1      -1.711  -0.659   0.032  0.00  0.00    -0.112 Cl
ENDBRANCH   1  19
TORSDOF 2
