REMARK  Name = ZINC06844326
REMARK  8 active torsions:
REMARK  status: ('A' for Active; 'I' for Inactive)
REMARK    1  A    between atoms: C_1  and  C_2
REMARK    2  A    between atoms: C_5  and  N_9
REMARK    3  A    between atoms: C_6  and  C_8
REMARK    4  A    between atoms: C_10  and  S_14
REMARK    5  A    between atoms: S_14  and  C_15
REMARK    6  A    between atoms: C_15  and  C_16
REMARK    7  A    between atoms: N_18  and  N_19
REMARK    8  A    between atoms: C_20  and  C_22
REMARK                            x       y       z     vdW  Elec       q    Type
REMARK                         _______ _______ _______ _____ _____    ______ ____
ROOT
ATOM      1  C   UNL     1      -2.259   0.549  -0.907  0.00  0.00    +0.174 C 
ENDROOT
BRANCH   1   2
ATOM      2  C   UNL     1      -3.666   1.059  -1.078  0.00  0.00    +0.239 C 
ATOM      3  O   UNL     1      -3.890   2.250  -1.029  0.00  0.00    -0.273 OA
ATOM      4  N   UNL     1      -4.676   0.192  -1.286  0.00  0.00    -0.233 N 
ATOM      5  H   UNL     1      -4.498  -0.761  -1.326  0.00  0.00    +0.173 HD
BRANCH   4   6
ATOM      6  N   UNL     1      -5.985   0.666  -1.446  0.00  0.00    -0.230 N 
ATOM      7  C   UNL     1      -6.995  -0.201  -1.654  0.00  0.00    +0.260 C 
ATOM      8  O   UNL     1      -6.771  -1.395  -1.703  0.00  0.00    -0.269 OA
ATOM      9  H   UNL     1      -6.164   1.619  -1.406  0.00  0.00    +0.173 HD
BRANCH   7  10
ATOM     10  C   UNL     1      -8.375   0.299  -1.822  0.00  0.00    +0.038 A 
ATOM     11  C   UNL     1      -8.637   1.669  -1.760  0.00  0.00    +0.016 A 
ATOM     12  C   UNL     1      -9.925   2.131  -1.923  0.00  0.00    +0.039 A 
ATOM     13  C   UNL     1     -10.963   1.236  -2.137  0.00  0.00    +0.123 A 
ATOM     14  C   UNL     1     -10.710  -0.126  -2.194  0.00  0.00    +0.039 A 
ATOM     15  C   UNL     1      -9.424  -0.598  -2.038  0.00  0.00    +0.016 A 
ATOM     16  F   UNL     1     -12.225   1.693  -2.291  0.00  0.00    -0.205 F 
ENDBRANCH   7  10
ENDBRANCH   4   6
ENDBRANCH   1   2
BRANCH   1  17
ATOM     17  S   UNL     1      -1.138   1.947  -0.646  0.00  0.00    -0.075 S 
BRANCH  17  19
ATOM     18  N   UNL     1       1.616   1.643  -0.269  0.00  0.00    -0.187 N 
ATOM     19  C   UNL     1       0.391   1.086  -0.481  0.00  0.00    +0.214 A 
ATOM     20  N   UNL     1       0.568  -0.216  -0.546  0.00  0.00    -0.101 NA
ATOM     21  N   UNL     1       1.808  -0.511  -0.390  0.00  0.00    -0.022 NA
ATOM     22  N   UNL     1       2.508   0.557  -0.216  0.00  0.00    -0.038 NA
BRANCH  18  27
ATOM     23  C   UNL     1       2.854   7.155   0.284  0.00  0.00    +0.044 C 
ATOM     24  C   UNL     1       2.525   5.691   0.138  0.00  0.00    -0.050 A 
ATOM     25  C   UNL     1       1.723   5.265  -0.906  0.00  0.00    +0.005 A 
ATOM     26  C   UNL     1       1.425   3.924  -1.046  0.00  0.00    +0.028 A 
ATOM     27  C   UNL     1       1.921   3.005  -0.132  0.00  0.00    +0.073 A 
ATOM     28  C   UNL     1       2.725   3.435   0.914  0.00  0.00    -0.025 A 
ATOM     29  C   UNL     1       3.025   4.777   1.046  0.00  0.00    +0.008 A 
ATOM     30  C   UNL     1       3.272   2.440   1.905  0.00  0.00    +0.046 C 
ENDBRANCH  18  27
ENDBRANCH  17  19
ENDBRANCH   1  17
TORSDOF 6
