REMARK  Name = ZINC12099811
REMARK  12 active torsions:
REMARK  status: ('A' for Active; 'I' for Inactive)
REMARK    1  A    between atoms: C_1  and  N_72
REMARK    2  A    between atoms: C_5  and  C_8
REMARK    3  A    between atoms: C_8  and  O_9
REMARK    4  A    between atoms: O_9  and  C_10
REMARK    5  A    between atoms: C_16  and  C_17
REMARK    6  A    between atoms: C_17  and  O_19
REMARK    7  A    between atoms: O_19  and  C_20
REMARK    8  A    between atoms: C_25  and  C_26
REMARK    9  A    between atoms: C_25  and  N_74
REMARK   10  A    between atoms: C_31  and  O_32
REMARK   11  A    between atoms: O_32  and  C_33
REMARK   12  A    between atoms: C_33  and  C_34
REMARK                            x       y       z     vdW  Elec       q    Type
REMARK                         _______ _______ _______ _____ _____    ______ ____
ROOT
ATOM      1  C   UNL     1       0.096   1.356  -1.017  0.00  0.00    +0.141 A 
ATOM      2  C   UNL     1       1.315   1.966  -0.800  0.00  0.00    +0.116 A 
ATOM      3  C   UNL     1       2.436   1.172  -0.557  0.00  0.00    +0.255 A 
ATOM      4  O   UNL     1       3.516   1.713  -0.384  0.00  0.00    -0.268 OA
ATOM      5  N   UNL     1       2.366  -0.179  -0.507  0.00  0.00    -0.313 N 
ATOM      6  C   UNL     1       1.217  -0.822  -0.750  0.00  0.00    +0.038 A 
ATOM      7  C   UNL     1       0.054  -0.107  -1.000  0.00  0.00    +0.120 A 
ATOM      8  C   UNL     1       1.107  -2.327  -0.778  0.00  0.00    +0.036 C 
ATOM      9  C   UNL     1       2.128  -2.979   0.152  0.00  0.00    -0.072 C 
ATOM     10  C   UNL     1       3.905  -1.999  -1.157  0.00  0.00    -0.056 C 
ATOM     11  C   UNL     1       3.604  -0.882  -0.157  0.00  0.00    +0.106 C 
ATOM     12  N   UNL     1       3.342  -3.261  -0.640  0.00  0.00    +0.384 N 
ATOM     13  H   UNL     1       3.092  -3.865  -1.432  0.00  0.00    -0.081 HD
ENDROOT
BRANCH   7  14
ATOM     14  C   UNL     1      -1.212  -0.815  -1.248  0.00  0.00    +0.344 C 
ATOM     15  O   UNL     1      -2.033  -0.922  -0.358  0.00  0.00    -0.245 OA
BRANCH  14  16
ATOM     16  O   UNL     1      -1.462  -1.345  -2.462  0.00  0.00    -0.464 OA
ATOM     17  C   UNL     1      -2.731  -2.029  -2.634  0.00  0.00    +0.280 C 
ENDBRANCH  14  16
ENDBRANCH   7  14
BRANCH   1  18
ATOM     18  O   UNL     1      -1.021   2.085  -1.244  0.00  0.00    -0.491 OA
BRANCH  18  19
ATOM     19  C   UNL     1      -0.879   3.507  -1.241  0.00  0.00    +0.230 C 
BRANCH  19  24
ATOM     20  C   UNL     1      -5.476   4.089   0.408  0.00  0.00    -0.096 C 
ATOM     21  C   UNL     1      -4.359   5.942  -0.677  0.00  0.00    -0.079 C 
ATOM     22  C   UNL     1      -3.438   6.319  -1.841  0.00  0.00    -0.018 C 
ATOM     23  C   UNL     1      -2.067   5.672  -1.629  0.00  0.00    +0.003 C 
ATOM     24  C   UNL     1      -2.238   4.155  -1.513  0.00  0.00    +0.010 C 
ATOM     25  C   UNL     1      -3.194   3.842  -0.359  0.00  0.00    -0.072 C 
ATOM     26  N   UNL     1      -4.502   4.471  -0.635  0.00  0.00    +0.378 N 
ATOM     27  H   UNL     1      -4.844   4.144  -1.546  0.00  0.00    -0.082 HD
ENDBRANCH  19  24
ENDBRANCH  18  19
ENDBRANCH   1  18
BRANCH  12  28
ATOM     28  C   UNL     1       4.343  -3.956   0.197  0.00  0.00    -0.039 C 
BRANCH  28  29
ATOM     29  C   UNL     1       3.937  -5.400   0.341  0.00  0.00    -0.022 A 
ATOM     30  C   UNL     1       3.411  -5.855   1.535  0.00  0.00    +0.005 A 
ATOM     31  C   UNL     1       3.038  -7.180   1.667  0.00  0.00    +0.000 A 
ATOM     32  C   UNL     1       3.188  -8.053   0.605  0.00  0.00    +0.004 A 
ATOM     33  C   UNL     1       3.712  -7.602  -0.591  0.00  0.00    +0.046 A 
ATOM     34  C   UNL     1       4.084  -6.272  -0.728  0.00  0.00    +0.122 A 
BRANCH  34  35
ATOM     35  O   UNL     1       4.595  -5.826  -1.905  0.00  0.00    -0.488 OA
BRANCH  35  36
ATOM     36  C   UNL     1       4.718  -6.780  -2.962  0.00  0.00    +0.256 C 
BRANCH  36  37
ATOM     37  C   UNL     1       5.299  -6.108  -4.180  0.00  0.00    +0.006 C 
ATOM     38  C   UNL     1       6.255  -6.694  -4.858  0.00  0.00    +0.007 C 
ENDBRANCH  36  37
ENDBRANCH  35  36
ENDBRANCH  34  35
ENDBRANCH  28  29
ENDBRANCH  12  28
TORSDOF 10
