REMARK  Name = ZINC67565925
REMARK  4 active torsions:
REMARK  status: ('A' for Active; 'I' for Inactive)
REMARK    1  A    between atoms: C_4  and  N_7
REMARK    2  A    between atoms: C_13  and  C_15
REMARK    3  A    between atoms: N_17  and  C_18
REMARK    4  A    between atoms: N_22  and  C_24
REMARK                            x       y       z     vdW  Elec       q    Type
REMARK                         _______ _______ _______ _____ _____    ______ ____
ROOT
ATOM      1  C   UNL     1       9.473  -1.740  -0.092  0.00  0.00    +0.299 C 
ATOM      2  O   UNL     1       9.945  -0.622  -0.085  0.00  0.00    -0.265 OA
ATOM      3  N   UNL     1      10.286  -2.815  -0.108  0.00  0.00    -0.307 N 
ATOM      4  H   UNL     1       9.909  -3.708  -0.114  0.00  0.00    +0.149 HD
ENDROOT
BRANCH   1  11
ATOM      5  N   UNL     1       3.623  -0.652  -0.037  0.00  0.00    -0.238 N 
ATOM      6  C   UNL     1       3.786  -2.000  -0.052  0.00  0.00    +0.116 A 
ATOM      7  C   UNL     1       5.113  -2.255  -0.065  0.00  0.00    +0.065 A 
ATOM      8  C   UNL     1       5.790  -1.024  -0.058  0.00  0.00    +0.148 A 
ATOM      9  N   UNL     1       4.894  -0.064  -0.048  0.00  0.00    -0.151 NA
ATOM     10  N   UNL     1       7.178  -0.850  -0.067  0.00  0.00    -0.261 N 
ATOM     11  C   UNL     1       7.991  -1.925  -0.083  0.00  0.00    +0.304 C 
ATOM     12  O   UNL     1       7.519  -3.043  -0.090  0.00  0.00    -0.265 OA
ATOM     13  H   UNL     1       7.555   0.043  -0.061  0.00  0.00    +0.157 HD
BRANCH   5  17
ATOM     14  C   UNL     1      -0.017   1.379   0.010  0.00  0.00    +0.000 A 
ATOM     15  C   UNL     1       1.170   2.089   0.002  0.00  0.00    +0.002 A 
ATOM     16  C   UNL     1       2.377   1.419  -0.013  0.00  0.00    +0.028 A 
ATOM     17  C   UNL     1       2.400   0.031  -0.021  0.00  0.00    +0.065 A 
ATOM     18  C   UNL     1       1.207  -0.680  -0.013  0.00  0.00    +0.028 A 
ATOM     19  C   UNL     1       0.002  -0.004   0.002  0.00  0.00    +0.002 A 
ENDBRANCH   5  17
ENDBRANCH   1  11
BRANCH   3  20
ATOM     20  C   UNL     1      11.740  -2.633  -0.117  0.00  0.00    +0.055 C 
ATOM     21  C   UNL     1      12.255  -2.498  -1.569  0.00  0.00    +0.002 C 
ATOM     22  C   UNL     1      13.583  -3.295  -1.541  0.00  0.00    -0.077 C 
ATOM     23  N   UNL     1      13.273  -4.440  -0.646  0.00  0.00    +0.383 N 
ATOM     24  C   UNL     1      12.438  -3.886   0.444  0.00  0.00    -0.056 C 
ATOM     25  H   UNL     1      12.762  -5.148  -1.151  0.00  0.00    -0.081 HD
BRANCH  23  26
ATOM     26  C   UNL     1      14.514  -5.003  -0.097  0.00  0.00    -0.069 C 
ATOM     27  C   UNL     1      15.417  -5.454  -1.263  0.00  0.00    -0.015 C 
ATOM     28  C   UNL     1      16.834  -5.542  -0.763  0.00  0.00    -0.002 C 
ATOM     29  C   UNL     1      17.208  -6.963  -0.300  0.00  0.00    -0.000 C 
ATOM     30  C   UNL     1      16.085  -7.645   0.503  0.00  0.00    -0.000 C 
ATOM     31  C   UNL     1      15.422  -6.708   1.477  0.00  0.00    -0.002 C 
ATOM     32  C   UNL     1      14.177  -6.098   0.800  0.00  0.00    -0.015 C 
ENDBRANCH  23  26
ENDBRANCH   3  20
TORSDOF 4
