REMARK  Name = ZINC12946390
REMARK  9 active torsions:
REMARK  status: ('A' for Active; 'I' for Inactive)
REMARK    1  A    between atoms: C_1  and  N_2
REMARK    2  A    between atoms: N_2  and  C_3
REMARK    3  A    between atoms: N_2  and  C_16
REMARK    4  A    between atoms: C_3  and  C_4
REMARK    5  A    between atoms: C_16  and  C_17
REMARK    6  A    between atoms: N_19  and  C_20
REMARK    7  A    between atoms: C_21  and  C_29
REMARK    8  A    between atoms: C_29  and  O_31
REMARK    9  A    between atoms: O_31  and  C_32
REMARK                            x       y       z     vdW  Elec       q    Type
REMARK                         _______ _______ _______ _____ _____    ______ ____
ROOT
ATOM      1  C   UNL     1      -0.286  -0.163  -2.406  0.00  0.00    +0.232 C 
ATOM      2  O   UNL     1      -1.314   0.454  -2.222  0.00  0.00    -0.274 OA
ATOM      3  N   UNL     1       0.064  -0.533  -3.653  0.00  0.00    -0.278 N 
ATOM      4  H   UNL     1       0.886  -1.026  -3.800  0.00  0.00    +0.155 HD
ENDROOT
BRANCH   3   5
ATOM      5  C   UNL     1      -0.751  -0.208  -4.727  0.00  0.00    +0.086 A 
ATOM      6  C   UNL     1      -0.556  -0.508  -6.067  0.00  0.00    +0.091 A 
ATOM      7  C   UNL     1      -1.568  -0.050  -7.003  0.00  0.00    -0.021 A 
ATOM      8  C   UNL     1      -2.588   0.623  -6.429  0.00  0.00    -0.004 A 
ATOM      9  S   UNL     1      -2.205   0.632  -4.702  0.00  0.00    -0.077 S 
ATOM     10  C   UNL     1      -3.775   1.219  -7.121  0.00  0.00    +0.043 C 
ATOM     11  C   UNL     1      -3.475   1.281  -8.626  0.00  0.00    +0.005 C 
ATOM     12  C   UNL     1      -2.927  -0.076  -9.078  0.00  0.00    +0.005 C 
ATOM     13  C   UNL     1      -1.523  -0.286  -8.506  0.00  0.00    +0.037 C 
BRANCH   6  14
ATOM     14  C   UNL     1       0.620  -1.254  -6.519  0.00  0.00    +0.342 C 
ATOM     15  O   UNL     1       0.584  -2.468  -6.581  0.00  0.00    -0.245 OA
BRANCH  14  16
ATOM     16  O   UNL     1       1.745  -0.594  -6.866  0.00  0.00    -0.464 OA
ATOM     17  C   UNL     1       2.854  -1.386  -7.297  0.00  0.00    +0.280 C 
ENDBRANCH  14  16
ENDBRANCH   6  14
ENDBRANCH   3   5
BRANCH   1  18
ATOM     18  C   UNL     1       0.600  -0.516  -1.239  0.00  0.00    +0.181 C 
BRANCH  18  20
ATOM     19  C   UNL     1      -0.018   1.465   0.010  0.00  0.00    +0.105 C 
ATOM     20  N   UNL     1       0.002  -0.004   0.002  0.00  0.00    -0.290 NA
BRANCH  20  21
ATOM     21  C   UNL     1       0.706  -0.527   1.180  0.00  0.00    +0.158 C 
BRANCH  21  22
ATOM     22  C   UNL     1      -0.073  -0.186   2.424  0.00  0.00    +0.124 A 
ATOM     23  N   UNL     1       0.423  -0.583   3.625  0.00  0.00    -0.309 N 
ATOM     24  H   UNL     1       1.259  -1.073   3.661  0.00  0.00    +0.170 HD
ATOM     25  C   UNL     1      -0.239  -0.301   4.771  0.00  0.00    +0.259 A 
ATOM     26  O   UNL     1       0.194  -0.651   5.854  0.00  0.00    -0.267 OA
ATOM     27  C   UNL     1      -1.502   0.444   4.658  0.00  0.00    +0.065 A 
ATOM     28  C   UNL     1      -2.260   0.784   5.776  0.00  0.00    +0.015 A 
ATOM     29  C   UNL     1      -3.436   1.482   5.612  0.00  0.00    +0.001 A 
ATOM     30  C   UNL     1      -3.869   1.849   4.345  0.00  0.00    +0.002 A 
ATOM     31  C   UNL     1      -3.135   1.522   3.227  0.00  0.00    +0.028 A 
ATOM     32  C   UNL     1      -1.939   0.815   3.367  0.00  0.00    +0.078 A 
ATOM     33  N   UNL     1      -1.182   0.476   2.293  0.00  0.00    -0.232 NA
ENDBRANCH  21  22
ENDBRANCH  20  21
ENDBRANCH  18  20
ENDBRANCH   1  18
TORSDOF 7
