REMARK  Name = ZINC38774067
REMARK  6 active torsions:
REMARK  status: ('A' for Active; 'I' for Inactive)
REMARK    1  A    between atoms: C_3  and  N_30
REMARK    2  A    between atoms: C_6  and  C_7
REMARK    3  A    between atoms: C_8  and  C_9
REMARK    4  A    between atoms: N_11  and  C_12
REMARK    5  A    between atoms: C_12  and  C_13
REMARK    6  A    between atoms: C_13  and  N_14
REMARK                            x       y       z     vdW  Elec       q    Type
REMARK                         _______ _______ _______ _____ _____    ______ ____
ROOT
ATOM      1  C   UNL     1       1.087  -6.354  -0.598  0.00  0.00    -0.060 C 
ENDROOT
BRANCH   1   2
ATOM      2  N   UNL     1       2.369  -7.071  -0.615  0.00  0.00    +0.383 N 
ATOM      3  C   UNL     1       2.988  -6.995   0.714  0.00  0.00    -0.059 C 
ATOM      4  C   UNL     1       4.376  -7.643   0.668  0.00  0.00    +0.088 C 
ATOM      5  N   UNL     1       4.235  -9.010   0.142  0.00  0.00    -0.313 N 
ATOM      6  C   UNL     1       3.483  -9.197  -1.108  0.00  0.00    +0.088 C 
ATOM      7  C   UNL     1       2.138  -8.475  -0.979  0.00  0.00    -0.059 C 
ATOM      8  C   UNL     1       4.793 -10.085   0.802  0.00  0.00    +0.162 A 
ATOM      9  N   UNL     1       5.483 -10.098   1.920  0.00  0.00    -0.225 NA
ATOM     10  C   UNL     1       5.973 -11.238   2.456  0.00  0.00    +0.080 A 
ATOM     11  C   UNL     1       6.726 -11.389   3.643  0.00  0.00    +0.030 A 
ATOM     12  C   UNL     1       7.151 -12.627   4.050  0.00  0.00    +0.017 A 
ATOM     13  C   UNL     1       6.861 -13.770   3.318  0.00  0.00    +0.019 A 
ATOM     14  C   UNL     1       6.125 -13.658   2.151  0.00  0.00    +0.032 A 
ATOM     15  C   UNL     1       5.696 -12.422   1.737  0.00  0.00    +0.042 A 
ATOM     16  S   UNL     1       4.753 -11.816   0.359  0.00  0.00    -0.052 S 
ATOM     17 BR   UNL     1       7.464 -15.462   3.908  0.00  0.00    -0.050 Br
ATOM     18  H   UNL     1       2.982  -6.646  -1.294  0.00  0.00    -0.082 HD
ENDBRANCH   1   2
BRANCH   1  19
ATOM     19  C   UNL     1       1.339  -4.867  -0.342  0.00  0.00    +0.086 C 
BRANCH  19  22
ATOM     20  C   UNL     1       0.036  -2.820  -0.115  0.00  0.00    +0.237 C 
ATOM     21  O   UNL     1       1.076  -2.212   0.060  0.00  0.00    -0.271 OA
ATOM     22  N   UNL     1       0.061  -4.151  -0.326  0.00  0.00    -0.314 N 
ATOM     23  H   UNL     1      -0.768  -4.635  -0.466  0.00  0.00    +0.149 HD
BRANCH  20  25
ATOM     24  C   UNL     1      -1.259  -0.758  -0.033  0.00  0.00    +0.013 C 
ATOM     25  C   UNL     1      -1.241  -2.105  -0.099  0.00  0.00    +0.068 C 
BRANCH  24  31
ATOM     26  C   UNL     1       0.878  -0.354  -1.241  0.00  0.00    +0.010 A 
ATOM     27  C   UNL     1       2.041   0.366  -1.417  0.00  0.00    +0.033 A 
ATOM     28  C   UNL     1       2.325   1.441  -0.593  0.00  0.00    +0.126 A 
ATOM     29  C   UNL     1       1.446   1.802   0.414  0.00  0.00    +0.033 A 
ATOM     30  C   UNL     1       0.279   1.092   0.602  0.00  0.00    +0.010 A 
ATOM     31  C   UNL     1      -0.016   0.005  -0.227  0.00  0.00    -0.025 A 
BRANCH  28  32
ATOM     32  N   UNL     1       3.575   2.208  -0.788  0.00  0.00    +0.056 N 
ATOM     33  O   UNL     1       4.346   1.896  -1.666  0.00  0.00    -0.126 OA
ATOM     34  O   UNL     1       3.827   3.148  -0.069  0.00  0.00    -0.126 OA
ENDBRANCH  28  32
ENDBRANCH  24  31
ENDBRANCH  20  25
ENDBRANCH  19  22
ENDBRANCH   1  19
TORSDOF 6
