REMARK  Name = ZINC39774387
REMARK  7 active torsions:
REMARK  status: ('A' for Active; 'I' for Inactive)
REMARK    1  A    between atoms: C_1  and  C_2
REMARK    2  A    between atoms: C_4  and  C_22
REMARK    3  A    between atoms: C_6  and  N_16
REMARK    4  A    between atoms: N_8  and  C_10
REMARK    5  A    between atoms: N_23  and  N_24
REMARK    6  A    between atoms: C_25  and  C_27
REMARK    7  A    between atoms: C_30  and  C_33
REMARK                            x       y       z     vdW  Elec       q    Type
REMARK                         _______ _______ _______ _____ _____    ______ ____
ROOT
ATOM      1  C   UNL     1      -0.356   1.419  -0.194  0.00  0.00    +0.026 C 
ATOM      2  C   UNL     1      -0.333  -0.111  -0.189  0.00  0.00    +0.078 C 
ATOM      3  C   UNL     1      -1.702  -0.686   0.267  0.00  0.00    +0.055 C 
ATOM      4  C   UNL     1      -1.550  -0.636   1.806  0.00  0.00    +0.047 C 
ATOM      5  N   UNL     1      -0.102  -0.557   2.054  0.00  0.00    -0.279 N 
ATOM      6  N   UNL     1       0.579  -0.625   0.865  0.00  0.00    -0.238 NA
ATOM      7  H   UNL     1       0.864  -1.573   0.666  0.00  0.00    +0.145 HD
ENDROOT
BRANCH   4   8
ATOM      8  N   UNL     1      -2.227   0.552   2.345  0.00  0.00    +0.393 N 
ATOM      9  C   UNL     1      -3.645   0.518   1.969  0.00  0.00    -0.076 C 
ATOM     10  C   UNL     1      -4.371   1.710   2.596  0.00  0.00    -0.019 C 
ATOM     11  C   UNL     1      -3.738   3.010   2.091  0.00  0.00    -0.004 C 
ATOM     12  C   UNL     1      -2.243   3.001   2.423  0.00  0.00    -0.019 C 
ATOM     13  C   UNL     1      -1.596   1.761   1.802  0.00  0.00    -0.076 C 
ATOM     14  H   UNL     1      -2.147   0.555   3.351  0.00  0.00    -0.079 HD
ENDBRANCH   4   8
BRANCH   5  15
ATOM     15  C   UNL     1       0.491  -0.430   3.313  0.00  0.00    +0.043 A 
ATOM     16  C   UNL     1      -0.301  -0.370   4.452  0.00  0.00    +0.024 A 
ATOM     17  C   UNL     1       0.289  -0.246   5.695  0.00  0.00    +0.002 A 
ATOM     18  C   UNL     1       1.666  -0.181   5.805  0.00  0.00    +0.000 A 
ATOM     19  C   UNL     1       2.457  -0.240   4.673  0.00  0.00    +0.002 A 
ATOM     20  C   UNL     1       1.874  -0.370   3.427  0.00  0.00    +0.024 A 
ENDBRANCH   5  15
BRANCH   3  21
ATOM     21  C   UNL     1      -2.838   0.189  -0.196  0.00  0.00    +0.108 C 
ATOM     22  N   UNL     1      -3.848  -0.332  -0.786  0.00  0.00    -0.192 NA
BRANCH  22  23
ATOM     23  N   UNL     1      -4.904   0.482  -1.216  0.00  0.00    -0.205 N 
ATOM     24  C   UNL     1      -5.968  -0.066  -1.837  0.00  0.00    +0.262 C 
ATOM     25  O   UNL     1      -6.010  -1.264  -2.024  0.00  0.00    -0.271 OA
ATOM     26  H   UNL     1      -4.871   1.440  -1.067  0.00  0.00    +0.177 HD
BRANCH  24  27
ATOM     27  C   UNL     1      -7.104   0.809  -2.300  0.00  0.00    +0.240 C 
ATOM     28  C   UNL     1      -8.058   1.100  -1.155  0.00  0.00    +0.035 C 
ATOM     29  C   UNL     1      -9.215   0.571  -1.558  0.00  0.00    +0.059 C 
ATOM     30  N   UNL     1      -9.085   0.007  -2.780  0.00  0.00    -0.159 NA
ATOM     31  N   UNL     1      -7.952   0.093  -3.268  0.00  0.00    -0.170 NA
ATOM     32  C   UNL     1     -10.493   0.600  -0.760  0.00  0.00    +0.067 C 
ENDBRANCH  24  27
ENDBRANCH  22  23
ENDBRANCH   3  21
TORSDOF 5
