REMARK  Name = ZINC22173205
REMARK  9 active torsions:
REMARK  status: ('A' for Active; 'I' for Inactive)
REMARK    1  A    between atoms: C_1  and  O_2
REMARK    2  A    between atoms: O_2  and  C_3
REMARK    3  A    between atoms: C_5  and  C_14
REMARK    4  A    between atoms: C_6  and  O_12
REMARK    5  A    between atoms: O_12  and  C_13
REMARK    6  A    between atoms: C_15  and  C_24
REMARK    7  A    between atoms: C_16  and  N_23
REMARK    8  A    between atoms: C_18  and  N_22
REMARK    9  A    between atoms: C_19  and  C_20
REMARK                            x       y       z     vdW  Elec       q    Type
REMARK                         _______ _______ _______ _____ _____    ______ ____
ROOT
ATOM      1  C   UNL     1      -1.170  -0.596  -2.495  0.00  0.00    +0.108 C 
ATOM      2  C   UNL     1      -2.030   0.394  -3.203  0.00  0.00    +0.069 C 
ATOM      3  C   UNL     1      -2.926   0.104  -4.162  0.00  0.00    +0.079 C 
ATOM      4  S   UNL     1      -3.213  -1.526  -4.747  0.00  0.00    -0.058 S 
ATOM      5  C   UNL     1      -1.738  -2.328  -4.235  0.00  0.00    +0.079 C 
ATOM      6  C   UNL     1      -0.937  -1.846  -3.270  0.00  0.00    +0.069 C 
ENDROOT
BRANCH   1   9
ATOM      7  C   UNL     1      -3.655  -1.931   0.020  0.00  0.00    +0.166 A 
ATOM      8  C   UNL     1      -3.049  -1.599  -1.181  0.00  0.00    +0.057 A 
ATOM      9  C   UNL     1      -1.826  -0.955  -1.186  0.00  0.00    +0.015 A 
ATOM     10  C   UNL     1      -1.202  -0.638   0.010  0.00  0.00    +0.170 A 
ATOM     11  C   UNL     1      -1.802  -0.974   1.218  0.00  0.00    +0.211 A 
ATOM     12  C   UNL     1      -3.035  -1.616   1.223  0.00  0.00    +0.211 A 
ATOM     13  O   UNL     1      -3.412  -1.828   2.519  0.00  0.00    -0.449 OA
ATOM     14  C   UNL     1      -2.597  -0.941   3.307  0.00  0.00    +0.467 C 
ATOM     15  O   UNL     1      -1.409  -0.772   2.511  0.00  0.00    -0.449 OA
BRANCH   7  17
ATOM     16  C   UNL     1      -5.440  -2.859  -1.251  0.00  0.00    +0.277 C 
ATOM     17  O   UNL     1      -4.859  -2.566   0.022  0.00  0.00    -0.491 OA
ENDBRANCH   7  17
BRANCH  10  18
ATOM     18  O   UNL     1       0.002  -0.004   0.002  0.00  0.00    -0.491 OA
ATOM     19  C   UNL     1      -0.017   1.425   0.010  0.00  0.00    +0.277 C 
ENDBRANCH  10  18
ENDBRANCH   1   9
BRANCH   5  20
ATOM     20  N   UNL     1      -1.387  -3.506  -4.850  0.00  0.00    -0.352 N 
ATOM     21  H   UNL     1      -0.468  -4.030  -4.550  0.00  0.00    +0.143 HD
ATOM     22  H   UNL     1      -2.024  -3.924  -5.644  0.00  0.00    +0.143 HD
ENDBRANCH   5  20
BRANCH   3  23
ATOM     23  N   UNL     1      -3.652   1.134  -4.712  0.00  0.00    -0.352 N 
ATOM     24  H   UNL     1      -4.392   0.926  -5.499  0.00  0.00    +0.143 HD
ATOM     25  H   UNL     1      -3.493   2.165  -4.365  0.00  0.00    +0.143 HD
ENDBRANCH   3  23
BRANCH   6  26
ATOM     26  C   UNL     1       0.241  -2.599  -2.960  0.00  0.00    +0.098 C 
ATOM     27  N   UNL     1       1.175  -3.197  -2.714  0.00  0.00    -0.191 NA
ENDBRANCH   6  26
BRANCH   2  28
ATOM     28  C   UNL     1      -1.891   1.769  -2.830  0.00  0.00    +0.098 C 
ATOM     29  N   UNL     1      -1.781   2.860  -2.534  0.00  0.00    -0.191 NA
ENDBRANCH   2  28
TORSDOF 7
