REMARK  Name = ZINC66319071
REMARK  7 active torsions:
REMARK  status: ('A' for Active; 'I' for Inactive)
REMARK    1  A    between atoms: C_1  and  C_2
REMARK    2  A    between atoms: N_4  and  C_5
REMARK    3  A    between atoms: C_5  and  C_6
REMARK    4  A    between atoms: N_8  and  C_9
REMARK    5  A    between atoms: C_9  and  C_10
REMARK    6  A    between atoms: C_21  and  C_23
REMARK    7  A    between atoms: C_21  and  C_24
REMARK                            x       y       z     vdW  Elec       q    Type
REMARK                         _______ _______ _______ _____ _____    ______ ____
ROOT
ATOM      1  C   UNL     1      -4.132  -6.022   0.009  0.00  0.00    +0.236 C 
ATOM      2  O   UNL     1      -3.074  -6.614  -0.004  0.00  0.00    -0.274 OA
ATOM      3  N   UNL     1      -5.290  -6.712   0.017  0.00  0.00    -0.263 N 
ATOM      4  C   UNL     1      -5.271  -8.095   0.009  0.00  0.00    +0.165 A 
ATOM      5  N   UNL     1      -6.301  -8.926   0.009  0.00  0.00    -0.229 NA
ATOM      6  C   UNL     1      -6.146 -10.228   0.000  0.00  0.00    +0.062 A 
ATOM      7  C   UNL     1      -4.810 -10.650  -0.011  0.00  0.00    +0.079 A 
ATOM      8  S   UNL     1      -3.931  -9.119  -0.010  0.00  0.00    -0.049 S 
ATOM      9  C   UNL     1      -4.384 -11.974  -0.028  0.00  0.00    +0.172 C 
ATOM     10  O   UNL     1      -3.203 -12.259  -0.015  0.00  0.00    -0.291 OA
ATOM     11  C   UNL     1      -5.457 -13.046  -0.064  0.00  0.00    +0.087 C 
ATOM     12  C   UNL     1      -6.703 -12.543   0.665  0.00  0.00    -0.022 C 
ATOM     13  C   UNL     1      -7.251 -11.274   0.005  0.00  0.00    +0.063 C 
ATOM     14  C   UNL     1      -6.344 -12.238   2.120  0.00  0.00    +0.011 C 
ATOM     15  C   UNL     1      -7.779 -13.631   0.632  0.00  0.00    +0.011 C 
ATOM     16  H   UNL     1      -6.136  -6.239   0.027  0.00  0.00    +0.157 HD
ENDROOT
BRANCH   1  17
ATOM     17  C   UNL     1      -4.152  -4.516   0.018  0.00  0.00    +0.200 C 
BRANCH  17  20
ATOM     18  C   UNL     1      -2.550  -2.680   0.012  0.00  0.00    +0.231 C 
ATOM     19  O   UNL     1      -3.482  -1.905   0.025  0.00  0.00    -0.274 OA
ATOM     20  N   UNL     1      -2.778  -4.008   0.007  0.00  0.00    -0.305 N 
ATOM     21  H   UNL     1      -2.032  -4.629  -0.003  0.00  0.00    +0.149 HD
BRANCH  18  22
ATOM     22  C   UNL     1      -1.136  -2.159   0.001  0.00  0.00    +0.200 C 
BRANCH  22  26
ATOM     23  C   UNL     1      -0.018   1.503   0.010  0.00  0.00    +0.109 C 
ATOM     24  C   UNL     1       0.002  -0.004   0.002  0.00  0.00    +0.210 C 
ATOM     25  O   UNL     1       1.060  -0.596  -0.011  0.00  0.00    -0.276 OA
ATOM     26  N   UNL     1      -1.156  -0.694   0.009  0.00  0.00    -0.307 N 
ATOM     27  H   UNL     1      -2.002  -0.220   0.020  0.00  0.00    +0.149 HD
ENDBRANCH  22  26
ENDBRANCH  18  22
ENDBRANCH  17  20
ENDBRANCH   1  17
TORSDOF 4
