REMARK  Name = ZINC06283162
REMARK  5 active torsions:
REMARK  status: ('A' for Active; 'I' for Inactive)
REMARK    1  A    between atoms: C_1  and  C_2
REMARK    2  A    between atoms: C_8  and  C_10
REMARK    3  A    between atoms: C_8  and  C_25
REMARK    4  A    between atoms: C_8  and  N_63
REMARK    5  A    between atoms: N_29  and  C_30
REMARK                            x       y       z     vdW  Elec       q    Type
REMARK                         _______ _______ _______ _____ _____    ______ ____
ROOT
ATOM      1  C   UNL     1      -1.237   2.190   0.020  0.00  0.00    +0.039 C 
ENDROOT
BRANCH   1   2
ATOM      2  C   UNL     1      -1.852   2.179   1.396  0.00  0.00    +0.011 A 
ATOM      3  C   UNL     1      -1.878   3.318   2.133  0.00  0.00    +0.017 A 
ATOM      4  C   UNL     1      -2.482   3.276   3.465  0.00  0.00    +0.002 A 
ATOM      5  C   UNL     1      -2.536   4.420   4.270  0.00  0.00    +0.059 A 
ATOM      6  C   UNL     1      -3.111   4.349   5.520  0.00  0.00    +0.167 A 
ATOM      7  C   UNL     1      -3.639   3.139   5.986  0.00  0.00    +0.168 A 
ATOM      8  C   UNL     1      -3.590   2.004   5.197  0.00  0.00    +0.075 A 
ATOM      9  C   UNL     1      -3.014   2.059   3.934  0.00  0.00    +0.053 A 
ATOM     10  N   UNL     1      -2.956   0.936   3.134  0.00  0.00    -0.322 N 
ATOM     11  H   UNL     1      -3.323   0.099   3.458  0.00  0.00    +0.169 HD
ATOM     12  C   UNL     1      -2.403   0.988   1.909  0.00  0.00    +0.251 A 
ATOM     13  O   UNL     1      -2.374  -0.022   1.228  0.00  0.00    -0.268 OA
ATOM     14  O   UNL     1      -4.143   3.341   7.238  0.00  0.00    -0.453 OA
ATOM     15  C   UNL     1      -3.554   4.571   7.697  0.00  0.00    +0.466 C 
ATOM     16  O   UNL     1      -3.288   5.300   6.485  0.00  0.00    -0.453 OA
ENDBRANCH   1   2
BRANCH   1  23
ATOM     17  C   UNL     1      -2.049   1.027  -4.690  0.00  0.00    +0.005 C 
ATOM     18  C   UNL     1      -2.632   1.017  -3.275  0.00  0.00    -0.031 C 
ATOM     19  C   UNL     1      -3.950   1.795  -3.260  0.00  0.00    -0.001 C 
ATOM     20  C   UNL     1      -4.497   1.832  -1.830  0.00  0.00    -0.018 C 
ATOM     21  C   UNL     1      -3.455   2.469  -0.908  0.00  0.00    -0.077 C 
ATOM     22  C   UNL     1      -1.644   1.679  -2.311  0.00  0.00    -0.074 C 
ATOM     23  N   UNL     1      -2.218   1.660  -0.949  0.00  0.00    +0.389 N 
ATOM     24  H   UNL     1      -2.446   0.691  -0.696  0.00  0.00    -0.080 HD
ENDBRANCH   1  23
BRANCH   1  25
ATOM     25  C   UNL     1      -0.016   1.306   0.009  0.00  0.00    +0.143 A 
ATOM     26  N   UNL     1       0.002  -0.004   0.002  0.00  0.00    -0.115 NA
ATOM     27  N   UNL     1       1.233  -0.385  -0.012  0.00  0.00    -0.023 NA
ATOM     28  N   UNL     1       2.000   0.648  -0.014  0.00  0.00    -0.044 NA
ATOM     29  N   UNL     1       1.268   1.710  -0.001  0.00  0.00    -0.227 N 
BRANCH  29  30
ATOM     30  C   UNL     1       1.745   3.096   0.002  0.00  0.00    +0.111 C 
ATOM     31  C   UNL     1       2.581   3.350  -1.254  0.00  0.00    +0.027 C 
ATOM     32  C   UNL     1       3.079   4.796  -1.252  0.00  0.00    +0.002 C 
ATOM     33  C   UNL     1       3.938   5.038  -0.009  0.00  0.00    +0.000 C 
ATOM     34  C   UNL     1       3.102   4.784   1.247  0.00  0.00    +0.002 C 
ATOM     35  C   UNL     1       2.604   3.337   1.244  0.00  0.00    +0.027 C 
ENDBRANCH  29  30
ENDBRANCH   1  25
TORSDOF 4
