REMARK  Name = ZINC01903817
REMARK  7 active torsions:
REMARK  status: ('A' for Active; 'I' for Inactive)
REMARK    1  A    between atoms: C_1  and  C_2
REMARK    2  A    between atoms: C_3  and  N_15
REMARK    3  A    between atoms: N_6  and  C_9
REMARK    4  A    between atoms: N_7  and  C_8
REMARK    5  A    between atoms: N_26  and  C_29
REMARK    6  A    between atoms: C_29  and  C_30
REMARK    7  A    between atoms: N_32  and  C_33
REMARK                            x       y       z     vdW  Elec       q    Type
REMARK                         _______ _______ _______ _____ _____    ______ ____
ROOT
ATOM      1  N   UNL     1      -0.556   0.091  -2.708  0.00  0.00    -0.217 N 
ATOM      2  C   UNL     1      -0.485  -0.965  -3.501  0.00  0.00    +0.264 C 
ATOM      3  O   UNL     1      -0.255  -2.078  -3.068  0.00  0.00    -0.269 OA
ATOM      4  C   UNL     1      -0.701  -0.716  -4.952  0.00  0.00    +0.090 C 
ATOM      5  C   UNL     1      -0.689  -1.605  -6.009  0.00  0.00    +0.065 C 
ATOM      6  C   UNL     1      -0.652  -3.081  -5.944  0.00  0.00    +0.010 A 
ATOM      7  C   UNL     1      -0.619  -3.988  -4.888  0.00  0.00    +0.010 A 
ATOM      8  C   UNL     1      -0.588  -5.343  -5.151  0.00  0.00    +0.001 A 
ATOM      9  C   UNL     1      -0.589  -5.796  -6.459  0.00  0.00    +0.002 A 
ATOM     10  C   UNL     1      -0.622  -4.905  -7.513  0.00  0.00    +0.024 A 
ATOM     11  C   UNL     1      -0.654  -3.537  -7.270  0.00  0.00    +0.045 A 
ATOM     12  N   UNL     1      -0.689  -2.446  -8.131  0.00  0.00    -0.258 N 
ATOM     13  C   UNL     1      -0.717  -1.287  -7.451  0.00  0.00    +0.253 C 
ATOM     14  O   UNL     1      -0.755  -0.172  -7.938  0.00  0.00    -0.270 OA
ATOM     15  S   UNL     1      -0.982   1.049  -4.949  0.00  0.00    -0.060 S 
ATOM     16  C   UNL     1      -0.816   1.322  -3.192  0.00  0.00    +0.125 C 
ATOM     17  S   UNL     1      -0.953   2.794  -2.330  0.00  0.00    -0.027 S 
ENDROOT
BRANCH   1  20
ATOM     18  C   UNL     1       2.080  -0.791  -1.408  0.00  0.00    +0.067 C 
ATOM     19  C   UNL     1       0.784  -0.461  -0.714  0.00  0.00    +0.060 A 
ATOM     20  C   UNL     1      -0.361  -0.075  -1.323  0.00  0.00    +0.129 A 
ATOM     21  C   UNL     1      -1.359   0.138  -0.274  0.00  0.00    +0.294 A 
ATOM     22  O   UNL     1      -2.513   0.491  -0.432  0.00  0.00    -0.264 OA
ATOM     23  N   UNL     1      -0.755  -0.132   0.903  0.00  0.00    -0.216 N 
ATOM     24  N   UNL     1       0.566  -0.508   0.636  0.00  0.00    -0.282 N 
ATOM     25  C   UNL     1       1.560  -0.888   1.643  0.00  0.00    +0.171 C 
BRANCH  23  26
ATOM     26  C   UNL     1      -1.348  -0.055   2.167  0.00  0.00    +0.067 A 
ATOM     27  C   UNL     1      -0.698   0.605   3.201  0.00  0.00    +0.028 A 
ATOM     28  C   UNL     1      -1.286   0.680   4.449  0.00  0.00    +0.002 A 
ATOM     29  C   UNL     1      -2.522   0.100   4.668  0.00  0.00    +0.000 A 
ATOM     30  C   UNL     1      -3.172  -0.558   3.639  0.00  0.00    +0.002 A 
ATOM     31  C   UNL     1      -2.592  -0.632   2.389  0.00  0.00    +0.028 A 
ENDBRANCH  23  26
ENDBRANCH   1  20
BRANCH  12  32
ATOM     32  C   UNL     1      -0.701  -2.547  -9.592  0.00  0.00    +0.210 C 
BRANCH  32  33
ATOM     33  C   UNL     1      -2.125  -2.617 -10.079  0.00  0.00    +0.235 C 
ATOM     34  O   UNL     1      -3.041  -2.585  -9.284  0.00  0.00    -0.274 OA
ATOM     35  N   UNL     1      -2.382  -2.714 -11.399  0.00  0.00    -0.284 N 
ATOM     36  H   UNL     1      -1.652  -2.823 -12.028  0.00  0.00    +0.155 HD
BRANCH  35  37
ATOM     37  C   UNL     1      -3.703  -2.659 -11.861  0.00  0.00    +0.034 A 
ATOM     38  C   UNL     1      -4.083  -3.405 -12.969  0.00  0.00    +0.026 A 
ATOM     39  C   UNL     1      -5.387  -3.349 -13.423  0.00  0.00    +0.040 A 
ATOM     40  C   UNL     1      -6.313  -2.550 -12.775  0.00  0.00    +0.124 A 
ATOM     41  C   UNL     1      -5.936  -1.806 -11.670  0.00  0.00    +0.040 A 
ATOM     42  C   UNL     1      -4.635  -1.863 -11.209  0.00  0.00    +0.026 A 
ATOM     43  F   UNL     1      -7.587  -2.496 -13.221  0.00  0.00    -0.205 F 
ENDBRANCH  35  37
ENDBRANCH  32  33
ENDBRANCH  12  32
TORSDOF 5
