REMARK  Name = ZINC24312785
REMARK  8 active torsions:
REMARK  status: ('A' for Active; 'I' for Inactive)
REMARK    1  A    between atoms: C_1  and  C_2
REMARK    2  A    between atoms: C_6  and  C_15
REMARK    3  A    between atoms: N_8  and  C_9
REMARK    4  A    between atoms: N_17  and  N_18
REMARK    5  A    between atoms: C_19  and  C_21
REMARK    6  A    between atoms: C_21  and  C_23
REMARK    7  A    between atoms: C_21  and  O_24
REMARK    8  A    between atoms: O_24  and  C_25
REMARK                            x       y       z     vdW  Elec       q    Type
REMARK                         _______ _______ _______ _____ _____    ______ ____
ROOT
ATOM      1  C   UNL     1      -0.055   0.963  -0.960  0.00  0.00    +0.284 C 
ATOM      2  O   UNL     1       0.362  -0.179  -0.955  0.00  0.00    -0.267 OA
ATOM      3  N   UNL     1      -1.382   1.196  -0.933  0.00  0.00    -0.229 N 
ATOM      4  H   UNL     1      -1.759   2.230  -0.938  0.00  0.00    +0.173 HD
ENDROOT
BRANCH   1  10
ATOM      5  C   UNL     1       3.461   5.454  -1.123  0.00  0.00    +0.066 C 
ATOM      6  C   UNL     1       2.603   4.216  -1.080  0.00  0.00    +0.044 A 
ATOM      7  C   UNL     1       3.189   2.995  -1.078  0.00  0.00    +0.076 A 
ATOM      8  C   UNL     1       2.344   1.855  -1.038  0.00  0.00    +0.213 A 
ATOM      9  O   UNL     1       2.803   0.724  -1.035  0.00  0.00    -0.285 OA
ATOM     10  C   UNL     1       0.893   2.094  -1.002  0.00  0.00    +0.194 A 
ATOM     11  N   UNL     1       0.455   3.336  -1.014  0.00  0.00    -0.158 NA
ATOM     12  N   UNL     1       1.253   4.339  -1.045  0.00  0.00    -0.236 N 
BRANCH  12  13
ATOM     13  C   UNL     1       0.703   5.625  -1.049  0.00  0.00    +0.066 A 
ATOM     14  C   UNL     1      -0.315   5.949  -0.160  0.00  0.00    +0.028 A 
ATOM     15  C   UNL     1      -0.853   7.221  -0.163  0.00  0.00    +0.002 A 
ATOM     16  C   UNL     1      -0.387   8.169  -1.056  0.00  0.00    +0.000 A 
ATOM     17  C   UNL     1       0.623   7.848  -1.946  0.00  0.00    +0.002 A 
ATOM     18  C   UNL     1       1.168   6.579  -1.944  0.00  0.00    +0.028 A 
ENDBRANCH  12  13
ENDBRANCH   1  10
BRANCH   3  19
ATOM     19  N   UNL     1      -2.281   0.123  -0.899  0.00  0.00    -0.231 N 
ATOM     20  C   UNL     1      -3.609   0.356  -0.872  0.00  0.00    +0.270 C 
ATOM     21  O   UNL     1      -4.024   1.495  -0.877  0.00  0.00    -0.270 OA
ATOM     22  H   UNL     1      -1.904  -0.911  -0.894  0.00  0.00    +0.173 HD
BRANCH  20  23
ATOM     23  C   UNL     1      -4.576  -0.799  -0.835  0.00  0.00    +0.257 C 
ATOM     24  C   UNL     1      -4.407  -1.565   0.479  0.00  0.00    +0.062 C 
BRANCH  23  25
ATOM     25  O   UNL     1      -5.913  -0.303  -0.928  0.00  0.00    -0.480 OA
BRANCH  25  26
ATOM     26  C   UNL     1      -6.854  -1.155  -1.413  0.00  0.00    +0.123 A 
ATOM     27  C   UNL     1      -6.521  -2.473  -1.693  0.00  0.00    +0.046 A 
ATOM     28  C   UNL     1      -7.480  -3.338  -2.182  0.00  0.00    +0.005 A 
ATOM     29  C   UNL     1      -8.770  -2.891  -2.400  0.00  0.00    +0.015 A 
ATOM     30  C   UNL     1      -9.104  -1.577  -2.126  0.00  0.00    +0.021 A 
ATOM     31  C   UNL     1      -8.149  -0.708  -1.633  0.00  0.00    +0.061 A 
ATOM     32 BR   UNL     1     -10.869  -0.968  -2.427  0.00  0.00    -0.050 Br
ENDBRANCH  25  26
ENDBRANCH  23  25
ENDBRANCH  20  23
ENDBRANCH   3  19
TORSDOF 6
