REMARK  Name = ZINC62779625
REMARK  2 active torsions:
REMARK  status: ('A' for Active; 'I' for Inactive)
REMARK    1  A    between atoms: C_2  and  C_14
REMARK    2  A    between atoms: C_14  and  C_16
REMARK                            x       y       z     vdW  Elec       q    Type
REMARK                         _______ _______ _______ _____ _____    ______ ____
ROOT
ATOM      1  C   UNL     1      -0.017   1.382   0.010  0.00  0.00    +0.034 A 
ATOM      2  C   UNL     1       1.172   2.086   0.002  0.00  0.00    -0.009 A 
ATOM      3  C   UNL     1       2.382   1.413  -0.013  0.00  0.00    +0.025 A 
ATOM      4  C   UNL     1       2.410   0.031  -0.021  0.00  0.00    +0.043 A 
ATOM      5  C   UNL     1       1.222  -0.683  -0.013  0.00  0.00    +0.068 A 
ATOM      6  C   UNL     1       0.002  -0.004   0.002  0.00  0.00    +0.067 A 
ATOM      7  N   UNL     1      -0.998  -0.974   0.006  0.00  0.00    -0.306 N 
ATOM      8  H   UNL     1      -1.953  -0.804   0.016  0.00  0.00    +0.170 HD
ATOM      9  C   UNL     1      -0.413  -2.186  -0.006  0.00  0.00    +0.325 A 
ATOM     10  O   UNL     1      -1.005  -3.250  -0.005  0.00  0.00    -0.247 OA
ATOM     11  N   UNL     1       0.925  -2.044  -0.018  0.00  0.00    -0.306 N 
ATOM     12  H   UNL     1       1.573  -2.767  -0.028  0.00  0.00    +0.170 HD
ATOM     13 BR   UNL     1       4.002   2.388  -0.024  0.00  0.00    -0.050 Br
ENDROOT
BRANCH   2  14
ATOM     14  C   UNL     1       1.151   3.593   0.010  0.00  0.00    +0.144 C 
ATOM     15 CL   UNL     1      -0.404   4.176  -0.691  0.00  0.00    -0.112 Cl
BRANCH  14  16
ATOM     16  C   UNL     1       1.282   4.090   1.427  0.00  0.00    +0.012 A 
ATOM     17  C   UNL     1       2.314   4.807   1.927  0.00  0.00    +0.110 A 
ATOM     18  N   UNL     1       2.052   5.053   3.228  0.00  0.00    -0.284 N 
ATOM     19  H   UNL     1       2.618   5.549   3.840  0.00  0.00    +0.188 HD
ATOM     20  N   UNL     1       0.817   4.468   3.537  0.00  0.00    -0.182 NA
ATOM     21  C   UNL     1       0.354   3.896   2.455  0.00  0.00    +0.139 A 
ENDBRANCH  14  16
ENDBRANCH   2  14
TORSDOF 2
