REMARK  Name = ZINC21135692
REMARK  6 active torsions:
REMARK  status: ('A' for Active; 'I' for Inactive)
REMARK    1  A    between atoms: C_1  and  N_2
REMARK    2  A    between atoms: N_9  and  C_12
REMARK    3  A    between atoms: C_12  and  C_13
REMARK    4  A    between atoms: N_15  and  C_16
REMARK    5  A    between atoms: C_16  and  C_17
REMARK    6  A    between atoms: C_17  and  C_18
REMARK                            x       y       z     vdW  Elec       q    Type
REMARK                         _______ _______ _______ _____ _____    ______ ____
ROOT
ATOM      1  C   UNL     1       1.974  -3.600  -1.448  0.00  0.00    +0.233 C 
ATOM      2  O   UNL     1       1.476  -2.981  -2.364  0.00  0.00    -0.274 OA
ATOM      3  N   UNL     1       2.804  -4.631  -1.703  0.00  0.00    -0.313 N 
ATOM      4  H   UNL     1       3.202  -5.127  -0.970  0.00  0.00    +0.149 HD
ENDROOT
BRANCH   1   5
ATOM      5  C   UNL     1       1.666  -3.217  -0.023  0.00  0.00    +0.222 C 
BRANCH   5  14
ATOM      6  C   UNL     1      -0.018   1.461   0.010  0.00  0.00    +0.154 C 
ATOM      7  N   UNL     1       0.002  -0.004   0.002  0.00  0.00    -0.295 N 
ATOM      8  C   UNL     1      -1.116  -0.835   0.003  0.00  0.00    +0.070 A 
ATOM      9  C   UNL     1      -2.481  -0.592   0.010  0.00  0.00    +0.028 A 
ATOM     10  C   UNL     1      -3.368  -1.651   0.009  0.00  0.00    +0.002 A 
ATOM     11  C   UNL     1      -2.899  -2.954  -0.000  0.00  0.00    +0.002 A 
ATOM     12  C   UNL     1      -1.541  -3.205  -0.007  0.00  0.00    +0.028 A 
ATOM     13  C   UNL     1      -0.643  -2.148  -0.007  0.00  0.00    +0.070 A 
ATOM     14  N   UNL     1       0.748  -2.075  -0.013  0.00  0.00    -0.283 N 
ATOM     15  C   UNL     1       1.104  -0.777  -0.013  0.00  0.00    +0.330 A 
ATOM     16  O   UNL     1       2.249  -0.365  -0.022  0.00  0.00    -0.246 OA
ENDBRANCH   5  14
ENDBRANCH   1   5
BRANCH   3  17
ATOM     17  C   UNL     1       3.103  -5.005  -3.088  0.00  0.00    +0.110 C 
BRANCH  17  18
ATOM     18  C   UNL     1       4.062  -6.197  -3.099  0.00  0.00    +0.073 C 
BRANCH  18  19
ATOM     19  C   UNL     1       4.371  -6.580  -4.523  0.00  0.00    +0.036 A 
ATOM     20  C   UNL     1       3.620  -7.391  -5.301  0.00  0.00    +0.113 A 
ATOM     21  N   UNL     1       4.246  -7.479  -6.515  0.00  0.00    -0.308 N 
ATOM     22  C   UNL     1       3.942  -8.150  -7.664  0.00  0.00    +0.092 A 
ATOM     23  C   UNL     1       4.748  -8.064  -8.743  0.00  0.00    +0.018 A 
ATOM     24  C   UNL     1       5.914  -7.282  -8.697  0.00  0.00    +0.005 A 
ATOM     25  C   UNL     1       6.229  -6.609  -7.558  0.00  0.00    +0.045 A 
ATOM     26  C   UNL     1       5.377  -6.708  -6.440  0.00  0.00    +0.115 A 
ATOM     27  N   UNL     1       5.428  -6.171  -5.229  0.00  0.00    -0.343 N 
ATOM     28  H   UNL     1       6.123  -5.577  -4.906  0.00  0.00    +0.167 HD
ENDBRANCH  18  19
ENDBRANCH  17  18
ENDBRANCH   3  17
TORSDOF 5
