REMARK  Name = ZINC38591916
REMARK  8 active torsions:
REMARK  status: ('A' for Active; 'I' for Inactive)
REMARK    1  A    between atoms: C_1  and  O_2
REMARK    2  A    between atoms: O_2  and  C_3
REMARK    3  A    between atoms: C_3  and  C_5
REMARK    4  A    between atoms: C_7  and  N_15
REMARK    5  A    between atoms: C_16  and  C_18
REMARK    6  A    between atoms: C_18  and  C_19
REMARK    7  A    between atoms: C_19  and  N_20
REMARK    8  A    between atoms: N_23  and  C_26
REMARK                            x       y       z     vdW  Elec       q    Type
REMARK                         _______ _______ _______ _____ _____    ______ ____
ROOT
ATOM      1  N   UNL     1      -1.699  -2.555   0.943  0.00  0.00    -0.286 N 
ATOM      2  C   UNL     1      -2.833  -3.003   1.517  0.00  0.00    +0.218 C 
ATOM      3  O   UNL     1      -2.806  -3.446   2.645  0.00  0.00    -0.275 OA
ATOM      4  H   UNL     1      -1.732  -2.123   0.075  0.00  0.00    +0.155 HD
ENDROOT
BRANCH   1   6
ATOM      5  C   UNL     1      -0.238  -3.505   2.839  0.00  0.00    +0.234 C 
ATOM      6  C   UNL     1      -0.505  -2.708   1.581  0.00  0.00    +0.053 C 
ATOM      7  C   UNL     1       0.715  -2.168   1.212  0.00  0.00    +0.018 A 
ATOM      8  C   UNL     1       1.106  -1.339   0.134  0.00  0.00    +0.011 A 
ATOM      9  C   UNL     1       2.401  -0.953   0.018  0.00  0.00    +0.001 A 
ATOM     10  C   UNL     1       3.370  -1.354   0.941  0.00  0.00    +0.002 A 
ATOM     11  C   UNL     1       3.069  -2.148   1.997  0.00  0.00    +0.026 A 
ATOM     12  C   UNL     1       1.735  -2.593   2.187  0.00  0.00    +0.045 A 
ATOM     13  N   UNL     1       1.194  -3.356   3.118  0.00  0.00    -0.367 N 
ATOM     14  H   UNL     1       1.666  -3.754   3.865  0.00  0.00    +0.161 HD
BRANCH   5  15
ATOM     15  C   UNL     1      -0.575  -4.957   2.615  0.00  0.00    +0.335 C 
ATOM     16  O   UNL     1       0.283  -5.727   2.254  0.00  0.00    -0.248 OA
BRANCH  15  18
ATOM     17  C   UNL     1      -2.075  -6.782   2.586  0.00  0.00    +0.280 C 
ATOM     18  O   UNL     1      -1.827  -5.394   2.817  0.00  0.00    -0.466 OA
ENDBRANCH  15  18
ENDBRANCH   5  15
ENDBRANCH   1   6
BRANCH   2  19
ATOM     19  C   UNL     1      -4.133  -2.952   0.757  0.00  0.00    +0.111 C 
BRANCH  19  20
ATOM     20  C   UNL     1      -5.256  -3.517   1.630  0.00  0.00    +0.093 C 
BRANCH  20  21
ATOM     21  N   UNL     1      -6.524  -3.467   0.890  0.00  0.00    -0.305 NA
ATOM     22  C   UNL     1      -6.495  -4.377  -0.265  0.00  0.00    +0.066 C 
ATOM     23  C   UNL     1      -7.807  -4.252  -1.041  0.00  0.00    -0.063 C 
ATOM     24  N   UNL     1      -8.932  -4.588  -0.159  0.00  0.00    +0.383 N 
ATOM     25  C   UNL     1      -8.963  -3.656   0.976  0.00  0.00    -0.063 C 
ATOM     26  C   UNL     1      -7.660  -3.776   1.769  0.00  0.00    +0.066 C 
ATOM     27  H   UNL     1      -8.821  -5.531   0.183  0.00  0.00    -0.081 HD
BRANCH  24  28
ATOM     28  C   UNL     1     -10.191  -4.486  -0.910  0.00  0.00    -0.068 C 
ATOM     29  C   UNL     1     -11.363  -4.837   0.009  0.00  0.00    -0.015 C 
ATOM     30  C   UNL     1     -12.674  -4.730  -0.774  0.00  0.00    -0.002 C 
ATOM     31  C   UNL     1     -12.643  -5.702  -1.955  0.00  0.00    -0.000 C 
ATOM     32  C   UNL     1     -11.471  -5.351  -2.874  0.00  0.00    -0.002 C 
ATOM     33  C   UNL     1     -10.160  -5.458  -2.091  0.00  0.00    -0.015 C 
ENDBRANCH  24  28
ENDBRANCH  20  21
ENDBRANCH  19  20
ENDBRANCH   2  19
TORSDOF 7
