REMARK  Name = ZINC50996428
REMARK  5 active torsions:
REMARK  status: ('A' for Active; 'I' for Inactive)
REMARK    1  A    between atoms: C_1  and  C_2
REMARK    2  A    between atoms: C_2  and  C_3
REMARK    3  A    between atoms: C_3  and  C_4
REMARK    4  A    between atoms: C_6  and  C_11
REMARK    5  A    between atoms: N_8  and  C_9
REMARK                            x       y       z     vdW  Elec       q    Type
REMARK                         _______ _______ _______ _____ _____    ______ ____
ROOT
ATOM      1  C   UNL     1       0.739  -2.004  -1.265  0.00  0.00    +0.076 C 
ATOM      2  N   UNL     1       1.684  -2.701  -0.740  0.00  0.00    -0.363 N 
ATOM      3  C   UNL     1       1.368  -4.124  -0.937  0.00  0.00    +0.175 C 
ATOM      4  C   UNL     1       0.048  -4.104  -1.683  0.00  0.00    +0.100 C 
ATOM      5  N   UNL     1      -0.248  -2.765  -1.826  0.00  0.00    -0.282 N 
ATOM      6  C   UNL     1      -1.444  -2.236  -2.486  0.00  0.00    +0.138 C 
ATOM      7  N   UNL     1      -0.647  -5.115  -2.090  0.00  0.00    -0.388 N 
ATOM      8  H   UNL     1      -0.332  -6.018  -1.924  0.00  0.00    +0.157 HD
ATOM      9  H   UNL     1      -1.483  -4.972  -2.560  0.00  0.00    +0.157 HD
ATOM     10  H   UNL     1       2.469  -2.349  -0.292  0.00  0.00    +0.162 HD
ENDROOT
BRANCH   3  11
ATOM     11  C   UNL     1       2.434  -4.793  -1.767  0.00  0.00    +0.017 A 
ATOM     12  C   UNL     1       3.295  -4.028  -2.531  0.00  0.00    +0.010 A 
ATOM     13  C   UNL     1       4.274  -4.640  -3.292  0.00  0.00    +0.016 A 
ATOM     14  C   UNL     1       4.392  -6.019  -3.289  0.00  0.00    +0.021 A 
ATOM     15  C   UNL     1       3.531  -6.785  -2.525  0.00  0.00    +0.054 A 
ATOM     16  C   UNL     1       2.555  -6.172  -1.758  0.00  0.00    +0.130 A 
ATOM     17  F   UNL     1       1.717  -6.919  -1.007  0.00  0.00    -0.205 F 
ATOM     18 BR   UNL     1       5.731  -6.855  -4.331  0.00  0.00    -0.050 Br
ENDBRANCH   3  11
BRANCH   1  19
ATOM     19  C   UNL     1       0.718  -0.497  -1.257  0.00  0.00    +0.069 C 
BRANCH  19  21
ATOM     20  C   UNL     1      -0.019   1.526   0.010  0.00  0.00    +0.004 C 
ATOM     21  C   UNL     1       0.002  -0.004   0.002  0.00  0.00    +0.004 C 
ENDBRANCH  19  21
ENDBRANCH   1  19
TORSDOF 3
