REMARK  Name = ZINC59595608
REMARK  10 active torsions:
REMARK  status: ('A' for Active; 'I' for Inactive)
REMARK    1  A    between atoms: C_1  and  C_2
REMARK    2  A    between atoms: C_2  and  O_3
REMARK    3  A    between atoms: O_3  and  C_4
REMARK    4  A    between atoms: C_4  and  C_6
REMARK    5  A    between atoms: C_9  and  N_12
REMARK    6  A    between atoms: C_13  and  C_35
REMARK    7  A    between atoms: C_15  and  C_18
REMARK    8  A    between atoms: C_16  and  C_17
REMARK    9  A    between atoms: N_22  and  C_34
REMARK   10  A    between atoms: N_25  and  C_28
REMARK                            x       y       z     vdW  Elec       q    Type
REMARK                         _______ _______ _______ _____ _____    ______ ____
ROOT
ATOM      1  N   UNL     1       3.622  -3.551  -5.879  0.00  0.00    -0.317 N 
ATOM      2  C   UNL     1       2.926  -4.026  -6.957  0.00  0.00    +0.022 A 
ATOM      3  C   UNL     1       3.744  -4.771  -7.718  0.00  0.00    +0.031 A 
ATOM      4  C   UNL     1       5.057  -4.756  -7.055  0.00  0.00    -0.003 A 
ATOM      5  C   UNL     1       4.901  -3.972  -5.922  0.00  0.00    +0.028 A 
ATOM      6  C   UNL     1       5.973  -3.651  -4.913  0.00  0.00    +0.064 C 
ATOM      7  C   UNL     1       1.472  -3.757  -7.245  0.00  0.00    +0.064 C 
ENDROOT
BRANCH   4   8
ATOM      8  C   UNL     1       6.239  -5.404  -7.487  0.00  0.00    +0.028 C 
ATOM      9  C   UNL     1       6.585  -5.391  -8.828  0.00  0.00    +0.100 C 
ATOM     10  C   UNL     1       5.878  -4.533  -9.798  0.00  0.00    +0.257 C 
ATOM     11  O   UNL     1       4.966  -3.809  -9.443  0.00  0.00    -0.269 OA
ATOM     12  N   UNL     1       6.270  -4.572 -11.088  0.00  0.00    -0.252 N 
ATOM     13  C   UNL     1       7.272  -5.365 -11.492  0.00  0.00    +0.153 C 
ATOM     14  S   UNL     1       7.701  -5.348 -13.149  0.00  0.00    -0.017 S 
ATOM     15  N   UNL     1       7.958  -6.169 -10.667  0.00  0.00    -0.217 N 
ATOM     16  C   UNL     1       7.680  -6.230  -9.349  0.00  0.00    +0.262 C 
ATOM     17  O   UNL     1       8.313  -6.960  -8.610  0.00  0.00    -0.269 OA
ATOM     18  C   UNL     1       5.583  -3.730 -12.070  0.00  0.00    +0.140 C 
BRANCH  15  19
ATOM     19  C   UNL     1       8.991  -6.960 -11.186  0.00  0.00    +0.043 A 
ATOM     20  C   UNL     1      10.214  -6.386 -11.507  0.00  0.00    +0.024 A 
ATOM     21  C   UNL     1      11.230  -7.169 -12.018  0.00  0.00    +0.002 A 
ATOM     22  C   UNL     1      11.031  -8.524 -12.210  0.00  0.00    +0.000 A 
ATOM     23  C   UNL     1       9.814  -9.099 -11.892  0.00  0.00    +0.002 A 
ATOM     24  C   UNL     1       8.796  -8.322 -11.376  0.00  0.00    +0.024 A 
ENDBRANCH  15  19
ENDBRANCH   4   8
BRANCH   1  28
ATOM     25  C   UNL     1       2.015  -1.126  -2.893  0.00  0.00    +0.059 A 
ATOM     26  C   UNL     1       2.105  -0.654  -4.205  0.00  0.00    +0.017 A 
ATOM     27  C   UNL     1       2.636  -1.458  -5.189  0.00  0.00    +0.027 A 
ATOM     28  C   UNL     1       3.083  -2.738  -4.878  0.00  0.00    +0.047 A 
ATOM     29  C   UNL     1       2.994  -3.211  -3.573  0.00  0.00    +0.027 A 
ATOM     30  C   UNL     1       2.470  -2.410  -2.583  0.00  0.00    +0.017 A 
BRANCH  25  31
ATOM     31  C   UNL     1       1.446  -0.268  -1.836  0.00  0.00    +0.339 C 
ATOM     32  O   UNL     1       1.373  -0.677  -0.695  0.00  0.00    -0.245 OA
BRANCH  31  33
ATOM     33  O   UNL     1       1.008   0.971  -2.137  0.00  0.00    -0.461 OA
BRANCH  33  35
ATOM     34  C   UNL     1       0.028   3.112  -1.595  0.00  0.00    +0.048 C 
ATOM     35  C   UNL     1       0.469   1.746  -1.065  0.00  0.00    +0.229 C 
ENDBRANCH  33  35
ENDBRANCH  31  33
ENDBRANCH  25  31
ENDBRANCH   1  28
TORSDOF 6
