REMARK  Name = ZINC11024412
REMARK  8 active torsions:
REMARK  status: ('A' for Active; 'I' for Inactive)
REMARK    1  A    between atoms: C_4  and  C_7
REMARK    2  A    between atoms: C_7  and  C_9
REMARK    3  A    between atoms: C_14  and  C_15
REMARK    4  A    between atoms: C_15  and  O_17
REMARK    5  A    between atoms: O_17  and  C_18
REMARK    6  A    between atoms: C_18  and  C_19
REMARK    7  A    between atoms: N_21  and  N_22
REMARK    8  A    between atoms: C_23  and  C_25
REMARK                            x       y       z     vdW  Elec       q    Type
REMARK                         _______ _______ _______ _____ _____    ______ ____
ROOT
ATOM      1  C   UNL     1       8.664  -1.614  -0.000  0.00  0.00    +0.329 C 
ENDROOT
BRANCH   1   2
ATOM      2  C   UNL     1       9.930  -2.424  -0.105  0.00  0.00    +0.267 C 
ATOM      3  O   UNL     1       9.870  -3.629  -0.226  0.00  0.00    -0.271 OA
ATOM      4  N   UNL     1      11.129  -1.810  -0.063  0.00  0.00    -0.231 N 
ATOM      5  H   UNL     1      11.176  -0.846   0.034  0.00  0.00    +0.173 HD
BRANCH   4   6
ATOM      6  N   UNL     1      12.306  -2.563  -0.161  0.00  0.00    -0.231 N 
ATOM      7  C   UNL     1      13.505  -1.948  -0.119  0.00  0.00    +0.273 C 
ATOM      8  O   UNL     1      13.564  -0.743   0.002  0.00  0.00    -0.270 OA
ATOM      9  H   UNL     1      12.258  -3.527  -0.258  0.00  0.00    +0.173 HD
BRANCH   7  10
ATOM     10  C   UNL     1      14.771  -2.759  -0.224  0.00  0.00    +0.297 C 
ATOM     11  C   UNL     1      14.905  -3.670   1.004  0.00  0.00    +0.283 C 
ATOM     12  O   UNL     1      16.122  -4.414   0.879  0.00  0.00    -0.484 OA
ATOM     13  C   UNL     1      17.232  -3.713   0.519  0.00  0.00    +0.162 A 
ATOM     14  C   UNL     1      18.485  -4.270   0.728  0.00  0.00    +0.049 A 
ATOM     15  C   UNL     1      19.622  -3.572   0.364  0.00  0.00    +0.004 A 
ATOM     16  C   UNL     1      19.513  -2.319  -0.208  0.00  0.00    +0.004 A 
ATOM     17  C   UNL     1      18.267  -1.758  -0.417  0.00  0.00    +0.049 A 
ATOM     18  C   UNL     1      17.123  -2.452  -0.053  0.00  0.00    +0.163 A 
ATOM     19  O   UNL     1      15.903  -1.883  -0.259  0.00  0.00    -0.472 OA
ENDBRANCH   7  10
ENDBRANCH   4   6
ENDBRANCH   1   2
BRANCH   1  20
ATOM     20  O   UNL     1       7.533  -2.485  -0.069  0.00  0.00    -0.452 OA
BRANCH  20  21
ATOM     21  C   UNL     1       6.316  -1.915   0.010  0.00  0.00    +0.340 C 
ATOM     22  O   UNL     1       6.216  -0.711   0.135  0.00  0.00    -0.245 OA
BRANCH  21  28
ATOM     23  C   UNL     1       3.831  -2.180   0.151  0.00  0.00    +0.036 A 
ATOM     24  C   UNL     1       2.694  -2.982   0.082  0.00  0.00    +0.012 A 
ATOM     25  C   UNL     1       2.817  -4.333  -0.181  0.00  0.00    +0.001 A 
ATOM     26  C   UNL     1       4.065  -4.898  -0.377  0.00  0.00    +0.001 A 
ATOM     27  C   UNL     1       5.204  -4.119  -0.311  0.00  0.00    +0.016 A 
ATOM     28  C   UNL     1       5.101  -2.754  -0.054  0.00  0.00    +0.070 A 
BRANCH  23  29
ATOM     29  C   UNL     1       3.705  -0.734   0.432  0.00  0.00    +0.194 C 
ATOM     30  O   UNL     1       3.343   0.026  -0.444  0.00  0.00    -0.287 OA
BRANCH  29  34
ATOM     31  C   UNL     1       4.609   0.763   4.302  0.00  0.00    +0.000 A 
ATOM     32  C   UNL     1       4.129   1.620   3.328  0.00  0.00    +0.001 A 
ATOM     33  C   UNL     1       3.833   1.141   2.068  0.00  0.00    +0.012 A 
ATOM     34  C   UNL     1       4.020  -0.213   1.778  0.00  0.00    +0.022 A 
ATOM     35  C   UNL     1       4.505  -1.072   2.768  0.00  0.00    +0.012 A 
ATOM     36  C   UNL     1       4.797  -0.579   4.022  0.00  0.00    +0.001 A 
ENDBRANCH  29  34
ENDBRANCH  23  29
ENDBRANCH  21  28
ENDBRANCH  20  21
ENDBRANCH   1  20
TORSDOF 8
