REMARK  Name = ZINC29994518
REMARK  6 active torsions:
REMARK  status: ('A' for Active; 'I' for Inactive)
REMARK    1  A    between atoms: C_1  and  C_2
REMARK    2  A    between atoms: C_2  and  C_4
REMARK    3  A    between atoms: C_2  and  O_12
REMARK    4  A    between atoms: O_12  and  C_13
REMARK    5  A    between atoms: C_13  and  C_15
REMARK    6  A    between atoms: C_18  and  O_21
REMARK                            x       y       z     vdW  Elec       q    Type
REMARK                         _______ _______ _______ _____ _____    ______ ____
ROOT
ATOM      1  C   UNL     1      -0.011   1.530   0.012  0.00  0.00    +0.062 C 
ATOM      2  C   UNL     1       0.004   0.000   0.002  0.00  0.00    +0.259 C 
ENDROOT
BRANCH   2   3
ATOM      3  C   UNL     1       0.835  -0.501   1.155  0.00  0.00    +0.264 C 
ATOM      4  O   UNL     1       1.906  -1.030   0.946  0.00  0.00    -0.271 OA
ATOM      5  N   UNL     1       0.387  -0.363   2.419  0.00  0.00    -0.221 N 
ATOM      6  C   UNL     1      -0.936   0.152   2.803  0.00  0.00    +0.137 C 
ATOM      7  C   UNL     1      -0.921   0.098   4.343  0.00  0.00    +0.125 C 
ATOM      8  N   UNL     1       0.409  -0.442   4.663  0.00  0.00    -0.297 N 
ATOM      9  C   UNL     1       1.075  -0.677   3.525  0.00  0.00    +0.309 C 
ATOM     10  O   UNL     1       2.201  -1.131   3.498  0.00  0.00    -0.252 OA
ATOM     11  H   UNL     1       0.749  -0.605   5.557  0.00  0.00    +0.150 HD
ENDBRANCH   2   3
BRANCH   2  12
ATOM     12  O   UNL     1       0.567  -0.463  -1.227  0.00  0.00    -0.449 OA
BRANCH  12  13
ATOM     13  C   UNL     1      -0.285  -0.668  -2.251  0.00  0.00    +0.340 C 
ATOM     14  O   UNL     1      -1.473  -0.460  -2.103  0.00  0.00    -0.245 OA
BRANCH  13  15
ATOM     15  C   UNL     1       0.225  -1.145  -3.550  0.00  0.00    +0.059 A 
ATOM     16  C   UNL     1       1.591  -1.391  -3.719  0.00  0.00    +0.018 A 
ATOM     17  C   UNL     1       2.062  -1.837  -4.933  0.00  0.00    +0.046 A 
ATOM     18  C   UNL     1       1.182  -2.043  -5.990  0.00  0.00    +0.117 A 
ATOM     19  C   UNL     1      -0.176  -1.800  -5.825  0.00  0.00    +0.046 A 
ATOM     20  C   UNL     1      -0.657  -1.359  -4.613  0.00  0.00    +0.018 A 
BRANCH  18  21
ATOM     21  O   UNL     1       1.651  -2.482  -7.185  0.00  0.00    -0.507 OA
ATOM     22  H   UNL     1       1.670  -3.445  -7.271  0.00  0.00    +0.292 HD
ENDBRANCH  18  21
ENDBRANCH  13  15
ENDBRANCH  12  13
ENDBRANCH   2  12
TORSDOF 5
