REMARK  Name = ZINC23795151
REMARK  12 active torsions:
REMARK  status: ('A' for Active; 'I' for Inactive)
REMARK    1  A    between atoms: C_1  and  O_2
REMARK    2  A    between atoms: O_2  and  C_3
REMARK    3  A    between atoms: C_8  and  C_9
REMARK    4  A    between atoms: C_9  and  C_11
REMARK    5  A    between atoms: C_9  and  N_28
REMARK    6  A    between atoms: C_11  and  N_12
REMARK    7  A    between atoms: C_13  and  C_15
REMARK    8  A    between atoms: C_15  and  C_16
REMARK    9  A    between atoms: C_16  and  C_17
REMARK   10  A    between atoms: C_17  and  N_18
REMARK   11  A    between atoms: N_18  and  C_19
REMARK   12  A    between atoms: C_22  and  N_25
REMARK                            x       y       z     vdW  Elec       q    Type
REMARK                         _______ _______ _______ _____ _____    ______ ____
ROOT
ATOM      1  N   UNL     1       1.560  -4.148   1.368  0.00  0.00    -0.317 N 
ATOM      2  C   UNL     1       2.074  -4.635   2.514  0.00  0.00    +0.213 C 
ATOM      3  O   UNL     1       1.676  -4.221   3.582  0.00  0.00    -0.276 OA
ATOM      4  H   UNL     1       1.878  -4.479   0.514  0.00  0.00    +0.149 HD
ENDROOT
BRANCH   1   5
ATOM      5  C   UNL     1       0.519  -3.118   1.412  0.00  0.00    +0.093 C 
BRANCH   5   6
ATOM      6  C   UNL     1       0.026  -2.830  -0.007  0.00  0.00    -0.017 C 
BRANCH   6  12
ATOM      7  C   UNL     1      -1.993  -4.290  -0.288  0.00  0.00    +0.122 A 
ATOM      8  C   UNL     1      -2.617  -5.417  -0.804  0.00  0.00    +0.046 A 
ATOM      9  C   UNL     1      -1.902  -6.304  -1.585  0.00  0.00    +0.004 A 
ATOM     10  C   UNL     1      -0.565  -6.070  -1.853  0.00  0.00    +0.000 A 
ATOM     11  C   UNL     1       0.059  -4.949  -1.339  0.00  0.00    +0.005 A 
ATOM     12  C   UNL     1      -0.653  -4.055  -0.562  0.00  0.00    -0.018 A 
BRANCH   7  14
ATOM     13  C   UNL     1      -4.069  -3.722   0.722  0.00  0.00    +0.277 C 
ATOM     14  O   UNL     1      -2.694  -3.416   0.481  0.00  0.00    -0.495 OA
ENDBRANCH   7  14
ENDBRANCH   6  12
BRANCH   6  15
ATOM     15  N   UNL     1       1.169  -2.475  -0.860  0.00  0.00    +0.385 N 
ATOM     16  C   UNL     1       0.697  -2.088  -2.214  0.00  0.00    -0.078 C 
ATOM     17  C   UNL     1       1.868  -1.238  -2.768  0.00  0.00    -0.020 C 
ATOM     18  C   UNL     1       2.350  -0.460  -1.522  0.00  0.00    -0.020 C 
ATOM     19  C   UNL     1       1.859  -1.285  -0.318  0.00  0.00    -0.078 C 
ATOM     20  H   UNL     1       1.810  -3.251  -0.922  0.00  0.00    -0.081 HD
ENDBRANCH   6  15
ENDBRANCH   5   6
ENDBRANCH   1   5
BRANCH   2  21
ATOM     21  C   UNL     1       3.145  -5.695   2.469  0.00  0.00    +0.097 C 
BRANCH  21  22
ATOM     22  C   UNL     1       3.552  -6.070   3.895  0.00  0.00    +0.028 C 
BRANCH  22  23
ATOM     23  C   UNL     1       4.639  -7.146   3.849  0.00  0.00    +0.102 C 
BRANCH  23  24
ATOM     24  N   UNL     1       5.028  -7.505   5.215  0.00  0.00    -0.344 N 
ATOM     25  H   UNL     1       4.603  -7.071   5.971  0.00  0.00    +0.146 HD
BRANCH  24  26
ATOM     26  C   UNL     1       6.012  -8.474   5.429  0.00  0.00    +0.027 A 
ATOM     27  C   UNL     1       6.626  -9.093   4.347  0.00  0.00    +0.025 A 
ATOM     28  C   UNL     1       7.598 -10.050   4.562  0.00  0.00    +0.034 A 
ATOM     29  C   UNL     1       7.961 -10.392   5.852  0.00  0.00    +0.126 A 
ATOM     30  C   UNL     1       7.352  -9.777   6.931  0.00  0.00    +0.034 A 
ATOM     31  C   UNL     1       6.383  -8.816   6.723  0.00  0.00    +0.025 A 
BRANCH  29  32
ATOM     32  N   UNL     1       9.003 -11.418   6.079  0.00  0.00    +0.056 N 
ATOM     33  O   UNL     1       9.536 -11.957   5.136  0.00  0.00    -0.126 OA
ATOM     34  O   UNL     1       9.321 -11.718   7.206  0.00  0.00    -0.126 OA
ENDBRANCH  29  32
ENDBRANCH  24  26
ENDBRANCH  23  24
ENDBRANCH  22  23
ENDBRANCH  21  22
ENDBRANCH   2  21
TORSDOF 11
