REMARK  Name = ZINC64085805
REMARK  5 active torsions:
REMARK  status: ('A' for Active; 'I' for Inactive)
REMARK    1  A    between atoms: C_2  and  C_3
REMARK    2  A    between atoms: C_3  and  N_4
REMARK    3  A    between atoms: N_4  and  C_5
REMARK    4  A    between atoms: N_4  and  S_15
REMARK    5  A    between atoms: S_15  and  C_18
REMARK                            x       y       z     vdW  Elec       q    Type
REMARK                         _______ _______ _______ _____ _____    ______ ____
ROOT
ATOM      1  S   UNL     1       1.924  -1.396   2.538  0.00  0.00    +0.062 S 
ATOM      2  O   UNL     1       2.296  -2.634   3.127  0.00  0.00    -0.153 OA
ATOM      3  O   UNL     1       2.849  -0.334   2.349  0.00  0.00    -0.153 OA
ENDROOT
BRANCH   1   4
ATOM      4  C   UNL     1       0.608  -0.749   3.515  0.00  0.00    +0.107 A 
ATOM      5  C   UNL     1       0.367   0.639   3.505  0.00  0.00    +0.030 A 
ATOM      6  C   UNL     1      -0.627   1.198   4.232  0.00  0.00    +0.027 A 
ATOM      7  C   UNL     1      -1.458   0.372   5.033  0.00  0.00    +0.055 A 
ATOM      8  N   UNL     1      -2.434   0.888   5.751  0.00  0.00    -0.276 N 
ATOM      9  C   UNL     1      -3.211   0.084   6.504  0.00  0.00    +0.304 C 
ATOM     10  O   UNL     1      -4.113   0.552   7.169  0.00  0.00    -0.265 OA
ATOM     11  C   UNL     1      -2.956  -1.390   6.515  0.00  0.00    +0.304 C 
ATOM     12  O   UNL     1      -3.648  -2.126   7.188  0.00  0.00    -0.265 OA
ATOM     13  N   UNL     1      -1.950  -1.896   5.771  0.00  0.00    -0.276 N 
ATOM     14  C   UNL     1      -1.204  -1.092   5.043  0.00  0.00    +0.057 A 
ATOM     15  C   UNL     1      -0.145  -1.600   4.248  0.00  0.00    +0.053 A 
ATOM     16  H   UNL     1      -1.778  -2.850   5.772  0.00  0.00    +0.155 HD
ATOM     17  H   UNL     1      -2.592   1.845   5.739  0.00  0.00    +0.155 HD
ENDBRANCH   1   4
BRANCH   1  18
ATOM     18  N   UNL     1       1.299  -1.750   1.046  0.00  0.00    -0.165 NA
BRANCH  18  19
ATOM     19  C   UNL     1       0.740  -3.079   0.783  0.00  0.00    +0.111 C 
ATOM     20  C   UNL     1      -0.691  -2.956   0.218  0.00  0.00    +0.030 C 
ATOM     21  C   UNL     1      -0.759  -4.139  -0.771  0.00  0.00    +0.037 C 
ATOM     22  C   UNL     1       0.673  -4.386  -1.193  0.00  0.00    -0.043 A 
ATOM     23  C   UNL     1       1.537  -3.778  -0.298  0.00  0.00    -0.025 A 
ATOM     24  C   UNL     1       2.905  -3.874  -0.484  0.00  0.00    +0.005 A 
ATOM     25  C   UNL     1       3.413  -4.576  -1.560  0.00  0.00    +0.000 A 
ATOM     26  C   UNL     1       2.553  -5.186  -2.454  0.00  0.00    +0.000 A 
ATOM     27  C   UNL     1       1.183  -5.089  -2.272  0.00  0.00    +0.004 A 
ENDBRANCH  18  19
BRANCH  18  28
ATOM     28  C   UNL     1       1.303  -0.735  -0.010  0.00  0.00    +0.137 C 
BRANCH  28  30
ATOM     29  C   UNL     1       2.425  -1.036  -2.157  0.00  0.00    +0.005 C 
ATOM     30  C   UNL     1       2.537  -0.899  -0.859  0.00  0.00    -0.018 C 
ENDBRANCH  28  30
ENDBRANCH  18  28
ENDBRANCH   1  18
TORSDOF 5
