REMARK  Name = ZINC35002980
REMARK  12 active torsions:
REMARK  status: ('A' for Active; 'I' for Inactive)
REMARK    1  A    between atoms: C_1  and  C_2
REMARK    2  A    between atoms: C_2  and  O_3
REMARK    3  A    between atoms: O_3  and  C_4
REMARK    4  A    between atoms: C_6  and  C_11
REMARK    5  A    between atoms: C_9  and  O_10
REMARK    6  A    between atoms: C_13  and  C_14
REMARK    7  A    between atoms: C_14  and  C_15
REMARK    8  A    between atoms: C_22  and  C_25
REMARK    9  A    between atoms: N_31  and  C_32
REMARK   10  A    between atoms: C_32  and  C_33
REMARK   11  A    between atoms: C_33  and  O_34
REMARK   12  A    between atoms: O_34  and  C_35
REMARK                            x       y       z     vdW  Elec       q    Type
REMARK                         _______ _______ _______ _____ _____    ______ ____
ROOT
ATOM      1  C   UNL     1       0.659  -5.217  -0.301  0.00  0.00    +0.145 C 
ATOM      2  C   UNL     1       1.144  -5.399  -1.720  0.00  0.00    +0.076 C 
ATOM      3  C   UNL     1       1.248  -6.732  -1.930  0.00  0.00    +0.249 C 
ATOM      4  O   UNL     1       1.654  -7.315  -3.082  0.00  0.00    -0.282 OA
ATOM      5  C   UNL     1       0.849  -7.449  -0.701  0.00  0.00    +0.288 C 
ATOM      6  O   UNL     1       0.836  -8.657  -0.572  0.00  0.00    -0.266 OA
ATOM      7  N   UNL     1       0.504  -6.567   0.254  0.00  0.00    -0.281 N 
ENDROOT
BRANCH   1  10
ATOM      8  C   UNL     1      -1.968  -2.551   0.212  0.00  0.00    +0.162 A 
ATOM      9  C   UNL     1      -0.751  -3.213   0.206  0.00  0.00    +0.055 A 
ATOM     10  C   UNL     1      -0.666  -4.499  -0.295  0.00  0.00    -0.019 A 
ATOM     11  C   UNL     1      -1.794  -5.127  -0.790  0.00  0.00    +0.009 A 
ATOM     12  C   UNL     1      -3.011  -4.473  -0.787  0.00  0.00    +0.049 A 
ATOM     13  C   UNL     1      -3.105  -3.186  -0.281  0.00  0.00    +0.158 A 
BRANCH  13  14
ATOM     14  O   UNL     1      -4.303  -2.543  -0.271  0.00  0.00    -0.503 OA
ATOM     15  H   UNL     1      -4.481  -2.032  -1.073  0.00  0.00    +0.292 HD
ENDBRANCH  13  14
BRANCH   8  16
ATOM     16  O   UNL     1      -2.054  -1.287   0.705  0.00  0.00    -0.489 OA
BRANCH  16  18
ATOM     17  C   UNL     1      -1.111   0.788   1.508  0.00  0.00    +0.048 C 
ATOM     18  C   UNL     1      -0.831  -0.657   1.093  0.00  0.00    +0.226 C 
ENDBRANCH  16  18
ENDBRANCH   8  16
ENDBRANCH   1  10
BRANCH   2  19
ATOM     19  C   UNL     1       1.445  -4.336  -2.684  0.00  0.00    +0.195 C 
ATOM     20  O   UNL     1       0.771  -4.218  -3.691  0.00  0.00    -0.287 OA
BRANCH  19  21
ATOM     21  C   UNL     1       2.566  -3.408  -2.435  0.00  0.00    +0.023 A 
ATOM     22  C   UNL     1       3.310  -3.503  -1.254  0.00  0.00    +0.015 A 
ATOM     23  C   UNL     1       4.355  -2.641  -1.025  0.00  0.00    +0.046 A 
ATOM     24  C   UNL     1       4.684  -1.662  -1.965  0.00  0.00    +0.124 A 
ATOM     25  C   UNL     1       3.935  -1.567  -3.135  0.00  0.00    -0.002 A 
ATOM     26  C   UNL     1       2.896  -2.430  -3.379  0.00  0.00    +0.019 A 
ATOM     27  C   UNL     1       4.506  -0.412  -3.935  0.00  0.00    +0.083 C 
ATOM     28  C   UNL     1       5.365   0.317  -2.874  0.00  0.00    +0.175 C 
ATOM     29  O   UNL     1       5.674  -0.730  -1.940  0.00  0.00    -0.488 OA
ATOM     30  C   UNL     1       6.640   0.881  -3.504  0.00  0.00    +0.052 C 
ENDBRANCH  19  21
ENDBRANCH   2  19
BRANCH   7  31
ATOM     31  C   UNL     1       0.053  -6.895   1.609  0.00  0.00    +0.137 C 
BRANCH  31  32
ATOM     32  C   UNL     1      -1.470  -7.043   1.618  0.00  0.00    +0.178 C 
BRANCH  32  33
ATOM     33  O   UNL     1      -1.844  -8.163   0.813  0.00  0.00    -0.381 OA
ATOM     34  C   UNL     1      -3.254  -8.390   0.754  0.00  0.00    +0.194 C 
ENDBRANCH  32  33
ENDBRANCH  31  32
ENDBRANCH   7  31
TORSDOF 9
