REMARK  Name = ZINC40221223
REMARK  5 active torsions:
REMARK  status: ('A' for Active; 'I' for Inactive)
REMARK    1  A    between atoms: C_4  and  O_7
REMARK    2  A    between atoms: O_7  and  C_8
REMARK    3  A    between atoms: C_9  and  C_19
REMARK    4  A    between atoms: N_23  and  C_27
REMARK    5  A    between atoms: C_27  and  C_28
REMARK                            x       y       z     vdW  Elec       q    Type
REMARK                         _______ _______ _______ _____ _____    ______ ____
ROOT
ATOM      1  C   UNL     1       3.564  -1.964   0.309  0.00  0.00    +0.235 A 
ATOM      2  C   UNL     1       4.763  -2.698   0.170  0.00  0.00    +0.103 A 
ATOM      3  C   UNL     1       4.679  -4.106   0.039  0.00  0.00    +0.269 A 
ATOM      4  O   UNL     1       5.688  -4.778  -0.083  0.00  0.00    -0.266 OA
ATOM      5  N   UNL     1       3.462  -4.690   0.053  0.00  0.00    -0.268 N 
ATOM      6  C   UNL     1       3.370  -6.044  -0.072  0.00  0.00    +0.096 A 
ATOM      7  C   UNL     1       2.166  -6.660  -0.063  0.00  0.00    +0.018 A 
ATOM      8  C   UNL     1       0.992  -5.907   0.076  0.00  0.00    +0.005 A 
ATOM      9  C   UNL     1       1.074  -4.551   0.202  0.00  0.00    +0.047 A 
ATOM     10  C   UNL     1       2.335  -3.929   0.191  0.00  0.00    +0.144 A 
ATOM     11  N   UNL     1       2.405  -2.603   0.319  0.00  0.00    -0.194 NA
ENDROOT
BRANCH   2  12
ATOM     12  C   UNL     1       6.017  -2.042   0.161  0.00  0.00    +0.039 C 
ATOM     13  C   UNL     1       6.261  -1.048  -0.741  0.00  0.00    +0.077 C 
ATOM     14  C   UNL     1       7.394  -0.194  -0.864  0.00  0.00    +0.259 C 
ATOM     15  O   UNL     1       8.336  -0.288  -0.098  0.00  0.00    -0.269 OA
ATOM     16  N   UNL     1       7.394   0.705  -1.834  0.00  0.00    -0.251 N 
ATOM     17  C   UNL     1       6.349   0.810  -2.684  0.00  0.00    +0.121 C 
ATOM     18  S   UNL     1       6.137   1.888  -3.997  0.00  0.00    -0.027 S 
ATOM     19  S   UNL     1       5.248  -0.468  -2.095  0.00  0.00    -0.061 S 
BRANCH  16  20
ATOM     20  C   UNL     1       8.544   1.599  -1.989  0.00  0.00    +0.150 C 
BRANCH  20  21
ATOM     21  C   UNL     1       9.553   0.967  -2.912  0.00  0.00    -0.026 A 
ATOM     22  C   UNL     1      10.543   0.151  -2.397  0.00  0.00    +0.009 A 
ATOM     23  C   UNL     1      11.470  -0.432  -3.241  0.00  0.00    +0.050 A 
ATOM     24  C   UNL     1      11.409  -0.200  -4.605  0.00  0.00    +0.166 A 
ATOM     25  C   UNL     1      10.411   0.621  -5.124  0.00  0.00    +0.167 A 
ATOM     26  C   UNL     1       9.482   1.198  -4.273  0.00  0.00    +0.054 A 
ATOM     27  O   UNL     1      10.564   0.691  -6.479  0.00  0.00    -0.453 OA
ATOM     28  C   UNL     1      11.905   0.236  -6.738  0.00  0.00    +0.466 C 
ATOM     29  O   UNL     1      12.187  -0.645  -5.635  0.00  0.00    -0.453 OA
ENDBRANCH  20  21
ENDBRANCH  16  20
ENDBRANCH   2  12
BRANCH   1  30
ATOM     30  O   UNL     1       3.601  -0.619   0.436  0.00  0.00    -0.437 OA
BRANCH  30  34
ATOM     31  C   UNL     1       0.058   1.353   1.198  0.00  0.00    +0.000 A 
ATOM     32  C   UNL     1       0.648   0.587   2.186  0.00  0.00    +0.004 A 
ATOM     33  C   UNL     1       1.834  -0.074   1.934  0.00  0.00    +0.046 A 
ATOM     34  C   UNL     1       2.434   0.031   0.687  0.00  0.00    +0.130 A 
ATOM     35  C   UNL     1       1.839   0.799  -0.303  0.00  0.00    +0.046 A 
ATOM     36  C   UNL     1       0.653   1.459  -0.046  0.00  0.00    +0.004 A 
ENDBRANCH  30  34
ENDBRANCH   1  30
TORSDOF 5
