REMARK  Name = ZINC19263878
REMARK  6 active torsions:
REMARK  status: ('A' for Active; 'I' for Inactive)
REMARK    1  A    between atoms: C_3  and  C_6
REMARK    2  A    between atoms: C_8  and  C_11
REMARK    3  A    between atoms: C_11  and  O_13
REMARK    4  A    between atoms: O_13  and  C_14
REMARK    5  A    between atoms: C_14  and  C_15
REMARK    6  A    between atoms: N_17  and  N_18
REMARK                            x       y       z     vdW  Elec       q    Type
REMARK                         _______ _______ _______ _____ _____    ______ ____
ROOT
ATOM      1  C   UNL     1       5.824  -2.444  -0.066  0.00  0.00    +0.267 C 
ATOM      2  O   UNL     1       4.924  -3.258  -0.062  0.00  0.00    -0.271 OA
ATOM      3  N   UNL     1       7.106  -2.858  -0.080  0.00  0.00    -0.221 N 
ATOM      4  H   UNL     1       7.922  -2.120  -0.083  0.00  0.00    +0.174 HD
ENDROOT
BRANCH   3   5
ATOM      5  N   UNL     1       7.401  -4.228  -0.090  0.00  0.00    -0.137 N 
ATOM      6  C   UNL     1       7.832  -4.902  -1.176  0.00  0.00    +0.263 C 
ATOM      7  O   UNL     1       8.032  -4.457  -2.285  0.00  0.00    -0.271 OA
ATOM      8  C   UNL     1       8.014  -6.331  -0.717  0.00  0.00    +0.114 C 
ATOM      9  C   UNL     1       9.471  -6.756  -0.870  0.00  0.00    +0.035 C 
ATOM     10  C   UNL     1       9.640  -8.195  -0.374  0.00  0.00    +0.003 C 
ATOM     11  C   UNL     1       8.732  -9.122  -1.185  0.00  0.00    +0.000 C 
ATOM     12  C   UNL     1       7.274  -8.698  -1.002  0.00  0.00    +0.003 C 
ATOM     13  C   UNL     1       7.095  -7.262  -1.500  0.00  0.00    +0.035 C 
ATOM     14  N   UNL     1       7.632  -6.302   0.700  0.00  0.00    -0.284 N 
ATOM     15  C   UNL     1       7.294  -5.028   0.977  0.00  0.00    +0.326 C 
ATOM     16  O   UNL     1       6.929  -4.649   2.073  0.00  0.00    -0.251 OA
ATOM     17  H   UNL     1       7.665  -7.225   1.298  0.00  0.00    +0.151 HD
ENDBRANCH   3   5
BRANCH   1  18
ATOM     18  C   UNL     1       5.507  -0.971  -0.055  0.00  0.00    +0.329 C 
BRANCH  18  19
ATOM     19  O   UNL     1       4.067  -0.785  -0.041  0.00  0.00    -0.451 OA
BRANCH  19  20
ATOM     20  C   UNL     1       3.614   0.484  -0.029  0.00  0.00    +0.359 C 
ATOM     21  O   UNL     1       4.401   1.411  -0.032  0.00  0.00    -0.243 OA
BRANCH  20  24
ATOM     22  C   UNL     1       0.002  -0.004   0.002  0.00  0.00    +0.116 A 
ATOM     23  N   UNL     1       1.301  -0.255  -0.012  0.00  0.00    -0.232 NA
ATOM     24  C   UNL     1       2.167   0.749  -0.015  0.00  0.00    +0.155 A 
ATOM     25  C   UNL     1       1.695   2.038  -0.003  0.00  0.00    +0.082 A 
ATOM     26  S   UNL     1      -0.022   1.781   0.012  0.00  0.00    -0.074 S 
BRANCH  22  29
ATOM     27  C   UNL     1      -3.353  -1.744   0.024  0.00  0.00    +0.008 A 
ATOM     28  C   UNL     1      -2.473  -0.686   0.027  0.00  0.00    +0.018 A 
ATOM     29  C   UNL     1      -1.127  -0.948   0.008  0.00  0.00    +0.044 A 
ATOM     30  S   UNL     1      -1.100  -2.733  -0.001  0.00  0.00    -0.095 S 
ATOM     31  C   UNL     1      -2.864  -3.012   0.014  0.00  0.00    +0.046 A 
ENDBRANCH  22  29
ENDBRANCH  20  24
ENDBRANCH  19  20
ENDBRANCH  18  19
ENDBRANCH   1  18
TORSDOF 6
