REMARK  Name = ZINC40450353
REMARK  9 active torsions:
REMARK  status: ('A' for Active; 'I' for Inactive)
REMARK    1  A    between atoms: C_1  and  C_2
REMARK    2  A    between atoms: C_2  and  C_3
REMARK    3  A    between atoms: C_11  and  S_15
REMARK    4  A    between atoms: S_15  and  N_18
REMARK    5  A    between atoms: N_18  and  C_19
REMARK    6  A    between atoms: C_19  and  C_20
REMARK    7  A    between atoms: C_20  and  C_21
REMARK    8  A    between atoms: C_21  and  N_22
REMARK    9  A    between atoms: C_25  and  C_28
REMARK                            x       y       z     vdW  Elec       q    Type
REMARK                         _______ _______ _______ _____ _____    ______ ____
ROOT
ATOM      1  S   UNL     1       3.454  -1.651  -6.178  0.00  0.00    +0.060 S 
ATOM      2  O   UNL     1       3.179  -2.160  -7.475  0.00  0.00    -0.153 OA
ATOM      3  O   UNL     1       3.207  -0.298  -5.821  0.00  0.00    -0.153 OA
ENDROOT
BRANCH   1  12
ATOM      4  C   UNL     1      -0.169  -5.972  -6.116  0.00  0.00    +0.220 C 
ATOM      5  O   UNL     1       0.328  -5.460  -7.096  0.00  0.00    -0.275 OA
ATOM      6  N   UNL     1       0.134  -5.509  -4.887  0.00  0.00    -0.271 N 
ATOM      7  C   UNL     1      -0.397  -6.048  -3.632  0.00  0.00    +0.118 C 
ATOM      8  C   UNL     1       0.240  -5.193  -2.524  0.00  0.00    +0.056 C 
ATOM      9  C   UNL     1       1.112  -4.202  -3.262  0.00  0.00    -0.023 A 
ATOM     10  C   UNL     1       1.005  -4.447  -4.622  0.00  0.00    +0.041 A 
ATOM     11  C   UNL     1       1.730  -3.655  -5.513  0.00  0.00    +0.053 A 
ATOM     12  C   UNL     1       2.543  -2.645  -5.043  0.00  0.00    +0.121 A 
ATOM     13  C   UNL     1       2.647  -2.411  -3.684  0.00  0.00    +0.045 A 
ATOM     14  C   UNL     1       1.925  -3.187  -2.795  0.00  0.00    +0.022 A 
ATOM     15 BR   UNL     1       3.764  -1.026  -3.043  0.00  0.00    -0.048 Br
BRANCH   4  17
ATOM     16  C   UNL     1      -1.295  -7.451  -7.757  0.00  0.00    +0.013 C 
ATOM     17  C   UNL     1      -1.125  -7.126  -6.272  0.00  0.00    +0.093 C 
ENDBRANCH   4  17
ENDBRANCH   1  12
BRANCH   1  18
ATOM     18  N   UNL     1       5.061  -1.929  -5.892  0.00  0.00    -0.190 NA
ATOM     19  H   UNL     1       5.630  -1.208  -5.579  0.00  0.00    +0.148 HD
BRANCH  18  20
ATOM     20  C   UNL     1       5.624  -3.264  -6.110  0.00  0.00    +0.104 C 
BRANCH  20  21
ATOM     21  C   UNL     1       7.150  -3.171  -6.170  0.00  0.00    -0.002 C 
BRANCH  21  22
ATOM     22  C   UNL     1       7.737  -4.565  -6.399  0.00  0.00    -0.078 C 
BRANCH  22  23
ATOM     23  N   UNL     1       9.203  -4.475  -6.457  0.00  0.00    +0.380 N 
ATOM     24  C   UNL     1       9.597  -3.682  -7.627  0.00  0.00    -0.079 C 
ATOM     25  C   UNL     1      11.118  -3.517  -7.647  0.00  0.00    -0.016 C 
ATOM     26  C   UNL     1      11.775  -4.899  -7.720  0.00  0.00    -0.018 C 
ATOM     27  C   UNL     1      11.298  -5.743  -6.535  0.00  0.00    -0.016 C 
ATOM     28  C   UNL     1       9.770  -5.825  -6.556  0.00  0.00    -0.079 C 
ATOM     29  C   UNL     1      13.296  -4.746  -7.661  0.00  0.00    +0.007 C 
ATOM     30  H   UNL     1       9.544  -4.028  -5.619  0.00  0.00    -0.082 HD
ENDBRANCH  22  23
ENDBRANCH  21  22
ENDBRANCH  20  21
ENDBRANCH  18  20
ENDBRANCH   1  18
TORSDOF 7
