REMARK  Name = ZINC08227583
REMARK  9 active torsions:
REMARK  status: ('A' for Active; 'I' for Inactive)
REMARK    1  A    between atoms: C_1  and  C_2
REMARK    2  A    between atoms: C_2  and  O_3
REMARK    3  A    between atoms: O_3  and  C_4
REMARK    4  A    between atoms: C_4  and  C_6
REMARK    5  A    between atoms: C_7  and  C_25
REMARK    6  A    between atoms: C_12  and  C_14
REMARK    7  A    between atoms: C_17  and  O_23
REMARK    8  A    between atoms: C_18  and  N_20
REMARK    9  A    between atoms: O_23  and  C_24
REMARK                            x       y       z     vdW  Elec       q    Type
REMARK                         _______ _______ _______ _____ _____    ______ ____
ROOT
ATOM      1  C   UNL     1       1.022  -1.401   6.430  0.00  0.00    +0.078 C 
ATOM      2  C   UNL     1       1.963  -2.334   6.692  0.00  0.00    +0.019 C 
ATOM      3  N   UNL     1       3.292  -2.029   6.640  0.00  0.00    -0.300 N 
ATOM      4  C   UNL     1       3.763  -0.814   6.333  0.00  0.00    +0.135 C 
ATOM      5  S   UNL     1       5.457  -0.566   6.304  0.00  0.00    -0.019 S 
ATOM      6  N   UNL     1       2.948   0.220   6.048  0.00  0.00    -0.315 N 
ATOM      7  C   UNL     1       1.493  -0.005   6.077  0.00  0.00    +0.141 C 
ATOM      8  C   UNL     1       1.538  -3.736   7.048  0.00  0.00    +0.061 C 
ATOM      9  H   UNL     1       3.931  -2.732   6.836  0.00  0.00    +0.154 HD
ATOM     10  H   UNL     1       3.312   1.092   5.827  0.00  0.00    +0.149 HD
ENDROOT
BRANCH   7  11
ATOM     11  C   UNL     1       0.942   0.341   4.717  0.00  0.00    -0.020 A 
ATOM     12  C   UNL     1       1.604  -0.077   3.577  0.00  0.00    +0.009 A 
ATOM     13  C   UNL     1       1.098   0.234   2.330  0.00  0.00    +0.048 A 
ATOM     14  C   UNL     1      -0.069   0.976   2.222  0.00  0.00    +0.150 A 
ATOM     15  C   UNL     1      -0.731   1.395   3.367  0.00  0.00    +0.168 A 
ATOM     16  C   UNL     1      -0.224   1.077   4.612  0.00  0.00    +0.042 A 
BRANCH  15  17
ATOM     17  N   UNL     1      -1.979   2.183   3.255  0.00  0.00    +0.060 N 
ATOM     18  O   UNL     1      -2.559   2.551   4.261  0.00  0.00    -0.126 OA
ATOM     19  O   UNL     1      -2.425   2.464   2.157  0.00  0.00    -0.126 OA
ENDBRANCH  15  17
BRANCH  14  20
ATOM     20  O   UNL     1      -0.566   1.288   0.996  0.00  0.00    -0.493 OA
ATOM     21  C   UNL     1       0.168   0.824  -0.139  0.00  0.00    +0.277 C 
ENDBRANCH  14  20
ENDBRANCH   7  11
BRANCH   1  22
ATOM     22  C   UNL     1      -0.356  -1.716   6.484  0.00  0.00    +0.339 C 
ATOM     23  O   UNL     1      -0.710  -2.866   6.664  0.00  0.00    -0.245 OA
BRANCH  22  24
ATOM     24  O   UNL     1      -1.277  -0.741   6.336  0.00  0.00    -0.462 OA
BRANCH  24  26
ATOM     25  C   UNL     1      -3.539   0.100   6.215  0.00  0.00    +0.048 C 
ATOM     26  C   UNL     1      -2.650  -1.131   6.402  0.00  0.00    +0.229 C 
ENDBRANCH  24  26
ENDBRANCH  22  24
ENDBRANCH   1  22
TORSDOF 6
