REMARK  Name = ZINC48356126
REMARK  4 active torsions:
REMARK  status: ('A' for Active; 'I' for Inactive)
REMARK    1  A    between atoms: N_11  and  C_12
REMARK    2  A    between atoms: C_12  and  C_13
REMARK    3  A    between atoms: N_15  and  C_16
REMARK    4  A    between atoms: C_16  and  C_17
REMARK                            x       y       z     vdW  Elec       q    Type
REMARK                         _______ _______ _______ _____ _____    ______ ____
ROOT
ATOM      1  C   UNL     1       5.521   0.118   1.367  0.00  0.00    +0.233 C 
ATOM      2  O   UNL     1       4.754  -0.139   2.270  0.00  0.00    -0.274 OA
ATOM      3  N   UNL     1       6.633   0.840   1.612  0.00  0.00    -0.310 N 
ATOM      4  H   UNL     1       7.247   1.045   0.889  0.00  0.00    +0.149 HD
ENDROOT
BRANCH   1   5
ATOM      5  C   UNL     1       5.232  -0.369  -0.030  0.00  0.00    +0.221 C 
BRANCH   5  16
ATOM      6  C   UNL     1       0.352   0.794  -0.714  0.00  0.00    +0.002 A 
ATOM      7  C   UNL     1       1.536   1.519  -0.712  0.00  0.00    +0.002 A 
ATOM      8  C   UNL     1       2.741   0.890  -0.487  0.00  0.00    +0.028 A 
ATOM      9  C   UNL     1       2.774  -0.482  -0.260  0.00  0.00    +0.071 A 
ATOM     10  C   UNL     1       1.574  -1.217  -0.261  0.00  0.00    +0.088 A 
ATOM     11  C   UNL     1       0.360  -0.552  -0.493  0.00  0.00    +0.030 A 
ATOM     12  N   UNL     1       1.585  -2.546  -0.043  0.00  0.00    -0.248 NA
ATOM     13  C   UNL     1       2.700  -3.183   0.174  0.00  0.00    +0.181 A 
ATOM     14  C   UNL     1       3.975  -2.456   0.184  0.00  0.00    +0.270 A 
ATOM     15  O   UNL     1       5.019  -3.048   0.387  0.00  0.00    -0.266 OA
ATOM     16  N   UNL     1       3.975  -1.123  -0.033  0.00  0.00    -0.297 N 
ENDBRANCH   5  16
ENDBRANCH   1   5
BRANCH   3  17
ATOM     17  C   UNL     1       6.914   1.314   2.969  0.00  0.00    +0.141 C 
BRANCH  17  18
ATOM     18  C   UNL     1       8.207   2.089   2.973  0.00  0.00    -0.014 A 
ATOM     19  C   UNL     1       9.414   1.440   3.196  0.00  0.00    +0.010 A 
ATOM     20  C   UNL     1      10.577   2.188   3.191  0.00  0.00    +0.042 A 
ATOM     21  C   UNL     1      10.498   3.559   2.964  0.00  0.00    +0.099 A 
ATOM     22  N   UNL     1       9.328   4.141   2.755  0.00  0.00    -0.349 N 
ATOM     23  C   UNL     1       8.203   3.451   2.749  0.00  0.00    +0.089 A 
ATOM     24  N   UNL     1      11.659   4.323   2.957  0.00  0.00    -0.317 N 
ATOM     25  C   UNL     1      12.935   3.647   3.040  0.00  0.00    +0.106 C 
ATOM     26  C   UNL     1      13.335   3.476   4.526  0.00  0.00    +0.019 C 
ATOM     27  C   UNL     1      13.707   4.774   5.108  0.00  0.00    +0.002 C 
ATOM     28  C   UNL     1      12.575   5.797   5.138  0.00  0.00    +0.002 C 
ATOM     29  C   UNL     1      12.513   6.514   3.812  0.00  0.00    +0.019 C 
ATOM     30  C   UNL     1      11.539   5.791   2.858  0.00  0.00    +0.106 C 
ATOM     31  H   UNL     1       9.297   5.098   2.599  0.00  0.00    +0.167 HD
ENDBRANCH  17  18
ENDBRANCH   3  17
TORSDOF 4
