REMARK  Name = ZINC55120493
REMARK  5 active torsions:
REMARK  status: ('A' for Active; 'I' for Inactive)
REMARK    1  A    between atoms: C_1  and  C_2
REMARK    2  A    between atoms: C_6  and  C_29
REMARK    3  A    between atoms: C_7  and  N_8
REMARK    4  A    between atoms: C_12  and  N_16
REMARK    5  A    between atoms: N_16  and  C_17
REMARK                            x       y       z     vdW  Elec       q    Type
REMARK                         _______ _______ _______ _____ _____    ______ ____
ROOT
ATOM      1  N   UNL     1       0.025  -0.013   2.419  0.00  0.00    -0.208 N 
ATOM      2  C   UNL     1       1.152   0.365   3.036  0.00  0.00    +0.228 C 
ATOM      3  O   UNL     1       2.276   0.163   2.630  0.00  0.00    -0.275 OA
ATOM      4  C   UNL     1       0.799   1.085   4.319  0.00  0.00    +0.128 C 
ATOM      5  C   UNL     1      -0.743   1.057   4.338  0.00  0.00    +0.166 C 
ATOM      6  C   UNL     1      -1.100   0.329   3.060  0.00  0.00    +0.247 C 
ATOM      7  O   UNL     1      -2.225   0.092   2.678  0.00  0.00    -0.273 OA
ENDROOT
BRANCH   1  14
ATOM      8  C   UNL     1      -0.018   1.503   0.010  0.00  0.00    +0.046 C 
ATOM      9  C   UNL     1       0.002  -0.004   0.002  0.00  0.00    -0.028 A 
ATOM     10  C   UNL     1       0.006  -0.689  -1.198  0.00  0.00    +0.005 A 
ATOM     11  C   UNL     1       0.025  -2.071  -1.206  0.00  0.00    +0.001 A 
ATOM     12  C   UNL     1       0.040  -2.773  -0.014  0.00  0.00    +0.005 A 
ATOM     13  C   UNL     1       0.037  -2.093   1.188  0.00  0.00    -0.028 A 
ATOM     14  C   UNL     1       0.023  -0.705   1.200  0.00  0.00    +0.050 A 
ATOM     15  C   UNL     1       0.054  -2.858   2.487  0.00  0.00    +0.046 C 
ENDBRANCH   1  14
BRANCH   5  16
ATOM     16  N   UNL     1      -1.231   0.327   5.510  0.00  0.00    -0.332 N 
ATOM     17  H   UNL     1      -0.672  -0.345   5.930  0.00  0.00    +0.147 HD
BRANCH  16  18
ATOM     18  C   UNL     1      -2.504   0.598   6.022  0.00  0.00    +0.030 A 
ATOM     19  C   UNL     1      -3.307   1.557   5.415  0.00  0.00    +0.025 A 
ATOM     20  C   UNL     1      -4.564   1.829   5.916  0.00  0.00    +0.029 A 
ATOM     21  C   UNL     1      -5.029   1.144   7.028  0.00  0.00    +0.067 A 
ATOM     22  C   UNL     1      -4.226   0.180   7.641  0.00  0.00    +0.069 A 
ATOM     23  C   UNL     1      -2.966  -0.094   7.132  0.00  0.00    +0.050 A 
ATOM     24  N   UNL     1      -4.953  -0.327   8.715  0.00  0.00    -0.306 N 
ATOM     25  H   UNL     1      -4.652  -1.014   9.330  0.00  0.00    +0.170 HD
ATOM     26  C   UNL     1      -6.144   0.298   8.755  0.00  0.00    +0.325 A 
ATOM     27  O   UNL     1      -7.019   0.088   9.575  0.00  0.00    -0.247 OA
ATOM     28  N   UNL     1      -6.222   1.192   7.751  0.00  0.00    -0.306 N 
ATOM     29  H   UNL     1      -6.977   1.770   7.563  0.00  0.00    +0.170 HD
ENDBRANCH  16  18
ENDBRANCH   5  16
TORSDOF 3
