REMARK  Name = ZINC09016595
REMARK  7 active torsions:
REMARK  status: ('A' for Active; 'I' for Inactive)
REMARK    1  A    between atoms: C_4  and  N_7
REMARK    2  A    between atoms: C_9  and  C_14
REMARK    3  A    between atoms: N_16  and  C_17
REMARK    4  A    between atoms: C_17  and  C_18
REMARK    5  A    between atoms: C_18  and  N_19
REMARK    6  A    between atoms: N_26  and  C_29
REMARK    7  A    between atoms: C_29  and  C_30
REMARK                            x       y       z     vdW  Elec       q    Type
REMARK                         _______ _______ _______ _____ _____    ______ ____
ROOT
ATOM      1  N   UNL     1      10.362  -1.107  -1.516  0.00  0.00    -0.245 N 
ATOM      2  C   UNL     1      10.579  -1.684  -2.727  0.00  0.00    +0.165 A 
ATOM      3  C   UNL     1      11.887  -1.345  -3.104  0.00  0.00    +0.103 A 
ATOM      4  C   UNL     1      12.429  -0.558  -2.071  0.00  0.00    +0.150 A 
ATOM      5  N   UNL     1      11.525  -0.423  -1.140  0.00  0.00    -0.177 NA
ATOM      6  C   UNL     1      12.385  -1.839  -4.388  0.00  0.00    +0.265 A 
ATOM      7  O   UNL     1      13.513  -1.583  -4.769  0.00  0.00    -0.267 OA
ATOM      8  N   UNL     1      11.545  -2.593  -5.135  0.00  0.00    -0.294 N 
ATOM      9  C   UNL     1      10.293  -2.867  -4.691  0.00  0.00    +0.204 A 
ATOM     10  N   UNL     1       9.833  -2.435  -3.553  0.00  0.00    -0.218 NA
ENDROOT
BRANCH   1  11
ATOM     11  C   UNL     1       9.125  -1.191  -0.735  0.00  0.00    +0.164 C 
BRANCH  11  12
ATOM     12  C   UNL     1       8.204  -0.029  -1.113  0.00  0.00    +0.127 C 
BRANCH  12  15
ATOM     13  C   UNL     1       6.001   0.812  -0.497  0.00  0.00    +0.218 C 
ATOM     14  O   UNL     1       6.156   1.714  -1.294  0.00  0.00    -0.275 OA
ATOM     15  N   UNL     1       6.967  -0.113  -0.331  0.00  0.00    -0.313 N 
ATOM     16  H   UNL     1       6.844  -0.834   0.305  0.00  0.00    +0.149 HD
BRANCH  13  19
ATOM     17  N   UNL     1       2.396   1.147  -0.051  0.00  0.00    -0.271 N 
ATOM     18  C   UNL     1       3.710   1.791  -0.162  0.00  0.00    +0.127 C 
ATOM     19  C   UNL     1       4.729   0.726   0.306  0.00  0.00    +0.101 C 
ATOM     20  C   UNL     1       3.971  -0.587   0.003  0.00  0.00    +0.110 C 
ATOM     21  C   UNL     1       2.512  -0.189   0.034  0.00  0.00    +0.221 C 
ATOM     22  O   UNL     1       1.583  -0.963   0.123  0.00  0.00    -0.275 OA
BRANCH  17  26
ATOM     23  C   UNL     1      -1.230   3.198  -0.019  0.00  0.00    +0.000 A 
ATOM     24  C   UNL     1      -1.220   1.815  -0.054  0.00  0.00    +0.002 A 
ATOM     25  C   UNL     1      -0.019   1.133  -0.059  0.00  0.00    +0.023 A 
ATOM     26  C   UNL     1       1.178   1.836  -0.041  0.00  0.00    +0.036 A 
ATOM     27  C   UNL     1       1.164   3.224  -0.011  0.00  0.00    +0.023 A 
ATOM     28  C   UNL     1      -0.040   3.901  -0.001  0.00  0.00    +0.002 A 
ENDBRANCH  17  26
ENDBRANCH  13  19
ENDBRANCH  12  15
ENDBRANCH  11  12
ENDBRANCH   1  11
BRANCH   8  29
ATOM     29  C   UNL     1      11.990  -3.115  -6.430  0.00  0.00    +0.162 C 
BRANCH  29  30
ATOM     30  C   UNL     1      12.524  -4.513  -6.251  0.00  0.00    -0.020 A 
ATOM     31  C   UNL     1      12.444  -5.126  -5.037  0.00  0.00    +0.006 A 
ATOM     32  C   UNL     1      12.932  -6.418  -4.853  0.00  0.00    +0.001 A 
ATOM     33  C   UNL     1      13.502  -7.105  -5.880  0.00  0.00    +0.008 A 
ATOM     34  C   UNL     1      13.602  -6.506  -7.147  0.00  0.00    -0.018 A 
ATOM     35  C   UNL     1      13.101  -5.193  -7.336  0.00  0.00    -0.013 A 
ATOM     36  C   UNL     1      13.205  -4.592  -8.602  0.00  0.00    +0.009 A 
ATOM     37  C   UNL     1      13.775  -5.279  -9.629  0.00  0.00    +0.001 A 
ATOM     38  C   UNL     1      14.264  -6.571  -9.444  0.00  0.00    +0.001 A 
ATOM     39  C   UNL     1      14.184  -7.184  -8.232  0.00  0.00    +0.008 A 
ENDBRANCH  29  30
ENDBRANCH   8  29
TORSDOF 7
