REMARK  Name = ZINC09240472
REMARK  5 active torsions:
REMARK  status: ('A' for Active; 'I' for Inactive)
REMARK    1  A    between atoms: C_1  and  C_2
REMARK    2  A    between atoms: C_8  and  C_10
REMARK    3  A    between atoms: C_10  and  S_11
REMARK    4  A    between atoms: S_11  and  C_12
REMARK    5  A    between atoms: C_18  and  C_21
REMARK                            x       y       z     vdW  Elec       q    Type
REMARK                         _______ _______ _______ _____ _____    ______ ____
ROOT
ATOM      1  C   UNL     1      -7.940   4.050   5.654  0.00  0.00    +0.213 A 
ATOM      2  N   UNL     1      -8.794   3.889   4.666  0.00  0.00    -0.120 NA
ATOM      3  N   UNL     1      -9.983   4.195   5.051  0.00  0.00    -0.127 NA
ATOM      4  C   UNL     1      -9.957   4.571   6.316  0.00  0.00    +0.179 A 
ATOM      5  N   UNL     1      -8.644   4.481   6.734  0.00  0.00    -0.187 N 
ATOM      6  N   UNL     1      -8.303   4.813   8.046  0.00  0.00    -0.163 NA
ATOM      7  C   UNL     1      -9.224   5.210   8.894  0.00  0.00    +0.092 A 
ATOM      8  C   UNL     1     -10.577   5.310   8.499  0.00  0.00    +0.034 A 
ATOM      9  C   UNL     1     -10.941   5.003   7.226  0.00  0.00    +0.052 A 
ENDROOT
BRANCH   7  10
ATOM     10  C   UNL     1      -8.840   5.559  10.283  0.00  0.00    +0.002 A 
ATOM     11  C   UNL     1      -9.808   5.987  11.190  0.00  0.00    +0.011 A 
ATOM     12  C   UNL     1      -9.445   6.305  12.483  0.00  0.00    +0.020 A 
ATOM     13  C   UNL     1      -8.122   6.210  12.877  0.00  0.00    +0.041 A 
ATOM     14  C   UNL     1      -7.156   5.790  11.978  0.00  0.00    +0.020 A 
ATOM     15  C   UNL     1      -7.508   5.465  10.685  0.00  0.00    +0.011 A 
ATOM     16 CL   UNL     1      -7.671   6.620  14.503  0.00  0.00    -0.084 Cl
ENDBRANCH   7  10
BRANCH   1  17
ATOM     17  S   UNL     1      -6.204   3.754   5.590  0.00  0.00    -0.075 S 
BRANCH  17  18
ATOM     18  C   UNL     1      -5.916   3.196   3.889  0.00  0.00    +0.173 C 
BRANCH  18  26
ATOM     19  C   UNL     1      -0.013   1.086   0.008  0.00  0.00    +0.066 C 
ATOM     20  C   UNL     1      -0.718   1.572   1.248  0.00  0.00    +0.047 A 
ATOM     21  C   UNL     1      -0.029   1.806   2.391  0.00  0.00    +0.071 A 
ATOM     22  S   UNL     1      -1.348   2.342   3.471  0.00  0.00    -0.060 S 
ATOM     23  C   UNL     1      -2.646   2.204   2.326  0.00  0.00    +0.165 A 
ATOM     24  N   UNL     1      -2.019   1.784   1.244  0.00  0.00    -0.230 NA
ATOM     25  N   UNL     1      -3.999   2.473   2.502  0.00  0.00    -0.264 N 
ATOM     26  C   UNL     1      -4.449   2.904   3.697  0.00  0.00    +0.229 C 
ATOM     27  O   UNL     1      -3.675   3.058   4.618  0.00  0.00    -0.275 OA
ATOM     28  H   UNL     1      -4.618   2.351   1.766  0.00  0.00    +0.157 HD
ENDBRANCH  18  26
ENDBRANCH  17  18
ENDBRANCH   1  17
TORSDOF 4
