REMARK  Name = ZINC38485257
REMARK  9 active torsions:
REMARK  status: ('A' for Active; 'I' for Inactive)
REMARK    1  A    between atoms: C_1  and  C_2
REMARK    2  A    between atoms: C_2  and  N_3
REMARK    3  A    between atoms: N_8  and  C_33
REMARK    4  A    between atoms: C_11  and  C_13
REMARK    5  A    between atoms: N_18  and  C_21
REMARK    6  A    between atoms: C_21  and  C_22
REMARK    7  A    between atoms: N_24  and  C_25
REMARK    8  A    between atoms: C_27  and  C_32
REMARK    9  A    between atoms: C_29  and  C_31
REMARK                            x       y       z     vdW  Elec       q    Type
REMARK                         _______ _______ _______ _____ _____    ______ ____
ROOT
ATOM      1  C   UNL     1       4.356  -1.437  -2.209  0.00  0.00    +0.250 C 
ATOM      2  O   UNL     1       4.937  -1.368  -1.142  0.00  0.00    -0.270 OA
ATOM      3  N   UNL     1       5.042  -1.727  -3.332  0.00  0.00    -0.295 N 
ATOM      4  C   UNL     1       4.384  -1.698  -4.647  0.00  0.00    +0.123 C 
ATOM      5  C   UNL     1       4.675  -3.020  -5.365  0.00  0.00    +0.104 C 
ATOM      6  N   UNL     1       6.126  -3.245  -5.402  0.00  0.00    -0.291 NA
ATOM      7  C   UNL     1       6.677  -3.388  -4.048  0.00  0.00    +0.104 C 
ATOM      8  C   UNL     1       6.470  -2.075  -3.276  0.00  0.00    +0.123 C 
ENDROOT
BRANCH   1  17
ATOM      9  N   UNL     1       0.684  -2.049  -2.313  0.00  0.00    -0.352 N 
ATOM     10  C   UNL     1       0.114  -0.832  -2.393  0.00  0.00    +0.101 A 
ATOM     11  C   UNL     1       0.884   0.302  -2.420  0.00  0.00    +0.085 A 
ATOM     12  C   UNL     1       0.638   1.739  -2.499  0.00  0.00    +0.283 A 
ATOM     13  O   UNL     1      -0.447   2.294  -2.565  0.00  0.00    -0.265 OA
ATOM     14  N   UNL     1       1.853   2.330  -2.483  0.00  0.00    -0.196 N 
ATOM     15  N   UNL     1       2.861   1.366  -2.399  0.00  0.00    -0.162 NA
ATOM     16  C   UNL     1       2.358   0.165  -2.359  0.00  0.00    +0.112 A 
ATOM     17  C   UNL     1       2.905  -1.203  -2.273  0.00  0.00    +0.081 A 
ATOM     18  C   UNL     1       2.024  -2.244  -2.249  0.00  0.00    +0.101 A 
BRANCH  14  19
ATOM     19  C   UNL     1       2.071   3.711  -2.542  0.00  0.00    +0.069 A 
ATOM     20  C   UNL     1       1.001   4.577  -2.734  0.00  0.00    +0.028 A 
ATOM     21  C   UNL     1       1.220   5.939  -2.791  0.00  0.00    +0.002 A 
ATOM     22  C   UNL     1       2.501   6.442  -2.659  0.00  0.00    +0.000 A 
ATOM     23  C   UNL     1       3.568   5.583  -2.468  0.00  0.00    +0.002 A 
ATOM     24  C   UNL     1       3.356   4.220  -2.404  0.00  0.00    +0.028 A 
ENDBRANCH  14  19
BRANCH   9  26
ATOM     25  C   UNL     1      -0.553  -3.560  -0.841  0.00  0.00    +0.027 C 
ATOM     26  C   UNL     1      -0.191  -3.224  -2.289  0.00  0.00    +0.118 C 
ENDBRANCH   9  26
ENDBRANCH   1  17
BRANCH   6  27
ATOM     27  C   UNL     1       6.457  -4.412  -6.230  0.00  0.00    +0.180 C 
BRANCH  27  28
ATOM     28  C   UNL     1       7.948  -4.469  -6.446  0.00  0.00    +0.231 C 
ATOM     29  O   UNL     1       8.664  -3.620  -5.957  0.00  0.00    -0.274 OA
ATOM     30  N   UNL     1       8.485  -5.462  -7.181  0.00  0.00    -0.284 N 
ATOM     31  H   UNL     1       7.920  -6.174  -7.522  0.00  0.00    +0.155 HD
BRANCH  30  32
ATOM     32  C   UNL     1       9.858  -5.467  -7.454  0.00  0.00    +0.034 A 
ATOM     33  C   UNL     1      10.323  -5.932  -8.677  0.00  0.00    +0.026 A 
ATOM     34  C   UNL     1      11.678  -5.936  -8.943  0.00  0.00    -0.048 A 
ATOM     35  C   UNL     1      12.572  -5.477  -7.992  0.00  0.00    +0.006 A 
ATOM     36  C   UNL     1      12.112  -5.014  -6.773  0.00  0.00    -0.048 A 
ATOM     37  C   UNL     1      10.757  -5.002  -6.503  0.00  0.00    +0.026 A 
ATOM     38  C   UNL     1      13.089  -4.516  -5.740  0.00  0.00    +0.044 C 
ATOM     39  C   UNL     1      12.183  -6.441 -10.270  0.00  0.00    +0.044 C 
ENDBRANCH  30  32
ENDBRANCH  27  28
ENDBRANCH   6  27
TORSDOF 6
