REMARK  Name = ZINC45623800
REMARK  6 active torsions:
REMARK  status: ('A' for Active; 'I' for Inactive)
REMARK    1  A    between atoms: C_1  and  N_2
REMARK    2  A    between atoms: N_2  and  C_3
REMARK    3  A    between atoms: N_2  and  C_4
REMARK    4  A    between atoms: C_7  and  N_11
REMARK    5  A    between atoms: C_12  and  C_14
REMARK    6  A    between atoms: C_16  and  N_21
REMARK                            x       y       z     vdW  Elec       q    Type
REMARK                         _______ _______ _______ _____ _____    ______ ____
ROOT
ATOM      1  N   UNL     1      -0.005  -2.763  -4.837  0.00  0.00    -0.281 N 
ATOM      2  C   UNL     1      -1.069  -2.679  -5.660  0.00  0.00    +0.249 C 
ATOM      3  O   UNL     1      -1.989  -1.930  -5.389  0.00  0.00    -0.270 OA
ATOM      4  H   UNL     1       0.761  -3.301  -5.090  0.00  0.00    +0.155 HD
ENDROOT
BRANCH   1   8
ATOM      5  C   UNL     1      -0.008  -0.712  -1.206  0.00  0.00    +0.048 A 
ATOM      6  C   UNL     1       1.180  -0.886  -1.904  0.00  0.00    +0.026 A 
ATOM      7  C   UNL     1       1.180  -1.566  -3.106  0.00  0.00    +0.025 A 
ATOM      8  C   UNL     1      -0.006  -2.075  -3.617  0.00  0.00    +0.035 A 
ATOM      9  C   UNL     1      -1.194  -1.900  -2.920  0.00  0.00    +0.045 A 
ATOM     10  C   UNL     1      -1.195  -1.225  -1.714  0.00  0.00    +0.064 A 
ATOM     11 CL   UNL     1      -2.678  -1.013  -0.838  0.00  0.00    -0.082 Cl
BRANCH   5  13
ATOM     12  C   UNL     1      -0.216   1.427   0.035  0.00  0.00    +0.129 C 
ATOM     13  N   UNL     1      -0.008  -0.023   0.013  0.00  0.00    -0.335 N 
ATOM     14  C   UNL     1       0.200  -0.752   1.266  0.00  0.00    +0.129 C 
ENDBRANCH   5  13
ENDBRANCH   1   8
BRANCH   2  15
ATOM     15  C   UNL     1      -1.119  -3.495  -6.890  0.00  0.00    +0.053 A 
ATOM     16  C   UNL     1      -0.068  -4.359  -7.200  0.00  0.00    +0.037 A 
ATOM     17  C   UNL     1      -0.122  -5.123  -8.355  0.00  0.00    +0.025 A 
ATOM     18  C   UNL     1      -1.220  -5.026  -9.202  0.00  0.00    +0.024 A 
ATOM     19  C   UNL     1      -2.261  -4.170  -8.897  0.00  0.00    +0.018 A 
ATOM     20  C   UNL     1      -2.221  -3.410  -7.745  0.00  0.00    +0.030 A 
ATOM     21 BR   UNL     1      -3.652  -2.247  -7.328  0.00  0.00    -0.050 Br
BRANCH  17  22
ATOM     22  N   UNL     1       0.928  -5.989  -8.670  0.00  0.00    -0.358 N 
ATOM     23  H   UNL     1       1.695  -6.057  -8.079  0.00  0.00    +0.142 HD
ATOM     24  H   UNL     1       0.891  -6.524  -9.479  0.00  0.00    +0.142 HD
ENDBRANCH  17  22
ENDBRANCH   2  15
TORSDOF 4
