REMARK  Name = ZINC34830434
REMARK  11 active torsions:
REMARK  status: ('A' for Active; 'I' for Inactive)
REMARK    1  A    between atoms: C_1  and  C_2
REMARK    2  A    between atoms: C_2  and  O_3
REMARK    3  A    between atoms: O_3  and  C_4
REMARK    4  A    between atoms: C_4  and  C_6
REMARK    5  A    between atoms: C_6  and  C_7
REMARK    6  A    between atoms: C_7  and  C_8
REMARK    7  A    between atoms: C_17  and  C_19
REMARK    8  A    between atoms: C_19  and  C_21
REMARK    9  A    between atoms: C_19  and  N_22
REMARK   10  A    between atoms: C_30  and  C_32
REMARK   11  A    between atoms: C_37  and  C_38
REMARK                            x       y       z     vdW  Elec       q    Type
REMARK                         _______ _______ _______ _____ _____    ______ ____
ROOT
ATOM      1  C   UNL     1       3.009 -10.284   2.257  0.00  0.00    +0.018 C 
ATOM      2  C   UNL     1       3.064 -10.183   0.731  0.00  0.00    -0.004 C 
ENDROOT
BRANCH   1  12
ATOM      3  C   UNL     1       5.173  -5.661   5.000  0.00  0.00    +0.216 C 
ATOM      4  O   UNL     1       5.997  -5.517   5.878  0.00  0.00    -0.276 OA
ATOM      5  N   UNL     1       4.603  -6.867   4.803  0.00  0.00    -0.300 N 
ATOM      6  C   UNL     1       4.940  -7.988   5.608  0.00  0.00    +0.109 C 
ATOM      7  C   UNL     1       6.223  -8.756   5.151  0.00  0.00    +0.038 C 
ATOM      8  C   UNL     1       6.225  -8.767   3.587  0.00  0.00    +0.109 C 
ATOM      9  N   UNL     1       4.944  -8.931   2.994  0.00  0.00    -0.301 N 
ATOM     10  C   UNL     1       4.230  -7.697   2.575  0.00  0.00    +0.126 C 
ATOM     11  C   UNL     1       3.590  -7.080   3.738  0.00  0.00    +0.126 C 
ATOM     12  C   UNL     1       4.401 -10.152   2.820  0.00  0.00    +0.202 C 
ATOM     13  O   UNL     1       5.032 -11.145   3.116  0.00  0.00    -0.277 OA
BRANCH   3  14
ATOM     14  C   UNL     1       4.785  -4.493   4.131  0.00  0.00    +0.107 C 
BRANCH  14  15
ATOM     15  C   UNL     1       5.573  -3.254   4.561  0.00  0.00    +0.130 C 
BRANCH  15  16
ATOM     16  C   UNL     1       5.186  -2.086   3.692  0.00  0.00    +0.308 C 
ATOM     17  O   UNL     1       4.364  -2.229   2.818  0.00  0.00    -0.251 OA
BRANCH  16  18
ATOM     18  O   UNL     1       5.753  -0.885   3.889  0.00  0.00    -0.465 OA
BRANCH  18  20
ATOM     19  C   UNL     1       6.089   1.458   3.401  0.00  0.00    +0.048 C 
ATOM     20  C   UNL     1       5.339   0.177   3.028  0.00  0.00    +0.229 C 
ENDBRANCH  18  20
ENDBRANCH  16  18
ENDBRANCH  15  16
ENDBRANCH  14  15
ENDBRANCH   3  14
ENDBRANCH   1  12
BRANCH   1  21
ATOM     21  N   UNL     1       2.447 -11.585   2.641  0.00  0.00    +0.395 N 
ATOM     22  C   UNL     1       3.272 -12.657   2.067  0.00  0.00    -0.071 C 
ATOM     23  C   UNL     1       2.510 -13.989   2.185  0.00  0.00    +0.024 C 
ATOM     24  C   UNL     1       1.986 -14.085   3.581  0.00  0.00    -0.010 A 
ATOM     25  C   UNL     1       1.921 -13.074   4.493  0.00  0.00    -0.047 A 
ATOM     26  C   UNL     1       1.397 -13.397   5.742  0.00  0.00    +0.010 A 
ATOM     27  C   UNL     1       0.982 -14.660   5.996  0.00  0.00    +0.045 A 
ATOM     28  S   UNL     1       1.318 -15.479   4.444  0.00  0.00    -0.101 S 
ATOM     29  C   UNL     1       2.410 -11.682   4.105  0.00  0.00    -0.005 C 
ATOM     30  H   UNL     1       1.507 -11.661   2.280  0.00  0.00    -0.079 HD
BRANCH  29  31
ATOM     31  C   UNL     1       1.468 -10.644   4.657  0.00  0.00    -0.054 A 
ATOM     32  C   UNL     1       0.419 -10.181   3.884  0.00  0.00    +0.002 A 
ATOM     33  C   UNL     1      -0.445  -9.229   4.390  0.00  0.00    +0.000 A 
ATOM     34  C   UNL     1      -0.261  -8.739   5.670  0.00  0.00    +0.000 A 
ATOM     35  C   UNL     1       0.787  -9.202   6.444  0.00  0.00    +0.003 A 
ATOM     36  C   UNL     1       1.649 -10.158   5.939  0.00  0.00    -0.049 A 
ATOM     37  C   UNL     1       2.788 -10.667   6.784  0.00  0.00    +0.044 C 
ENDBRANCH  29  31
ENDBRANCH   1  21
TORSDOF 8
