REMARK  Name = ZINC08715938
REMARK  6 active torsions:
REMARK  status: ('A' for Active; 'I' for Inactive)
REMARK    1  A    between atoms: C_1  and  C_2
REMARK    2  A    between atoms: C_9  and  C_14
REMARK    3  A    between atoms: C_14  and  O_16
REMARK    4  A    between atoms: O_16  and  C_17
REMARK    5  A    between atoms: C_17  and  C_18
REMARK    6  A    between atoms: N_20  and  C_21
REMARK                            x       y       z     vdW  Elec       q    Type
REMARK                         _______ _______ _______ _____ _____    ______ ____
ROOT
ATOM      1  O   UNL     1       4.194   7.037  -0.946  0.00  0.00    -0.452 OA
ENDROOT
BRANCH   1   2
ATOM      2  C   UNL     1       4.005   5.703  -0.931  0.00  0.00    +0.340 C 
ATOM      3  O   UNL     1       4.889   4.959  -1.309  0.00  0.00    -0.245 OA
BRANCH   2  11
ATOM      4  C   UNL     1      -1.746   2.231  -1.415  0.00  0.00    +0.029 C 
ATOM      5  C   UNL     1      -1.343   1.894   0.022  0.00  0.00    +0.134 C 
ATOM      6  C   UNL     1      -0.006   1.205   0.022  0.00  0.00    +0.230 C 
ATOM      7  O   UNL     1       0.013  -0.008   0.022  0.00  0.00    -0.274 OA
ATOM      8  N   UNL     1       1.157   1.851   0.017  0.00  0.00    -0.284 N 
ATOM      9  C   UNL     1       1.332   3.233   0.005  0.00  0.00    +0.048 A 
ATOM     10  C   UNL     1       2.533   3.762  -0.441  0.00  0.00    +0.039 A 
ATOM     11  C   UNL     1       2.727   5.145  -0.456  0.00  0.00    +0.061 A 
ATOM     12  C   UNL     1       1.711   6.002  -0.021  0.00  0.00    +0.016 A 
ATOM     13  C   UNL     1       0.517   5.477   0.421  0.00  0.00    +0.017 A 
ATOM     14  C   UNL     1       0.323   4.102   0.435  0.00  0.00    +0.030 A 
ATOM     15  S   UNL     1      -1.208   3.426   0.998  0.00  0.00    -0.111 S 
ATOM     16  H   UNL     1       1.960   1.308   0.020  0.00  0.00    +0.155 HD
ENDBRANCH   2  11
ENDBRANCH   1   2
BRANCH   1  17
ATOM     17  C   UNL     1       5.478   7.516  -1.427  0.00  0.00    +0.328 C 
BRANCH  17  18
ATOM     18  C   UNL     1       5.506   9.021  -1.372  0.00  0.00    +0.255 C 
ATOM     19  O   UNL     1       4.539   9.631  -0.967  0.00  0.00    -0.272 OA
ATOM     20  N   UNL     1       6.605   9.690  -1.772  0.00  0.00    -0.283 N 
ATOM     21  H   UNL     1       7.402   9.202  -2.033  0.00  0.00    +0.155 HD
BRANCH  20  22
ATOM     22  C   UNL     1       6.597  11.091  -1.813  0.00  0.00    +0.037 A 
ATOM     23  C   UNL     1       5.889  11.809  -0.859  0.00  0.00    +0.027 A 
ATOM     24  C   UNL     1       5.880  13.190  -0.897  0.00  0.00    +0.051 A 
ATOM     25  C   UNL     1       6.578  13.862  -1.887  0.00  0.00    +0.173 A 
ATOM     26  C   UNL     1       7.289  13.145  -2.846  0.00  0.00    +0.174 A 
ATOM     27  C   UNL     1       7.302  11.760  -2.804  0.00  0.00    +0.073 A 
ATOM     28  O   UNL     1       7.883  14.028  -3.700  0.00  0.00    -0.395 OA
ATOM     29  C   UNL     1       7.866  15.295  -3.017  0.00  0.00    +0.589 C 
ATOM     30  O   UNL     1       6.727  15.196  -2.142  0.00  0.00    -0.395 OA
ATOM     31  F   UNL     1       9.040  15.471  -2.277  0.00  0.00    -0.125 F 
ATOM     32  F   UNL     1       7.699  16.343  -3.929  0.00  0.00    -0.125 F 
ENDBRANCH  20  22
ENDBRANCH  17  18
ENDBRANCH   1  17
TORSDOF 5
