REMARK  Name = ZINC26864692
REMARK  9 active torsions:
REMARK  status: ('A' for Active; 'I' for Inactive)
REMARK    1  A    between atoms: C_1  and  N_2
REMARK    2  A    between atoms: C_6  and  C_8
REMARK    3  A    between atoms: C_8  and  C_10
REMARK    4  A    between atoms: C_8  and  O_16
REMARK    5  A    between atoms: O_16  and  C_17
REMARK    6  A    between atoms: C_17  and  C_19
REMARK    7  A    between atoms: C_24  and  C_25
REMARK    8  A    between atoms: N_27  and  C_28
REMARK    9  A    between atoms: N_27  and  C_29
REMARK                            x       y       z     vdW  Elec       q    Type
REMARK                         _______ _______ _______ _____ _____    ______ ____
ROOT
ATOM      1  C   UNL     1       7.407   1.179  -0.336  0.00  0.00    +0.341 C 
ATOM      2  O   UNL     1       6.417   1.878  -0.249  0.00  0.00    -0.245 OA
ENDROOT
BRANCH   1   3
ATOM      3  C   UNL     1       7.293  -0.287  -0.186  0.00  0.00    +0.071 A 
ATOM      4  C   UNL     1       8.438  -1.079  -0.155  0.00  0.00    +0.016 A 
ATOM      5  C   UNL     1       8.327  -2.450  -0.020  0.00  0.00    +0.001 A 
ATOM      6  C   UNL     1       7.082  -3.044   0.088  0.00  0.00    +0.001 A 
ATOM      7  C   UNL     1       5.934  -2.273   0.065  0.00  0.00    +0.014 A 
ATOM      8  C   UNL     1       6.027  -0.890  -0.070  0.00  0.00    +0.051 A 
BRANCH   8   9
ATOM      9  C   UNL     1       4.803  -0.061  -0.096  0.00  0.00    +0.251 C 
ATOM     10  O   UNL     1       4.594   0.686  -1.031  0.00  0.00    -0.270 OA
ATOM     11  N   UNL     1       3.917  -0.135   0.918  0.00  0.00    -0.270 N 
ATOM     12  C   UNL     1       4.220  -0.950   2.097  0.00  0.00    +0.138 C 
BRANCH  11  13
ATOM     13  C   UNL     1       2.711   0.568   0.845  0.00  0.00    +0.036 A 
ATOM     14  C   UNL     1       1.733   0.375   1.813  0.00  0.00    +0.023 A 
ATOM     15  C   UNL     1       0.543   1.071   1.738  0.00  0.00    +0.002 A 
ATOM     16  C   UNL     1       0.323   1.958   0.700  0.00  0.00    +0.000 A 
ATOM     17  C   UNL     1       1.294   2.152  -0.265  0.00  0.00    +0.002 A 
ATOM     18  C   UNL     1       2.487   1.460  -0.196  0.00  0.00    +0.023 A 
ENDBRANCH  11  13
ENDBRANCH   8   9
ENDBRANCH   1   3
BRANCH   1  19
ATOM     19  O   UNL     1       8.609   1.742  -0.568  0.00  0.00    -0.444 OA
BRANCH  19  20
ATOM     20  C   UNL     1       8.646   3.187  -0.704  0.00  0.00    +0.292 C 
BRANCH  20  26
ATOM     21  C   UNL     1      12.927   7.318   0.773  0.00  0.00    +0.129 C 
ATOM     22  N   UNL     1      11.629   6.817   0.313  0.00  0.00    -0.302 N 
ATOM     23  C   UNL     1      11.402   5.490   0.252  0.00  0.00    +0.306 C 
ATOM     24  O   UNL     1      12.274   4.708   0.578  0.00  0.00    -0.252 OA
ATOM     25  N   UNL     1      10.208   5.029  -0.171  0.00  0.00    -0.237 N 
ATOM     26  C   UNL     1       9.981   3.702  -0.232  0.00  0.00    +0.266 C 
ATOM     27  O   UNL     1      10.851   2.922   0.094  0.00  0.00    -0.271 OA
ATOM     28  H   UNL     1      10.840   7.524   0.018  0.00  0.00    +0.150 HD
ATOM     29  H   UNL     1       9.419   5.736  -0.466  0.00  0.00    +0.159 HD
ENDBRANCH  20  26
BRANCH  20  30
ATOM     30  C   UNL     1       8.447   3.560  -2.151  0.00  0.00    +0.002 A 
ATOM     31  C   UNL     1       8.967   2.759  -3.150  0.00  0.00    +0.008 A 
ATOM     32  C   UNL     1       8.780   3.099  -4.476  0.00  0.00    +0.000 A 
ATOM     33  C   UNL     1       8.082   4.246  -4.804  0.00  0.00    +0.000 A 
ATOM     34  C   UNL     1       7.566   5.050  -3.805  0.00  0.00    +0.000 A 
ATOM     35  C   UNL     1       7.749   4.708  -2.478  0.00  0.00    +0.008 A 
ENDBRANCH  20  30
ENDBRANCH  19  20
ENDBRANCH   1  19
TORSDOF 7
