REMARK  Name = ZINC36618846
REMARK  6 active torsions:
REMARK  status: ('A' for Active; 'I' for Inactive)
REMARK    1  A    between atoms: C_1  and  O_2
REMARK    2  A    between atoms: O_2  and  C_3
REMARK    3  A    between atoms: C_8  and  N_9
REMARK    4  A    between atoms: C_13  and  N_17
REMARK    5  A    between atoms: C_20  and  C_23
REMARK    6  A    between atoms: C_20  and  C_29
REMARK                            x       y       z     vdW  Elec       q    Type
REMARK                         _______ _______ _______ _____ _____    ______ ____
ROOT
ATOM      1  N   UNL     1       0.414  -3.083   3.249  0.00  0.00    +0.388 N 
ATOM      2  C   UNL     1       1.497  -3.078   4.239  0.00  0.00    -0.077 C 
ATOM      3  C   UNL     1       0.993  -2.473   5.551  0.00  0.00    -0.002 C 
ATOM      4  C   UNL     1      -0.178  -3.309   6.076  0.00  0.00    +0.046 C 
ATOM      5  C   UNL     1      -1.271  -3.369   5.005  0.00  0.00    -0.002 C 
ATOM      6  C   UNL     1      -0.682  -3.941   3.714  0.00  0.00    -0.077 C 
ATOM      7  H   UNL     1       0.072  -2.142   3.123  0.00  0.00    -0.081 HD
ENDROOT
BRANCH   1  12
ATOM      8  N   UNL     1       1.527  -2.195   0.210  0.00  0.00    -0.208 N 
ATOM      9  C   UNL     1       0.330  -2.663  -0.163  0.00  0.00    +0.225 C 
ATOM     10  O   UNL     1      -0.246  -2.381  -1.192  0.00  0.00    -0.275 OA
ATOM     11  C   UNL     1      -0.192  -3.600   0.904  0.00  0.00    +0.090 C 
ATOM     12  C   UNL     1       0.924  -3.592   1.969  0.00  0.00    +0.029 C 
ATOM     13  C   UNL     1       1.961  -2.656   1.389  0.00  0.00    +0.213 C 
ATOM     14  O   UNL     1       3.016  -2.367   1.911  0.00  0.00    -0.277 OA
BRANCH   8  20
ATOM     15  C   UNL     1       2.109   0.075  -0.408  0.00  0.00    +0.142 A 
ATOM     16  C   UNL     1       2.849   0.955  -1.181  0.00  0.00    +0.047 A 
ATOM     17  C   UNL     1       3.740   0.470  -2.119  0.00  0.00    +0.004 A 
ATOM     18  C   UNL     1       3.896  -0.894  -2.290  0.00  0.00    +0.002 A 
ATOM     19  C   UNL     1       3.162  -1.778  -1.523  0.00  0.00    +0.027 A 
ATOM     20  C   UNL     1       2.270  -1.298  -0.575  0.00  0.00    +0.085 A 
BRANCH  15  22
ATOM     21  C   UNL     1       1.119   1.970   0.633  0.00  0.00    +0.277 C 
ATOM     22  O   UNL     1       1.232   0.551   0.516  0.00  0.00    -0.493 OA
ENDBRANCH  15  22
ENDBRANCH   8  20
ENDBRANCH   1  12
BRANCH   4  23
ATOM     23  C   UNL     1      -0.739  -2.665   7.345  0.00  0.00    +0.004 C 
ATOM     24  C   UNL     1       0.358  -2.597   8.410  0.00  0.00    +0.004 C 
ATOM     25  C   UNL     1      -0.203  -1.952   9.679  0.00  0.00    +0.000 C 
ATOM     26  C   UNL     1      -1.372  -2.790  10.203  0.00  0.00    +0.000 C 
ATOM     27  C   UNL     1      -2.468  -2.857   9.137  0.00  0.00    +0.000 C 
ATOM     28  C   UNL     1      -1.907  -3.502   7.868  0.00  0.00    +0.004 C 
ENDBRANCH   4  23
BRANCH   4  29
ATOM     29  C   UNL     1       0.300  -4.705   6.386  0.00  0.00    +0.217 C 
ATOM     30  O   UNL     1       1.486  -4.956   6.376  0.00  0.00    -0.275 OA
ATOM     31  N   UNL     1      -0.591  -5.673   6.676  0.00  0.00    -0.329 N 
ATOM     32  H   UNL     1      -1.542  -5.493   6.610  0.00  0.00    +0.145 HD
ATOM     33  H   UNL     1      -0.282  -6.551   6.949  0.00  0.00    +0.145 HD
ENDBRANCH   4  29
TORSDOF 5
