REMARK  Name = ZINC14996007
REMARK  9 active torsions:
REMARK  status: ('A' for Active; 'I' for Inactive)
REMARK    1  A    between atoms: C_1  and  C_2
REMARK    2  A    between atoms: C_7  and  C_8
REMARK    3  A    between atoms: C_8  and  C_20
REMARK    4  A    between atoms: N_12  and  C_15
REMARK    5  A    between atoms: C_20  and  C_21
REMARK    6  A    between atoms: N_23  and  C_24
REMARK    7  A    between atoms: N_23  and  C_25
REMARK    8  A    between atoms: C_25  and  C_27
REMARK    9  A    between atoms: C_25  and  C_28
REMARK                            x       y       z     vdW  Elec       q    Type
REMARK                         _______ _______ _______ _____ _____    ______ ____
ROOT
ATOM      1  C   UNL     1       5.729  -0.975  -4.260  0.00  0.00    +0.089 C 
ATOM      2  C   UNL     1       6.163  -2.106  -3.306  0.00  0.00    +0.117 C 
ATOM      3  C   UNL     1       5.354  -3.297  -3.782  0.00  0.00    +0.223 C 
ATOM      4  O   UNL     1       5.390  -4.408  -3.299  0.00  0.00    -0.275 OA
ATOM      5  N   UNL     1       4.594  -2.927  -4.821  0.00  0.00    -0.238 N 
ATOM      6  C   UNL     1       4.726  -1.643  -5.175  0.00  0.00    +0.233 C 
ATOM      7  O   UNL     1       4.135  -1.101  -6.084  0.00  0.00    -0.274 OA
ENDROOT
BRANCH   1  14
ATOM      8  C   UNL     1       7.140  -2.744  -6.057  0.00  0.00    +0.044 C 
ATOM      9  C   UNL     1       7.583  -1.311  -5.908  0.00  0.00    -0.046 A 
ATOM     10  C   UNL     1       8.661  -0.842  -6.635  0.00  0.00    +0.003 A 
ATOM     11  C   UNL     1       9.071   0.471  -6.495  0.00  0.00    +0.000 A 
ATOM     12  C   UNL     1       8.399   1.316  -5.630  0.00  0.00    +0.000 A 
ATOM     13  C   UNL     1       7.318   0.848  -4.908  0.00  0.00    +0.005 A 
ATOM     14  C   UNL     1       6.908  -0.465  -5.048  0.00  0.00    -0.029 A 
ENDBRANCH   1  14
BRANCH   5  15
ATOM     15  C   UNL     1       3.693  -3.852  -5.513  0.00  0.00    +0.084 C 
ATOM     16  C   UNL     1       2.689  -4.460  -4.512  0.00  0.00    +0.023 C 
ATOM     17  C   UNL     1       2.517  -5.924  -4.989  0.00  0.00    +0.002 C 
ATOM     18  C   UNL     1       3.949  -6.308  -5.437  0.00  0.00    +0.002 C 
ATOM     19  C   UNL     1       4.494  -5.027  -6.101  0.00  0.00    +0.023 C 
ENDBRANCH   5  15
BRANCH   1  20
ATOM     20  C   UNL     1       5.072   0.165  -3.480  0.00  0.00    +0.117 C 
BRANCH  20  21
ATOM     21  C   UNL     1       3.898  -0.370  -2.702  0.00  0.00    +0.217 C 
ATOM     22  O   UNL     1       3.615  -1.548  -2.764  0.00  0.00    -0.276 OA
ATOM     23  N   UNL     1       3.162   0.459  -1.936  0.00  0.00    -0.298 N 
ATOM     24  C   UNL     1       3.503   1.882  -1.860  0.00  0.00    +0.132 C 
BRANCH  23  25
ATOM     25  C   UNL     1       2.021  -0.062  -1.179  0.00  0.00    +0.103 C 
ATOM     26  C   UNL     1       1.465   1.038  -0.273  0.00  0.00    +0.033 C 
BRANCH  25  27
ATOM     27  C   UNL     1       0.948  -0.514  -2.136  0.00  0.00    -0.024 A 
ATOM     28  C   UNL     1       0.596   0.286  -3.206  0.00  0.00    +0.009 A 
ATOM     29  C   UNL     1      -0.389  -0.124  -4.085  0.00  0.00    +0.050 A 
ATOM     30  C   UNL     1      -1.026  -1.342  -3.895  0.00  0.00    +0.162 A 
ATOM     31  C   UNL     1      -0.669  -2.148  -2.821  0.00  0.00    +0.162 A 
ATOM     32  C   UNL     1       0.318  -1.729  -1.942  0.00  0.00    +0.055 A 
ATOM     33  O   UNL     1      -1.276  -3.350  -2.620  0.00  0.00    -0.485 OA
ATOM     34  C   UNL     1      -2.517  -3.565  -3.300  0.00  0.00    +0.270 C 
ATOM     35  C   UNL     1      -2.350  -3.118  -4.759  0.00  0.00    +0.270 C 
ATOM     36  O   UNL     1      -1.999  -1.730  -4.764  0.00  0.00    -0.485 OA
ENDBRANCH  25  27
ENDBRANCH  23  25
ENDBRANCH  20  21
ENDBRANCH   1  20
TORSDOF 6
