REMARK  Name = ZINC05553319
REMARK  5 active torsions:
REMARK  status: ('A' for Active; 'I' for Inactive)
REMARK    1  A    between atoms: C_1  and  C_2
REMARK    2  A    between atoms: N_13  and  C_16
REMARK    3  A    between atoms: C_16  and  C_18
REMARK    4  A    between atoms: C_16  and  C_19
REMARK    5  A    between atoms: N_21  and  C_22
REMARK                            x       y       z     vdW  Elec       q    Type
REMARK                         _______ _______ _______ _____ _____    ______ ____
ROOT
ATOM      1  C   UNL     1       7.892  -1.696  -0.060  0.00  0.00    +0.008 C 
ATOM      2  C   UNL     1       6.447  -1.302   0.256  0.00  0.00    -0.009 C 
ATOM      3  C   UNL     1       5.489  -2.156  -0.579  0.00  0.00    +0.008 C 
ATOM      4  C   UNL     1       4.053  -1.951  -0.093  0.00  0.00    +0.037 C 
ATOM      5  C   UNL     1       3.751  -0.455  -0.069  0.00  0.00    -0.023 A 
ATOM      6  C   UNL     1       4.752   0.451  -0.073  0.00  0.00    -0.004 A 
ATOM      7  S   UNL     1       3.944   2.028  -0.043  0.00  0.00    -0.073 S 
ATOM      8  C   UNL     1       2.261   1.464  -0.025  0.00  0.00    +0.116 A 
ATOM      9  C   UNL     1       2.385   0.066  -0.043  0.00  0.00    +0.076 A 
ATOM     10  C   UNL     1       1.153  -0.666  -0.033  0.00  0.00    +0.263 A 
ATOM     11  O   UNL     1       1.157  -1.885  -0.047  0.00  0.00    -0.267 OA
ATOM     12  N   UNL     1      -0.008   0.014  -0.008  0.00  0.00    -0.287 N 
ATOM     13  C   UNL     1      -0.031   1.372   0.007  0.00  0.00    +0.204 A 
ATOM     14  N   UNL     1       1.075   2.067  -0.001  0.00  0.00    -0.230 NA
ATOM     15  C   UNL     1       6.224   0.176  -0.097  0.00  0.00    +0.046 C 
ENDROOT
BRANCH  12  16
ATOM     16  C   UNL     1      -1.273  -0.725   0.003  0.00  0.00    +0.174 C 
ATOM     17  C   UNL     1      -2.096  -0.345  -1.230  0.00  0.00    +0.041 C 
BRANCH  16  18
ATOM     18  C   UNL     1      -2.046  -0.378   1.249  0.00  0.00    +0.240 C 
ATOM     19  O   UNL     1      -1.586   0.409   2.049  0.00  0.00    -0.273 OA
ATOM     20  N   UNL     1      -3.249  -0.942   1.474  0.00  0.00    -0.283 N 
ATOM     21  H   UNL     1      -3.647  -1.521   0.805  0.00  0.00    +0.155 HD
BRANCH  20  22
ATOM     22  C   UNL     1      -3.925  -0.693   2.674  0.00  0.00    +0.052 A 
ATOM     23  C   UNL     1      -3.826   0.550   3.284  0.00  0.00    +0.025 A 
ATOM     24  C   UNL     1      -4.499   0.794   4.465  0.00  0.00    +0.002 A 
ATOM     25  C   UNL     1      -5.262  -0.201   5.047  0.00  0.00    +0.002 A 
ATOM     26  C   UNL     1      -5.360  -1.442   4.446  0.00  0.00    +0.022 A 
ATOM     27  C   UNL     1      -4.694  -1.692   3.261  0.00  0.00    +0.062 A 
ATOM     28 CL   UNL     1      -4.816  -3.251   2.507  0.00  0.00    -0.082 Cl
ENDBRANCH  20  22
ENDBRANCH  16  18
ENDBRANCH  12  16
TORSDOF 3
