REMARK  Name = ZINC58246732
REMARK  11 active torsions:
REMARK  status: ('A' for Active; 'I' for Inactive)
REMARK    1  A    between atoms: C_1  and  C_2
REMARK    2  A    between atoms: C_2  and  C_4
REMARK    3  A    between atoms: C_2  and  N_14
REMARK    4  A    between atoms: C_7  and  C_10
REMARK    5  A    between atoms: C_10  and  C_11
REMARK    6  A    between atoms: C_10  and  C_12
REMARK    7  A    between atoms: C_10  and  C_13
REMARK    8  A    between atoms: C_15  and  C_17
REMARK    9  A    between atoms: C_17  and  C_18
REMARK   10  A    between atoms: C_18  and  C_19
REMARK   11  A    between atoms: C_21  and  C_24
REMARK                            x       y       z     vdW  Elec       q    Type
REMARK                         _______ _______ _______ _____ _____    ______ ____
ROOT
ATOM      1  N   UNL     1       0.688  -0.476  -1.203  0.00  0.00    -0.309 N 
ATOM      2  C   UNL     1       2.031  -0.587  -1.215  0.00  0.00    +0.214 C 
ATOM      3  O   UNL     1       2.672  -0.295  -0.228  0.00  0.00    -0.276 OA
ATOM      4  H   UNL     1       0.175  -0.710  -1.993  0.00  0.00    +0.149 HD
ENDROOT
BRANCH   1   6
ATOM      5  C   UNL     1      -0.019   1.526   0.010  0.00  0.00    +0.033 C 
ATOM      6  C   UNL     1       0.002  -0.004   0.002  0.00  0.00    +0.100 C 
BRANCH   6   7
ATOM      7  C   UNL     1      -1.412  -0.526   0.013  0.00  0.00    -0.027 A 
ATOM      8  C   UNL     1      -2.141  -0.569  -1.161  0.00  0.00    +0.006 A 
ATOM      9  C   UNL     1      -3.438  -1.047  -1.151  0.00  0.00    +0.004 A 
ATOM     10  C   UNL     1      -4.005  -1.483   0.032  0.00  0.00    -0.042 A 
ATOM     11  C   UNL     1      -3.275  -1.441   1.205  0.00  0.00    +0.004 A 
ATOM     12  C   UNL     1      -1.977  -0.966   1.195  0.00  0.00    +0.006 A 
BRANCH  10  13
ATOM     13  C   UNL     1      -5.419  -2.004   0.043  0.00  0.00    -0.013 C 
ATOM     14  C   UNL     1      -5.524  -3.216  -0.885  0.00  0.00    +0.015 C 
ATOM     15  C   UNL     1      -5.800  -2.417   1.466  0.00  0.00    +0.015 C 
ATOM     16  C   UNL     1      -6.370  -0.907  -0.441  0.00  0.00    +0.015 C 
ENDBRANCH  10  13
ENDBRANCH   6   7
ENDBRANCH   1   6
BRANCH   2  17
ATOM     17  C   UNL     1       2.736  -1.073  -2.455  0.00  0.00    +0.105 C 
BRANCH  17  18
ATOM     18  C   UNL     1       4.245  -1.105  -2.204  0.00  0.00    +0.108 C 
BRANCH  18  19
ATOM     19  C   UNL     1       4.951  -1.591  -3.443  0.00  0.00    +0.228 A 
ATOM     20  N   UNL     1       5.390  -0.841  -4.413  0.00  0.00    -0.189 NA
ATOM     21  C   UNL     1       5.968  -1.602  -5.359  0.00  0.00    +0.241 A 
ATOM     22  N   UNL     1       5.896  -2.857  -4.989  0.00  0.00    -0.053 NA
ATOM     23  O   UNL     1       5.236  -2.868  -3.732  0.00  0.00    -0.338 OA
BRANCH  21  24
ATOM     24  C   UNL     1       6.584  -1.103  -6.614  0.00  0.00    +0.222 A 
ATOM     25  N   UNL     1       7.160  -1.862  -7.557  0.00  0.00    -0.212 NA
ATOM     26  H   UNL     1       7.520   0.956  -8.762  0.00  0.00    +0.190 HD
ATOM     27  C   UNL     1       7.599  -1.106  -8.527  0.00  0.00    +0.216 A 
ATOM     28  N   UNL     1       7.313   0.174  -8.226  0.00  0.00    -0.265 N 
ATOM     29  N   UNL     1       6.651   0.155  -6.988  0.00  0.00    -0.149 NA
ENDBRANCH  21  24
ENDBRANCH  18  19
ENDBRANCH  17  18
ENDBRANCH   2  17
TORSDOF 7
