REMARK  Name = ZINC06149231
REMARK  9 active torsions:
REMARK  status: ('A' for Active; 'I' for Inactive)
REMARK    1  A    between atoms: C_1  and  C_2
REMARK    2  A    between atoms: C_2  and  C_3
REMARK    3  A    between atoms: C_3  and  C_4
REMARK    4  A    between atoms: C_3  and  C_5
REMARK    5  A    between atoms: C_3  and  N_6
REMARK    6  A    between atoms: C_7  and  C_11
REMARK    7  A    between atoms: C_11  and  C_13
REMARK    8  A    between atoms: C_11  and  N_67
REMARK    9  A    between atoms: C_30  and  C_33
REMARK                            x       y       z     vdW  Elec       q    Type
REMARK                         _______ _______ _______ _____ _____    ______ ____
ROOT
ATOM      1  C   UNL     1       1.813   3.100  -0.300  0.00  0.00    +0.039 C 
ENDROOT
BRANCH   1   2
ATOM      2  C   UNL     1       1.517   3.592  -1.693  0.00  0.00    +0.011 A 
ATOM      3  C   UNL     1       2.538   3.873  -2.542  0.00  0.00    +0.017 A 
ATOM      4  C   UNL     1       2.219   4.344  -3.889  0.00  0.00    +0.002 A 
ATOM      5  C   UNL     1       3.232   4.643  -4.809  0.00  0.00    +0.059 A 
ATOM      6  C   UNL     1       2.900   5.092  -6.068  0.00  0.00    +0.167 A 
ATOM      7  C   UNL     1       1.556   5.250  -6.429  0.00  0.00    +0.168 A 
ATOM      8  C   UNL     1       0.550   4.955  -5.528  0.00  0.00    +0.075 A 
ATOM      9  C   UNL     1       0.868   4.502  -4.254  0.00  0.00    +0.053 A 
ATOM     10  N   UNL     1      -0.124   4.203  -3.342  0.00  0.00    -0.322 N 
ATOM     11  H   UNL     1      -1.083   4.314  -3.602  0.00  0.00    +0.169 HD
ATOM     12  C   UNL     1       0.181   3.765  -2.108  0.00  0.00    +0.251 A 
ATOM     13  O   UNL     1      -0.721   3.512  -1.327  0.00  0.00    -0.268 OA
ATOM     14  O   UNL     1       1.505   5.703  -7.715  0.00  0.00    -0.453 OA
ATOM     15  C   UNL     1       2.821   6.212  -7.998  0.00  0.00    +0.466 C 
ATOM     16  O   UNL     1       3.680   5.448  -7.131  0.00  0.00    -0.453 OA
ENDBRANCH   1   2
BRANCH   1  22
ATOM     17  C   UNL     1       1.718   5.334   0.637  0.00  0.00    -0.072 C 
ATOM     18  C   UNL     1       0.798   6.268   1.428  0.00  0.00    +0.017 C 
ATOM     19  C   UNL     1       0.493   5.661   2.769  0.00  0.00    -0.048 C 
ATOM     20  C   UNL     1       0.697   4.389   3.036  0.00  0.00    -0.041 C 
ATOM     21  C   UNL     1       1.260   3.422   2.035  0.00  0.00    -0.049 C 
ATOM     22  N   UNL     1       1.129   3.980   0.676  0.00  0.00    +0.392 N 
ATOM     23  H   UNL     1       0.134   4.039   0.432  0.00  0.00    -0.080 HD
BRANCH  19  24
ATOM     24  C   UNL     1      -0.058   6.529   3.831  0.00  0.00    -0.022 A 
ATOM     25  C   UNL     1      -1.318   7.110   3.677  0.00  0.00    +0.011 A 
ATOM     26  C   UNL     1      -1.830   7.914   4.673  0.00  0.00    +0.039 A 
ATOM     27  C   UNL     1      -1.091   8.155   5.821  0.00  0.00    +0.123 A 
ATOM     28  C   UNL     1       0.162   7.585   5.977  0.00  0.00    +0.039 A 
ATOM     29  C   UNL     1       0.681   6.774   4.989  0.00  0.00    +0.011 A 
ATOM     30  F   UNL     1      -1.595   8.948   6.792  0.00  0.00    -0.205 F 
ENDBRANCH  19  24
ENDBRANCH   1  22
BRANCH   1  32
ATOM     31  N   UNL     1       2.036   0.575  -0.020  0.00  0.00    -0.225 N 
ATOM     32  C   UNL     1       1.297   1.693  -0.144  0.00  0.00    +0.143 A 
ATOM     33  N   UNL     1       0.041   1.320  -0.103  0.00  0.00    -0.115 NA
ATOM     34  N   UNL     1       0.011   0.040   0.038  0.00  0.00    -0.023 NA
ATOM     35  N   UNL     1       1.215  -0.413   0.089  0.00  0.00    -0.043 NA
BRANCH  31  36
ATOM     36  C   UNL     1       3.499   0.496  -0.011  0.00  0.00    +0.061 C 
ATOM     37  C   UNL     1       4.051   1.103  -1.302  0.00  0.00    +0.036 C 
ATOM     38  C   UNL     1       4.045   1.271   1.190  0.00  0.00    +0.036 C 
BRANCH  36  40
ATOM     39  C   UNL     1       5.458  -1.051   0.099  0.00  0.00    +0.006 C 
ATOM     40  C   UNL     1       3.930  -0.969   0.089  0.00  0.00    +0.026 C 
ENDBRANCH  36  40
ENDBRANCH  31  36
ENDBRANCH   1  32
TORSDOF 6
