REMARK  Name = ZINC39711064
REMARK  13 active torsions:
REMARK  status: ('A' for Active; 'I' for Inactive)
REMARK    1  A    between atoms: C_1  and  C_2
REMARK    2  A    between atoms: C_4  and  C_41
REMARK    3  A    between atoms: C_9  and  C_14
REMARK    4  A    between atoms: C_14  and  C_16
REMARK    5  A    between atoms: C_14  and  N_26
REMARK    6  A    between atoms: N_21  and  C_22
REMARK    7  A    between atoms: C_22  and  C_23
REMARK    8  A    between atoms: C_22  and  C_24
REMARK    9  A    between atoms: C_22  and  C_25
REMARK   10  A    between atoms: N_26  and  C_27
REMARK   11  A    between atoms: N_26  and  C_35
REMARK   12  A    between atoms: C_27  and  C_28
REMARK   13  A    between atoms: C_35  and  C_36
REMARK                            x       y       z     vdW  Elec       q    Type
REMARK                         _______ _______ _______ _____ _____    ______ ____
ROOT
ATOM      1  C   UNL     1       1.703  -5.657   2.886  0.00  0.00    -0.010 C 
ENDROOT
BRANCH   1  10
ATOM      2  C   UNL     1       2.062  -0.310  -1.835  0.00  0.00    +0.044 C 
ATOM      3  C   UNL     1       1.867  -1.754  -1.449  0.00  0.00    -0.050 A 
ATOM      4  C   UNL     1       2.074  -2.750  -2.403  0.00  0.00    +0.008 A 
ATOM      5  C   UNL     1       1.918  -4.071  -2.128  0.00  0.00    -0.028 A 
ATOM      6  C   UNL     1       1.533  -4.493  -0.843  0.00  0.00    +0.043 A 
ATOM      7  N   UNL     1       1.383  -5.792  -0.585  0.00  0.00    -0.284 N 
ATOM      8  C   UNL     1       1.023  -6.256   0.600  0.00  0.00    +0.223 C 
ATOM      9  O   UNL     1       0.903  -7.454   0.776  0.00  0.00    -0.275 OA
ATOM     10  C   UNL     1       0.762  -5.293   1.736  0.00  0.00    +0.088 C 
ATOM     11  C   UNL     1       0.932  -3.814   1.448  0.00  0.00    -0.006 C 
ATOM     12  C   UNL     1       1.307  -3.462   0.185  0.00  0.00    -0.007 A 
ATOM     13  C   UNL     1       1.498  -2.057  -0.177  0.00  0.00    +0.012 A 
ATOM     14  C   UNL     1       2.159  -5.093  -3.210  0.00  0.00    +0.046 C 
ATOM     15  H   UNL     1       1.546  -6.427  -1.300  0.00  0.00    +0.155 HD
ENDBRANCH   1  10
BRANCH   1  16
ATOM     16  C   UNL     1       3.141  -5.727   2.366  0.00  0.00    +0.183 C 
ATOM     17  N   UNL     1       3.424  -7.055   1.790  0.00  0.00    -0.229 N 
ATOM     18  N   UNL     1       4.458  -7.596   2.564  0.00  0.00    -0.064 NA
ATOM     19  N   UNL     1       4.820  -6.842   3.463  0.00  0.00    -0.061 NA
ATOM     20  N   UNL     1       4.104  -5.635   3.480  0.00  0.00    -0.211 N 
ATOM     21  H   UNL     1       2.983  -7.470   1.032  0.00  0.00    +0.172 HD
BRANCH  20  22
ATOM     22  C   UNL     1       4.274  -4.515   4.409  0.00  0.00    +0.047 C 
ATOM     23  C   UNL     1       3.045  -4.410   5.313  0.00  0.00    +0.033 C 
ATOM     24  C   UNL     1       5.520  -4.749   5.266  0.00  0.00    +0.033 C 
ATOM     25  C   UNL     1       4.437  -3.216   3.617  0.00  0.00    +0.033 C 
ENDBRANCH  20  22
ENDBRANCH   1  16
BRANCH   1  26
ATOM     26  N   UNL     1       1.318  -6.962   3.439  0.00  0.00    +0.392 N 
ATOM     27  H   UNL     1       1.283  -7.645   2.697  0.00  0.00    -0.080 HD
BRANCH  26  28
ATOM     28  C   UNL     1      -0.004  -6.856   4.070  0.00  0.00    -0.040 C 
BRANCH  28  29
ATOM     29  C   UNL     1       0.115  -6.088   5.360  0.00  0.00    -0.046 A 
ATOM     30  C   UNL     1       0.452  -6.746   6.528  0.00  0.00    +0.003 A 
ATOM     31  C   UNL     1       0.562  -6.041   7.712  0.00  0.00    +0.000 A 
ATOM     32  C   UNL     1       0.334  -4.677   7.729  0.00  0.00    +0.001 A 
ATOM     33  C   UNL     1      -0.003  -4.018   6.562  0.00  0.00    +0.020 A 
ATOM     34  C   UNL     1      -0.107  -4.722   5.375  0.00  0.00    +0.042 A 
ATOM     35 CL   UNL     1      -0.524  -3.894   3.908  0.00  0.00    -0.083 Cl
ENDBRANCH  28  29
ENDBRANCH  26  28
BRANCH  26  36
ATOM     36  C   UNL     1       2.307  -7.380   4.442  0.00  0.00    -0.002 C 
BRANCH  36  37
ATOM     37  C   UNL     1       2.121  -8.843   4.752  0.00  0.00    +0.089 A 
ATOM     38  C   UNL     1       2.807  -9.858   4.197  0.00  0.00    +0.042 A 
ATOM     39  C   UNL     1       2.312 -11.051   4.773  0.00  0.00    +0.041 A 
ATOM     40  C   UNL     1       1.354 -10.693   5.647  0.00  0.00    +0.195 A 
ATOM     41  O   UNL     1       1.246  -9.354   5.634  0.00  0.00    -0.470 OA
ENDBRANCH  36  37
ENDBRANCH  26  36
ENDBRANCH   1  26
TORSDOF 8
