REMARK  Name = ZINC61528300
REMARK  7 active torsions:
REMARK  status: ('A' for Active; 'I' for Inactive)
REMARK    1  A    between atoms: C_1  and  N_2
REMARK    2  A    between atoms: N_2  and  C_3
REMARK    3  A    between atoms: C_4  and  C_6
REMARK    4  A    between atoms: C_6  and  N_7
REMARK    5  A    between atoms: C_8  and  C_10
REMARK    6  A    between atoms: C_11  and  C_12
REMARK    7  A    between atoms: C_16  and  N_18
REMARK                            x       y       z     vdW  Elec       q    Type
REMARK                         _______ _______ _______ _____ _____    ______ ____
ROOT
ATOM      1  C   UNL     1      -4.111  -4.543   0.017  0.00  0.00    +0.068 C 
ATOM      2  C   UNL     1      -4.340  -5.872   0.012  0.00  0.00    +0.013 C 
ENDROOT
BRANCH   2   3
ATOM      3  C   UNL     1      -5.720  -6.381   0.022  0.00  0.00    -0.023 A 
ATOM      4  C   UNL     1      -6.798  -5.489   0.032  0.00  0.00    +0.009 A 
ATOM      5  C   UNL     1      -8.089  -5.974   0.041  0.00  0.00    +0.023 A 
ATOM      6  C   UNL     1      -8.319  -7.340   0.042  0.00  0.00    +0.071 A 
ATOM      7  C   UNL     1      -7.257  -8.229   0.033  0.00  0.00    +0.145 A 
ATOM      8  C   UNL     1      -5.961  -7.759   0.017  0.00  0.00    +0.042 A 
ATOM      9 CL   UNL     1      -9.948  -7.941   0.054  0.00  0.00    -0.081 Cl
BRANCH   7  10
ATOM     10  N   UNL     1      -7.514  -9.686   0.035  0.00  0.00    +0.058 N 
ATOM     11  O   UNL     1      -6.587 -10.463   0.027  0.00  0.00    -0.126 OA
ATOM     12  O   UNL     1      -8.649 -10.100   0.044  0.00  0.00    -0.126 OA
ENDBRANCH   7  10
ENDBRANCH   2   3
BRANCH   1  14
ATOM     13  N   UNL     1      -2.510  -2.708   0.011  0.00  0.00    -0.303 N 
ATOM     14  C   UNL     1      -2.738  -4.036   0.006  0.00  0.00    +0.237 C 
ATOM     15  O   UNL     1      -1.802  -4.814  -0.007  0.00  0.00    -0.271 OA
ATOM     16  H   UNL     1      -3.256  -2.087   0.022  0.00  0.00    +0.149 HD
BRANCH  13  17
ATOM     17  C   UNL     1      -1.135  -2.201   0.001  0.00  0.00    +0.200 C 
BRANCH  17  21
ATOM     18  C   UNL     1      -0.018   1.461   0.010  0.00  0.00    +0.131 C 
ATOM     19  N   UNL     1       0.002  -0.004   0.002  0.00  0.00    -0.306 N 
ATOM     20  C   UNL     1       1.281  -0.719  -0.014  0.00  0.00    +0.131 C 
ATOM     21  C   UNL     1      -1.156  -0.694   0.009  0.00  0.00    +0.232 C 
ATOM     22  O   UNL     1      -2.214  -0.102   0.023  0.00  0.00    -0.274 OA
ENDBRANCH  17  21
ENDBRANCH  13  17
ENDBRANCH   1  14
TORSDOF 5
