REMARK  Name = ZINC32500933
REMARK  4 active torsions:
REMARK  status: ('A' for Active; 'I' for Inactive)
REMARK    1  A    between atoms: C_3  and  S_13
REMARK    2  A    between atoms: C_5  and  C_6
REMARK    3  A    between atoms: C_9  and  C_11
REMARK    4  A    between atoms: S_13  and  N_16
REMARK                            x       y       z     vdW  Elec       q    Type
REMARK                         _______ _______ _______ _____ _____    ______ ____
ROOT
ATOM      1  C   UNL     1      -2.304   3.847   5.001  0.00  0.00    +0.057 A 
ATOM      2  C   UNL     1      -2.064   5.046   5.697  0.00  0.00    +0.072 A 
ATOM      3  C   UNL     1      -1.075   5.691   5.045  0.00  0.00    +0.258 A 
ATOM      4  O   UNL     1      -0.696   4.948   3.993  0.00  0.00    -0.432 OA
ATOM      5  C   UNL     1      -1.438   3.824   3.949  0.00  0.00    +0.193 A 
ENDROOT
BRANCH   5   6
ATOM      6  C   UNL     1      -1.328   2.756   2.944  0.00  0.00    +0.284 A 
ATOM      7  N   UNL     1      -2.044   1.653   2.896  0.00  0.00    -0.104 NA
ATOM      8  N   UNL     1      -1.678   0.955   1.879  0.00  0.00    -0.111 NA
ATOM      9  C   UNL     1      -0.718   1.572   1.248  0.00  0.00    +0.232 A 
ATOM     10  O   UNL     1      -0.475   2.723   1.900  0.00  0.00    -0.417 OA
BRANCH   9  11
ATOM     11  C   UNL     1      -0.013   1.086   0.008  0.00  0.00    +0.206 C 
ATOM     12 CL   UNL     1      -0.885   1.683  -1.453  0.00  0.00    -0.115 Cl
ENDBRANCH   9  11
ENDBRANCH   5   6
BRANCH   3  13
ATOM     13  S   UNL     1      -0.388   7.248   5.502  0.00  0.00    +0.089 S 
ATOM     14  O   UNL     1       0.172   7.807   4.322  0.00  0.00    -0.150 OA
ATOM     15  O   UNL     1      -1.380   7.920   6.266  0.00  0.00    -0.150 OA
BRANCH  13  16
ATOM     16  N   UNL     1       0.875   6.944   6.529  0.00  0.00    -0.201 NA
ATOM     17  H   UNL     1       1.333   7.895   6.838  0.00  0.00    +0.144 HD
ATOM     18  H   UNL     1       1.626   6.327   6.013  0.00  0.00    +0.144 HD
ENDBRANCH  13  16
ENDBRANCH   3  13
TORSDOF 4
