REMARK  Name = ZINC06014992
REMARK  12 active torsions:
REMARK  status: ('A' for Active; 'I' for Inactive)
REMARK    1  A    between atoms: C_1  and  C_2
REMARK    2  A    between atoms: C_2  and  C_3
REMARK    3  A    between atoms: C_2  and  C_4
REMARK    4  A    between atoms: C_2  and  N_5
REMARK    5  A    between atoms: C_6  and  C_10
REMARK    6  A    between atoms: C_10  and  C_12
REMARK    7  A    between atoms: C_10  and  N_69
REMARK    8  A    between atoms: C_16  and  O_26
REMARK    9  A    between atoms: C_17  and  O_24
REMARK   10  A    between atoms: O_24  and  C_25
REMARK   11  A    between atoms: O_26  and  C_27
REMARK   12  A    between atoms: C_30  and  C_33
REMARK                            x       y       z     vdW  Elec       q    Type
REMARK                         _______ _______ _______ _____ _____    ______ ____
ROOT
ATOM      1  C   UNL     1      -4.779   3.715  -0.118  0.00  0.00    +0.039 C 
ENDROOT
BRANCH   1   2
ATOM      2  C   UNL     1      -3.476   2.979  -0.294  0.00  0.00    +0.011 A 
ATOM      3  C   UNL     1      -2.315   3.675  -0.391  0.00  0.00    +0.017 A 
ATOM      4  C   UNL     1      -1.067   2.933  -0.566  0.00  0.00    +0.002 A 
ATOM      5  C   UNL     1       0.159   3.600  -0.688  0.00  0.00    +0.059 A 
ATOM      6  C   UNL     1       1.317   2.872  -0.853  0.00  0.00    +0.162 A 
ATOM      7  C   UNL     1       1.271   1.475  -0.898  0.00  0.00    +0.163 A 
ATOM      8  C   UNL     1       0.067   0.807  -0.779  0.00  0.00    +0.075 A 
ATOM      9  C   UNL     1      -1.111   1.526  -0.618  0.00  0.00    +0.053 A 
ATOM     10  N   UNL     1      -2.325   0.879  -0.503  0.00  0.00    -0.322 N 
ATOM     11  H   UNL     1      -2.355  -0.120  -0.536  0.00  0.00    +0.169 HD
ATOM     12  C   UNL     1      -3.466   1.571  -0.347  0.00  0.00    +0.251 A 
ATOM     13  O   UNL     1      -4.520   0.966  -0.249  0.00  0.00    -0.268 OA
BRANCH   7  14
ATOM     14  O   UNL     1       2.420   0.768  -1.061  0.00  0.00    -0.491 OA
ATOM     15  C   UNL     1       2.305  -0.656  -1.100  0.00  0.00    +0.277 C 
ENDBRANCH   7  14
BRANCH   6  16
ATOM     16  O   UNL     1       2.510   3.515  -0.971  0.00  0.00    -0.491 OA
ATOM     17  C   UNL     1       2.485   4.943  -0.916  0.00  0.00    +0.277 C 
ENDBRANCH   6  16
ENDBRANCH   1   2
BRANCH   1  23
ATOM     18  C   UNL     1      -6.683   3.997   1.355  0.00  0.00    -0.072 C 
ATOM     19  C   UNL     1      -7.511   3.253   2.407  0.00  0.00    +0.017 C 
ATOM     20  C   UNL     1      -6.632   2.872   3.566  0.00  0.00    -0.048 C 
ATOM     21  C   UNL     1      -5.320   2.870   3.492  0.00  0.00    -0.041 C 
ATOM     22  C   UNL     1      -4.569   3.254   2.249  0.00  0.00    -0.049 C 
ATOM     23  N   UNL     1      -5.471   3.197   1.084  0.00  0.00    +0.392 N 
ATOM     24  H   UNL     1      -5.744   2.221   0.918  0.00  0.00    -0.080 HD
BRANCH  20  25
ATOM     25  C   UNL     1      -7.271   2.484   4.841  0.00  0.00    -0.022 A 
ATOM     26  C   UNL     1      -8.058   1.334   4.909  0.00  0.00    +0.011 A 
ATOM     27  C   UNL     1      -8.647   0.973   6.103  0.00  0.00    +0.039 A 
ATOM     28  C   UNL     1      -8.468   1.757   7.231  0.00  0.00    +0.123 A 
ATOM     29  C   UNL     1      -7.691   2.904   7.168  0.00  0.00    +0.039 A 
ATOM     30  C   UNL     1      -7.093   3.270   5.981  0.00  0.00    +0.011 A 
ATOM     31  F   UNL     1      -9.051   1.403   8.397  0.00  0.00    -0.205 F 
ENDBRANCH  20  25
ENDBRANCH   1  23
BRANCH   1  33
ATOM     32  N   UNL     1      -6.000   4.395  -2.252  0.00  0.00    -0.225 N 
ATOM     33  C   UNL     1      -5.654   3.484  -1.324  0.00  0.00    +0.143 A 
ATOM     34  N   UNL     1      -6.220   2.355  -1.675  0.00  0.00    -0.115 NA
ATOM     35  N   UNL     1      -6.886   2.564  -2.758  0.00  0.00    -0.023 NA
ATOM     36  N   UNL     1      -6.753   3.795  -3.111  0.00  0.00    -0.043 NA
BRANCH  32  38
ATOM     37  C   UNL     1      -4.072   5.898  -2.299  0.00  0.00    +0.036 C 
ATOM     38  C   UNL     1      -5.598   5.803  -2.281  0.00  0.00    +0.059 C 
ATOM     39  C   UNL     1      -6.165   6.469  -3.537  0.00  0.00    +0.036 C 
ATOM     40  C   UNL     1      -6.139   6.514  -1.038  0.00  0.00    +0.036 C 
ENDBRANCH  32  38
ENDBRANCH   1  33
TORSDOF 7
