REMARK  Name = ZINC38627170
REMARK  9 active torsions:
REMARK  status: ('A' for Active; 'I' for Inactive)
REMARK    1  A    between atoms: C_1  and  O_2
REMARK    2  A    between atoms: O_2  and  C_3
REMARK    3  A    between atoms: C_7  and  N_17
REMARK    4  A    between atoms: C_8  and  C_13
REMARK    5  A    between atoms: C_13  and  O_15
REMARK    6  A    between atoms: O_15  and  C_16
REMARK    7  A    between atoms: C_18  and  C_20
REMARK    8  A    between atoms: C_20  and  N_21
REMARK    9  A    between atoms: N_24  and  C_27
REMARK                            x       y       z     vdW  Elec       q    Type
REMARK                         _______ _______ _______ _____ _____    ______ ____
ROOT
ATOM      1  N   UNL     1       2.509  -3.016   5.243  0.00  0.00    -0.288 N 
ATOM      2  C   UNL     1       2.848  -1.887   5.895  0.00  0.00    +0.200 C 
ATOM      3  O   UNL     1       2.702  -0.810   5.357  0.00  0.00    -0.278 OA
ATOM      4  H   UNL     1       2.574  -3.874   5.692  0.00  0.00    +0.155 HD
ENDROOT
BRANCH   1   9
ATOM      5  C   UNL     1       1.179  -5.753   1.015  0.00  0.00    +0.122 A 
ATOM      6  C   UNL     1       1.614  -6.248   2.254  0.00  0.00    +0.046 A 
ATOM      7  C   UNL     1       1.930  -5.420   3.277  0.00  0.00    +0.015 A 
ATOM      8  C   UNL     1       1.824  -4.018   3.105  0.00  0.00    +0.018 A 
ATOM      9  C   UNL     1       2.073  -2.954   3.953  0.00  0.00    +0.053 C 
ATOM     10  C   UNL     1       1.761  -1.709   3.155  0.00  0.00    +0.234 C 
ATOM     11  N   UNL     1       1.331  -2.173   1.831  0.00  0.00    -0.367 N 
ATOM     12  C   UNL     1       1.369  -3.491   1.806  0.00  0.00    +0.048 A 
ATOM     13  C   UNL     1       1.061  -4.416   0.780  0.00  0.00    +0.071 A 
ATOM     14  H   UNL     1       1.063  -1.603   1.094  0.00  0.00    +0.161 HD
BRANCH   5  16
ATOM     15  C   UNL     1       1.016  -8.018   0.319  0.00  0.00    +0.277 C 
ATOM     16  O   UNL     1       0.875  -6.627   0.023  0.00  0.00    -0.495 OA
ENDBRANCH   5  16
BRANCH  10  17
ATOM     17  C   UNL     1       0.653  -0.931   3.818  0.00  0.00    +0.335 C 
ATOM     18  O   UNL     1      -0.481  -1.347   3.784  0.00  0.00    -0.248 OA
BRANCH  17  19
ATOM     19  O   UNL     1       0.926   0.223   4.446  0.00  0.00    -0.466 OA
ATOM     20  C   UNL     1      -0.172   0.907   5.053  0.00  0.00    +0.280 C 
ENDBRANCH  17  19
ENDBRANCH  10  17
ENDBRANCH   1   9
BRANCH   2  21
ATOM     21  C   UNL     1       3.409  -1.962   7.292  0.00  0.00    +0.019 C 
BRANCH  21  22
ATOM     22  N   UNL     1       3.697  -0.606   7.777  0.00  0.00    +0.387 N 
ATOM     23  C   UNL     1       4.755  -0.007   6.954  0.00  0.00    -0.059 C 
ATOM     24  C   UNL     1       4.976   1.446   7.386  0.00  0.00    +0.086 C 
ATOM     25  N   UNL     1       5.246   1.468   8.832  0.00  0.00    -0.331 N 
ATOM     26  C   UNL     1       4.319   0.749   9.721  0.00  0.00    +0.086 C 
ATOM     27  C   UNL     1       4.130  -0.671   9.179  0.00  0.00    -0.059 C 
ATOM     28  H   UNL     1       2.863  -0.042   7.710  0.00  0.00    -0.081 HD
BRANCH  25  29
ATOM     29  C   UNL     1       6.352   2.150   9.347  0.00  0.00    +0.065 A 
ATOM     30  C   UNL     1       6.236   3.483   9.718  0.00  0.00    +0.026 A 
ATOM     31  C   UNL     1       7.331   4.155  10.227  0.00  0.00    +0.002 A 
ATOM     32  C   UNL     1       8.542   3.503  10.367  0.00  0.00    +0.003 A 
ATOM     33  C   UNL     1       8.663   2.175   9.998  0.00  0.00    +0.040 A 
ATOM     34  C   UNL     1       7.570   1.495   9.494  0.00  0.00    +0.144 A 
ATOM     35  F   UNL     1       7.686   0.196   9.139  0.00  0.00    -0.204 F 
ENDBRANCH  25  29
ENDBRANCH  21  22
ENDBRANCH   2  21
TORSDOF 7
