REMARK  Name = ZINC42480591
REMARK  3 active torsions:
REMARK  status: ('A' for Active; 'I' for Inactive)
REMARK    1  A    between atoms: C_1  and  C_2
REMARK    2  A    between atoms: C_7  and  C_10
REMARK    3  A    between atoms: N_12  and  C_13
REMARK                            x       y       z     vdW  Elec       q    Type
REMARK                         _______ _______ _______ _____ _____    ______ ____
ROOT
ATOM      1  C   UNL     1      -2.976  -5.220   0.063  0.00  0.00    +0.264 C 
ATOM      2  O   UNL     1      -2.724  -6.409   0.119  0.00  0.00    -0.268 OA
ATOM      3  N   UNL     1      -4.257  -4.806   0.001  0.00  0.00    -0.299 N 
ATOM      4  H   UNL     1      -4.459  -3.858  -0.044  0.00  0.00    +0.150 HD
ENDROOT
BRANCH   1  11
ATOM      5  C   UNL     1      -0.016   1.501  -0.101  0.00  0.00    +0.109 C 
ATOM      6  C   UNL     1       0.003  -0.005  -0.041  0.00  0.00    +0.216 C 
ATOM      7  O   UNL     1       1.060  -0.596   0.015  0.00  0.00    -0.276 OA
ATOM      8  N   UNL     1      -1.155  -0.695  -0.050  0.00  0.00    -0.265 N 
ATOM      9  C   UNL     1      -1.137  -2.083   0.006  0.00  0.00    +0.165 A 
ATOM     10  N   UNL     1      -2.148  -2.927   0.002  0.00  0.00    -0.220 NA
ATOM     11  C   UNL     1      -1.883  -4.235   0.063  0.00  0.00    +0.135 A 
ATOM     12  C   UNL     1      -0.580  -4.643   0.126  0.00  0.00    +0.081 A 
ATOM     13  S   UNL     1       0.262  -3.186   0.092  0.00  0.00    -0.060 S 
ATOM     14  H   UNL     1      -2.001  -0.222  -0.095  0.00  0.00    +0.157 HD
ENDBRANCH   1  11
BRANCH   3  15
ATOM     15  C   UNL     1      -5.345  -5.787   0.000  0.00  0.00    +0.159 C 
ATOM     16  C   UNL     1      -6.639  -5.120  -0.474  0.00  0.00    +0.032 C 
ATOM     17  C   UNL     1      -6.704  -3.678  -0.004  0.00  0.00    +0.004 C 
ATOM     18  C   UNL     1      -6.830  -3.529   1.501  0.00  0.00    +0.019 C 
ATOM     19  C   UNL     1      -5.559  -4.007   2.205  0.00  0.00    +0.104 C 
ATOM     20  N   UNL     1      -5.662  -5.458   2.429  0.00  0.00    -0.314 N 
ATOM     21  C   UNL     1      -5.557  -6.312   1.405  0.00  0.00    +0.233 C 
ATOM     22  O   UNL     1      -5.638  -7.506   1.598  0.00  0.00    -0.274 OA
ATOM     23  H   UNL     1      -5.804  -5.799   3.326  0.00  0.00    +0.149 HD
ENDBRANCH   3  15
TORSDOF 2
