REMARK  Name = ZINC23590774
REMARK  9 active torsions:
REMARK  status: ('A' for Active; 'I' for Inactive)
REMARK    1  A    between atoms: C_1  and  C_2
REMARK    2  A    between atoms: C_11  and  N_27
REMARK    3  A    between atoms: C_13  and  S_15
REMARK    4  A    between atoms: S_15  and  C_16
REMARK    5  A    between atoms: C_16  and  C_17
REMARK    6  A    between atoms: N_22  and  C_23
REMARK    7  A    between atoms: C_23  and  C_24
REMARK    8  A    between atoms: C_23  and  C_25
REMARK    9  A    between atoms: C_23  and  C_26
REMARK                            x       y       z     vdW  Elec       q    Type
REMARK                         _______ _______ _______ _____ _____    ______ ____
ROOT
ATOM      1  C   UNL     1      -5.010   3.541  -2.211  0.00  0.00    +0.008 C 
ATOM      2  C   UNL     1      -3.576   3.041  -2.028  0.00  0.00    -0.009 C 
ATOM      3  C   UNL     1      -2.884   3.853  -0.930  0.00  0.00    +0.008 C 
ATOM      4  C   UNL     1      -1.390   3.532  -0.908  0.00  0.00    +0.037 C 
ATOM      5  C   UNL     1      -1.212   2.019  -0.819  0.00  0.00    -0.025 A 
ATOM      6  C   UNL     1      -2.225   1.187  -1.131  0.00  0.00    -0.004 A 
ATOM      7  S   UNL     1      -1.577  -0.445  -0.886  0.00  0.00    -0.073 S 
ATOM      8  C   UNL     1       0.058  -0.006  -0.357  0.00  0.00    +0.115 A 
ATOM      9  C   UNL     1       0.045   1.402  -0.387  0.00  0.00    +0.051 A 
ATOM     10  C   UNL     1       1.258   2.036   0.001  0.00  0.00    +0.129 A 
ATOM     11  N   UNL     1       2.292   1.290   0.355  0.00  0.00    -0.207 NA
ATOM     12  C   UNL     1       2.236  -0.036   0.362  0.00  0.00    +0.191 A 
ATOM     13  N   UNL     1       1.131  -0.680   0.009  0.00  0.00    -0.214 NA
ATOM     14  C   UNL     1      -3.601   1.564  -1.592  0.00  0.00    +0.046 C 
ENDROOT
BRANCH  10  15
ATOM     15  N   UNL     1       1.356   3.415   0.008  0.00  0.00    -0.343 N 
ATOM     16  H   UNL     1       2.297   3.898   0.309  0.00  0.00    +0.144 HD
ATOM     17  H   UNL     1       0.493   4.029  -0.288  0.00  0.00    +0.144 HD
ENDBRANCH  10  15
BRANCH  12  18
ATOM     18  S   UNL     1       3.657  -0.959   0.847  0.00  0.00    -0.077 S 
BRANCH  18  19
ATOM     19  C   UNL     1       4.805   0.395   1.201  0.00  0.00    +0.173 C 
BRANCH  19  20
ATOM     20  C   UNL     1       6.128  -0.172   1.647  0.00  0.00    +0.231 C 
ATOM     21  O   UNL     1       6.279  -1.373   1.719  0.00  0.00    -0.274 OA
ATOM     22  N   UNL     1       7.143   0.655   1.966  0.00  0.00    -0.239 N 
ATOM     23  C   UNL     1       8.326   0.148   2.366  0.00  0.00    +0.306 C 
ATOM     24  O   UNL     1       8.477  -1.056   2.438  0.00  0.00    -0.252 OA
ATOM     25  N   UNL     1       9.340   0.976   2.685  0.00  0.00    -0.294 N 
ATOM     26  H   UNL     1       7.005   1.745   1.901  0.00  0.00    +0.159 HD
ATOM     27  H   UNL     1       9.203   2.065   2.619  0.00  0.00    +0.151 HD
BRANCH  25  28
ATOM     28  C   UNL     1      10.626   0.424   3.119  0.00  0.00    +0.028 C 
ATOM     29  C   UNL     1      11.204  -0.458   2.010  0.00  0.00    +0.031 C 
ATOM     30  C   UNL     1      11.597   1.569   3.418  0.00  0.00    +0.031 C 
ATOM     31  C   UNL     1      10.421  -0.414   4.382  0.00  0.00    +0.031 C 
ENDBRANCH  25  28
ENDBRANCH  19  20
ENDBRANCH  18  19
ENDBRANCH  12  18
TORSDOF 5
