REMARK  Name = ZINC13065375
REMARK  10 active torsions:
REMARK  status: ('A' for Active; 'I' for Inactive)
REMARK    1  A    between atoms: C_1  and  O_2
REMARK    2  A    between atoms: O_2  and  C_3
REMARK    3  A    between atoms: C_6  and  C_9
REMARK    4  A    between atoms: C_9  and  N_64
REMARK    5  A    between atoms: C_10  and  C_11
REMARK    6  A    between atoms: C_10  and  N_64
REMARK    7  A    between atoms: C_26  and  C_27
REMARK    8  A    between atoms: C_26  and  N_64
REMARK    9  A    between atoms: N_31  and  C_32
REMARK   10  A    between atoms: C_32  and  C_33
REMARK                            x       y       z     vdW  Elec       q    Type
REMARK                         _______ _______ _______ _____ _____    ______ ____
ROOT
ATOM      1  N   UNL     1      -0.070  -0.785   1.839  0.00  0.00    +0.390 N 
ATOM      2  H   UNL     1       0.185   0.188   1.633  0.00  0.00    -0.080 HD
ENDROOT
BRANCH   1   3
ATOM      3  C   UNL     1       0.169  -1.051   3.273  0.00  0.00    -0.042 C 
BRANCH   3   7
ATOM      4  C   UNL     1       4.064   0.373   4.304  0.00  0.00    +0.120 A 
ATOM      5  C   UNL     1       2.988   1.248   4.282  0.00  0.00    +0.046 A 
ATOM      6  C   UNL     1       1.730   0.785   3.948  0.00  0.00    +0.005 A 
ATOM      7  C   UNL     1       1.542  -0.549   3.637  0.00  0.00    -0.064 A 
ATOM      8  C   UNL     1       2.612  -1.424   3.664  0.00  0.00    +0.005 A 
ATOM      9  C   UNL     1       3.873  -0.965   3.992  0.00  0.00    +0.046 A 
BRANCH   4  11
ATOM     10  C   UNL     1       6.382  -0.104   4.527  0.00  0.00    +0.277 C 
ATOM     11  O   UNL     1       5.303   0.826   4.632  0.00  0.00    -0.495 OA
ENDBRANCH   4  11
ENDBRANCH   3   7
ENDBRANCH   1   3
BRANCH   1  12
ATOM     12  C   UNL     1       0.762  -1.685   1.013  0.00  0.00    -0.036 C 
BRANCH  12  13
ATOM     13  C   UNL     1       0.864  -1.109  -0.376  0.00  0.00    +0.001 A 
ATOM     14  C   UNL     1       1.901  -0.294  -0.696  0.00  0.00    +0.017 A 
ATOM     15  C   UNL     1       1.972   0.248  -2.052  0.00  0.00    +0.002 A 
ATOM     16  C   UNL     1       3.021   1.092  -2.438  0.00  0.00    +0.059 A 
ATOM     17  C   UNL     1       3.062   1.587  -3.723  0.00  0.00    +0.167 A 
ATOM     18  C   UNL     1       2.059   1.249  -4.641  0.00  0.00    +0.168 A 
ATOM     19  C   UNL     1       1.020   0.416  -4.268  0.00  0.00    +0.075 A 
ATOM     20  C   UNL     1       0.965  -0.092  -2.976  0.00  0.00    +0.053 A 
ATOM     21  N   UNL     1      -0.064  -0.925  -2.587  0.00  0.00    -0.322 N 
ATOM     22  H   UNL     1      -0.757  -1.158  -3.224  0.00  0.00    +0.169 HD
ATOM     23  C   UNL     1      -0.116  -1.423  -1.340  0.00  0.00    +0.251 A 
ATOM     24  O   UNL     1      -1.037  -2.161  -1.032  0.00  0.00    -0.268 OA
ATOM     25  O   UNL     1       2.334   1.864  -5.827  0.00  0.00    -0.453 OA
ATOM     26  C   UNL     1       3.720   2.245  -5.753  0.00  0.00    +0.466 C 
ATOM     27  O   UNL     1       3.957   2.411  -4.343  0.00  0.00    -0.453 OA
ENDBRANCH  12  13
ENDBRANCH   1  12
BRANCH   1  28
ATOM     28  C   UNL     1      -1.500  -0.984   1.520  0.00  0.00    +0.001 C 
BRANCH  28  29
ATOM     29  C   UNL     1      -2.309   0.064   2.239  0.00  0.00    +0.135 A 
ATOM     30  N   UNL     1      -2.773  -0.009   3.463  0.00  0.00    -0.115 NA
ATOM     31  N   UNL     1      -3.417   1.079   3.710  0.00  0.00    -0.023 NA
ATOM     32  N   UNL     1      -3.371   1.847   2.677  0.00  0.00    -0.044 NA
ATOM     33  N   UNL     1      -2.694   1.257   1.750  0.00  0.00    -0.227 N 
BRANCH  33  34
ATOM     34  C   UNL     1      -2.404   1.785   0.415  0.00  0.00    +0.182 C 
BRANCH  34  35
ATOM     35  C   UNL     1      -1.222   2.717   0.489  0.00  0.00    -0.026 A 
ATOM     36  C   UNL     1       0.062   2.210   0.431  0.00  0.00    +0.005 A 
ATOM     37  C   UNL     1       1.146   3.065   0.493  0.00  0.00    +0.000 A 
ATOM     38  C   UNL     1       0.946   4.427   0.618  0.00  0.00    +0.000 A 
ATOM     39  C   UNL     1      -0.339   4.934   0.681  0.00  0.00    +0.000 A 
ATOM     40  C   UNL     1      -1.423   4.079   0.619  0.00  0.00    +0.005 A 
ENDBRANCH  34  35
ENDBRANCH  33  34
ENDBRANCH  28  29
ENDBRANCH   1  28
TORSDOF 9
