REMARK  Name = ZINC39521658
REMARK  9 active torsions:
REMARK  status: ('A' for Active; 'I' for Inactive)
REMARK    1  A    between atoms: C_1  and  C_2
REMARK    2  A    between atoms: C_2  and  C_3
REMARK    3  A    between atoms: C_2  and  S_4
REMARK    4  A    between atoms: S_4  and  C_7
REMARK    5  A    between atoms: N_13  and  C_14
REMARK    6  A    between atoms: C_19  and  O_20
REMARK    7  A    between atoms: C_24  and  S_27
REMARK    8  A    between atoms: S_27  and  O_30
REMARK    9  A    between atoms: O_30  and  C_31
REMARK                            x       y       z     vdW  Elec       q    Type
REMARK                         _______ _______ _______ _____ _____    ______ ____
ROOT
ATOM      1  C   UNL     1      -1.254  -2.321   0.040  0.00  0.00    +0.217 C 
ATOM      2  C   UNL     1      -2.539  -3.127  -0.172  0.00  0.00    +0.046 C 
ATOM      3  C   UNL     1      -2.252  -4.611   0.068  0.00  0.00    +0.006 C 
ATOM      4  C   UNL     1      -1.787  -4.816   1.512  0.00  0.00    +0.026 C 
ATOM      5  C   UNL     1      -0.495  -4.028   1.743  0.00  0.00    +0.039 C 
ATOM      6  N   UNL     1      -0.717  -2.624   1.374  0.00  0.00    -0.300 N 
ATOM      7  C   UNL     1      -0.098  -4.113   3.217  0.00  0.00    +0.026 C 
ATOM      8  C   UNL     1       0.135  -5.577   3.598  0.00  0.00    +0.004 C 
ATOM      9  C   UNL     1       1.254  -6.157   2.732  0.00  0.00    +0.030 C 
ATOM     10  C   UNL     1       0.854  -6.073   1.257  0.00  0.00    +0.173 C 
ATOM     11  C   UNL     1       0.622  -4.609   0.875  0.00  0.00    +0.055 C 
ENDROOT
BRANCH   6  12
ATOM     12  C   UNL     1      -0.426  -1.594   2.277  0.00  0.00    +0.074 A 
ATOM     13  C   UNL     1      -1.407  -1.129   3.140  0.00  0.00    +0.027 A 
ATOM     14  C   UNL     1      -1.117  -0.112   4.031  0.00  0.00    +0.002 A 
ATOM     15  C   UNL     1       0.148   0.443   4.064  0.00  0.00    +0.004 A 
ATOM     16  C   UNL     1       1.131  -0.016   3.206  0.00  0.00    +0.047 A 
ATOM     17  C   UNL     1       0.851  -1.038   2.314  0.00  0.00    +0.138 A 
BRANCH  17  18
ATOM     18  O   UNL     1       1.818  -1.493   1.473  0.00  0.00    -0.505 OA
ATOM     19  H   UNL     1       1.906  -0.978   0.660  0.00  0.00    +0.292 HD
ENDBRANCH  17  18
ENDBRANCH   6  12
BRANCH   1  20
ATOM     20  S   UNL     1      -1.621  -0.549  -0.080  0.00  0.00    -0.010 S 
ATOM     21  O   UNL     1      -0.410   0.174   0.097  0.00  0.00    -0.172 OA
ATOM     22  O   UNL     1      -2.727  -0.260   0.764  0.00  0.00    -0.172 OA
BRANCH  20  24
ATOM     23  C   UNL     1      -2.553   1.089  -2.063  0.00  0.00    +0.031 C 
ATOM     24  C   UNL     1      -2.152  -0.365  -1.804  0.00  0.00    +0.126 C 
ATOM     25  C   UNL     1      -1.001  -0.750  -2.736  0.00  0.00    +0.031 C 
ENDBRANCH  20  24
ENDBRANCH   1  20
BRANCH  10  26
ATOM     26  S   UNL     1       2.181  -6.762   0.230  0.00  0.00    +0.124 S 
ATOM     27  O   UNL     1       1.755  -6.856  -1.122  0.00  0.00    -0.136 OA
ATOM     28  O   UNL     1       3.422  -6.152   0.559  0.00  0.00    -0.136 OA
BRANCH  26  29
ATOM     29  O   UNL     1       2.324  -8.205   0.693  0.00  0.00    -0.346 OA
BRANCH  29  30
ATOM     30  C   UNL     1       1.331  -9.026   0.259  0.00  0.00    +0.156 A 
ATOM     31  C   UNL     1       0.182  -9.188   1.019  0.00  0.00    +0.048 A 
ATOM     32  C   UNL     1      -0.826 -10.023   0.575  0.00  0.00    +0.004 A 
ATOM     33  C   UNL     1      -0.689 -10.695  -0.625  0.00  0.00    +0.000 A 
ATOM     34  C   UNL     1       0.455 -10.536  -1.384  0.00  0.00    +0.004 A 
ATOM     35  C   UNL     1       1.463  -9.698  -0.948  0.00  0.00    +0.048 A 
ENDBRANCH  29  30
ENDBRANCH  26  29
ENDBRANCH  10  26
TORSDOF 7
