REMARK  Name = ZINC16881545
REMARK  10 active torsions:
REMARK  status: ('A' for Active; 'I' for Inactive)
REMARK    1  A    between atoms: C_1  and  N_2
REMARK    2  A    between atoms: C_3  and  N_27
REMARK    3  A    between atoms: C_4  and  C_11
REMARK    4  A    between atoms: N_7  and  C_10
REMARK    5  A    between atoms: C_11  and  C_13
REMARK    6  A    between atoms: C_13  and  C_25
REMARK    7  A    between atoms: C_14  and  C_15
REMARK    8  A    between atoms: C_20  and  O_21
REMARK    9  A    between atoms: O_21  and  C_22
REMARK   10  A    between atoms: C_22  and  C_23
REMARK                            x       y       z     vdW  Elec       q    Type
REMARK                         _______ _______ _______ _____ _____    ______ ____
ROOT
ATOM      1  C   UNL     1       4.649  -1.013  -4.472  0.00  0.00    +0.212 C 
ATOM      2  O   UNL     1       4.439   0.186  -4.444  0.00  0.00    -0.286 OA
ENDROOT
BRANCH   1   6
ATOM      3  C   UNL     1       9.262  -1.530  -6.167  0.00  0.00    +0.155 C 
ATOM      4  N   UNL     1       7.828  -1.819  -6.258  0.00  0.00    -0.284 N 
ATOM      5  C   UNL     1       6.970  -1.279  -5.340  0.00  0.00    +0.116 A 
ATOM      6  C   UNL     1       5.602  -1.568  -5.437  0.00  0.00    +0.125 A 
ATOM      7  C   UNL     1       5.160  -2.407  -6.496  0.00  0.00    +0.269 A 
ATOM      8  O   UNL     1       3.979  -2.678  -6.615  0.00  0.00    -0.267 OA
ATOM      9  N   UNL     1       6.064  -2.900  -7.366  0.00  0.00    -0.263 N 
ATOM     10  C   UNL     1       7.370  -2.608  -7.245  0.00  0.00    +0.333 A 
ATOM     11  O   UNL     1       8.157  -3.070  -8.047  0.00  0.00    -0.246 OA
ATOM     12  C   UNL     1       5.616  -3.766  -8.460  0.00  0.00    +0.157 C 
BRANCH   5  13
ATOM     13  N   UNL     1       7.438  -0.475  -4.345  0.00  0.00    -0.344 N 
ATOM     14  H   UNL     1       6.837  -0.165  -3.649  0.00  0.00    +0.144 HD
ATOM     15  H   UNL     1       8.371  -0.213  -4.332  0.00  0.00    +0.144 HD
ENDBRANCH   5  13
ENDBRANCH   1   6
BRANCH   1  16
ATOM     16  C   UNL     1       3.945  -1.906  -3.536  0.00  0.00    +0.100 C 
ATOM     17  C   UNL     1       2.973  -1.400  -2.702  0.00  0.00    +0.034 C 
BRANCH  17  18
ATOM     18  C   UNL     1       2.165  -2.308  -1.885  0.00  0.00    +0.018 A 
ATOM     19  C   UNL     1       1.730  -3.533  -2.410  0.00  0.00    +0.011 A 
ATOM     20  C   UNL     1       0.966  -4.377  -1.637  0.00  0.00    +0.001 A 
ATOM     21  C   UNL     1       0.629  -4.026  -0.339  0.00  0.00    +0.004 A 
ATOM     22  C   UNL     1       1.054  -2.825   0.195  0.00  0.00    +0.046 A 
ATOM     23  C   UNL     1       1.823  -1.959  -0.566  0.00  0.00    +0.128 A 
BRANCH  23  24
ATOM     24  O   UNL     1       2.240  -0.779  -0.043  0.00  0.00    -0.487 OA
BRANCH  24  25
ATOM     25  C   UNL     1       1.849  -0.491   1.302  0.00  0.00    +0.256 C 
BRANCH  25  26
ATOM     26  C   UNL     1       2.401   0.851   1.708  0.00  0.00    +0.006 C 
ATOM     27  C   UNL     1       1.635   1.711   2.334  0.00  0.00    +0.007 C 
ENDBRANCH  25  26
ENDBRANCH  24  25
ENDBRANCH  23  24
ENDBRANCH  17  18
BRANCH  16  28
ATOM     28  C   UNL     1       4.270  -3.300  -3.494  0.00  0.00    +0.103 C 
ATOM     29  N   UNL     1       4.529  -4.406  -3.461  0.00  0.00    -0.191 NA
ENDBRANCH  16  28
ENDBRANCH   1  16
TORSDOF 8
