REMARK  Name = ZINC41645658
REMARK  7 active torsions:
REMARK  status: ('A' for Active; 'I' for Inactive)
REMARK    1  A    between atoms: C_1  and  C_2
REMARK    2  A    between atoms: N_8  and  C_9
REMARK    3  A    between atoms: C_9  and  C_11
REMARK    4  A    between atoms: C_9  and  C_12
REMARK    5  A    between atoms: C_12  and  N_13
REMARK    6  A    between atoms: C_14  and  C_16
REMARK    7  A    between atoms: N_18  and  C_19
REMARK                            x       y       z     vdW  Elec       q    Type
REMARK                         _______ _______ _______ _____ _____    ______ ____
ROOT
ATOM      1  N   UNL     1      -0.795   1.939   0.777  0.00  0.00    -0.309 N 
ATOM      2  C   UNL     1      -1.059   3.212   0.423  0.00  0.00    +0.299 C 
ATOM      3  O   UNL     1      -0.594   4.130   1.067  0.00  0.00    -0.265 OA
ATOM      4  H   UNL     1      -1.106   1.207   0.222  0.00  0.00    +0.149 HD
ENDROOT
BRANCH   2   5
ATOM      5  C   UNL     1      -1.924   3.494  -0.761  0.00  0.00    +0.303 C 
ATOM      6  O   UNL     1      -2.464   2.580  -1.350  0.00  0.00    -0.265 OA
ATOM      7  N   UNL     1      -2.106   4.763  -1.176  0.00  0.00    -0.278 N 
ATOM      8  H   UNL     1      -1.620   5.487  -0.750  0.00  0.00    +0.155 HD
BRANCH   7   9
ATOM      9  C   UNL     1      -2.994   5.037  -2.222  0.00  0.00    +0.038 A 
ATOM     10  C   UNL     1      -2.718   6.062  -3.117  0.00  0.00    +0.027 A 
ATOM     11  C   UNL     1      -3.594   6.334  -4.150  0.00  0.00    +0.051 A 
ATOM     12  C   UNL     1      -4.751   5.585  -4.295  0.00  0.00    +0.173 A 
ATOM     13  C   UNL     1      -5.031   4.555  -3.399  0.00  0.00    +0.174 A 
ATOM     14  C   UNL     1      -4.149   4.280  -2.368  0.00  0.00    +0.073 A 
ATOM     15  O   UNL     1      -6.215   3.977  -3.754  0.00  0.00    -0.395 OA
ATOM     16  C   UNL     1      -6.858   4.923  -4.628  0.00  0.00    +0.589 C 
ATOM     17  O   UNL     1      -5.761   5.650  -5.212  0.00  0.00    -0.395 OA
ATOM     18  F   UNL     1      -7.685   5.784  -3.898  0.00  0.00    -0.125 F 
ATOM     19  F   UNL     1      -7.590   4.259  -5.619  0.00  0.00    -0.125 F 
ENDBRANCH   7   9
ENDBRANCH   2   5
BRANCH   1  20
ATOM     20  C   UNL     1      -0.039   1.661   2.001  0.00  0.00    +0.089 C 
BRANCH  20  21
ATOM     21  C   UNL     1       0.016   0.149   2.233  0.00  0.00    -0.054 C 
ATOM     22  C   UNL     1       0.845  -0.144   3.486  0.00  0.00    -0.012 C 
BRANCH  21  29
ATOM     23  C   UNL     1      -0.852  -2.407   1.460  0.00  0.00    -0.013 C 
ATOM     24  C   UNL     1       0.596  -1.959   1.251  0.00  0.00    -0.071 C 
ATOM     25  C   UNL     1       1.167  -2.645   0.008  0.00  0.00    -0.016 C 
ATOM     26  C   UNL     1       2.616  -2.194  -0.196  0.00  0.00    -0.003 C 
ATOM     27  C   UNL     1       2.655  -0.667  -0.307  0.00  0.00    -0.019 C 
ATOM     28  C   UNL     1       2.029  -0.054   0.948  0.00  0.00    -0.078 C 
ATOM     29  N   UNL     1       0.636  -0.503   1.072  0.00  0.00    +0.384 N 
ATOM     30  H   UNL     1       0.128  -0.253   0.237  0.00  0.00    -0.081 HD
ENDBRANCH  21  29
ENDBRANCH  20  21
ENDBRANCH   1  20
TORSDOF 5
