REMARK  Name = ZINC04776308
REMARK  9 active torsions:
REMARK  status: ('A' for Active; 'I' for Inactive)
REMARK    1  A    between atoms: C_1  and  C_2
REMARK    2  A    between atoms: C_7  and  C_8
REMARK    3  A    between atoms: C_7  and  N_61
REMARK    4  A    between atoms: C_8  and  C_10
REMARK    5  A    between atoms: C_8  and  N_63
REMARK    6  A    between atoms: C_10  and  S_11
REMARK    7  A    between atoms: S_11  and  C_14
REMARK    8  A    between atoms: C_17  and  N_20
REMARK    9  A    between atoms: C_25  and  C_28
REMARK                            x       y       z     vdW  Elec       q    Type
REMARK                         _______ _______ _______ _____ _____    ______ ____
ROOT
ATOM      1  C   UNL     1       0.206   5.883  -2.792  0.00  0.00    -0.064 C 
ENDROOT
BRANCH   1   8
ATOM      2  C   UNL     1       2.178   4.896  -3.791  0.00  0.00    -0.078 C 
ATOM      3  C   UNL     1       2.736   4.289  -5.080  0.00  0.00    -0.016 C 
ATOM      4  C   UNL     1       1.981   2.995  -5.398  0.00  0.00    -0.018 C 
ATOM      5  C   UNL     1       0.486   3.303  -5.520  0.00  0.00    -0.016 C 
ATOM      6  C   UNL     1      -0.007   3.939  -4.218  0.00  0.00    -0.078 C 
ATOM      7  C   UNL     1       2.493   2.416  -6.718  0.00  0.00    +0.007 C 
ATOM      8  N   UNL     1       0.742   5.191  -3.982  0.00  0.00    +0.381 N 
ATOM      9  H   UNL     1       0.634   5.803  -4.800  0.00  0.00    -0.081 HD
ENDBRANCH   1   8
BRANCH   1  10
ATOM     10  C   UNL     1       0.614   5.146  -1.514  0.00  0.00    -0.093 C 
BRANCH  10  17
ATOM     11  C   UNL     1      -1.921   0.086  -0.712  0.00  0.00    +0.007 C 
ATOM     12  C   UNL     1      -1.416   1.518  -0.517  0.00  0.00    -0.018 C 
ATOM     13  C   UNL     1      -1.972   2.412  -1.629  0.00  0.00    -0.016 C 
ATOM     14  C   UNL     1      -1.416   3.828  -1.464  0.00  0.00    -0.079 C 
ATOM     15  C   UNL     1       0.610   2.975  -0.443  0.00  0.00    -0.079 C 
ATOM     16  C   UNL     1       0.114   1.534  -0.577  0.00  0.00    -0.016 C 
ATOM     17  N   UNL     1       0.059   3.778  -1.556  0.00  0.00    +0.379 N 
ATOM     18  H   UNL     1       0.323   3.338  -2.445  0.00  0.00    -0.082 HD
ENDBRANCH  10  17
ENDBRANCH   1  10
BRANCH   1  19
ATOM     19  C   UNL     1       0.763   7.307  -2.759  0.00  0.00    +0.155 C 
BRANCH  19  20
ATOM     20  S   UNL     1       0.326   8.163  -4.298  0.00  0.00    -0.005 S 
ATOM     21  O   UNL     1       1.116   7.671  -5.372  0.00  0.00    -0.169 OA
ATOM     22  O   UNL     1      -1.087   8.257  -4.421  0.00  0.00    -0.169 OA
BRANCH  20  23
ATOM     23  C   UNL     1       0.869   9.822  -4.063  0.00  0.00    +0.088 A 
ATOM     24  C   UNL     1       0.012  10.759  -3.515  0.00  0.00    +0.029 A 
ATOM     25  C   UNL     1       0.439  12.060  -3.327  0.00  0.00    +0.034 A 
ATOM     26  C   UNL     1       1.720  12.427  -3.696  0.00  0.00    +0.126 A 
ATOM     27  C   UNL     1       2.575  11.492  -4.248  0.00  0.00    +0.034 A 
ATOM     28  C   UNL     1       2.149  10.190  -4.432  0.00  0.00    +0.029 A 
BRANCH  26  29
ATOM     29  N   UNL     1       2.175  13.822  -3.498  0.00  0.00    +0.056 N 
ATOM     30  O   UNL     1       3.304  14.145  -3.823  0.00  0.00    -0.126 OA
ATOM     31  O   UNL     1       1.422  14.646  -3.012  0.00  0.00    -0.126 OA
ENDBRANCH  26  29
ENDBRANCH  20  23
ENDBRANCH  19  20
ENDBRANCH   1  19
TORSDOF 7
