REMARK  Name = ZINC15822312
REMARK  9 active torsions:
REMARK  status: ('A' for Active; 'I' for Inactive)
REMARK    1  A    between atoms: C_1  and  C_2
REMARK    2  A    between atoms: C_7  and  S_8
REMARK    3  A    between atoms: S_8  and  N_11
REMARK    4  A    between atoms: N_11  and  C_12
REMARK    5  A    between atoms: N_11  and  C_13
REMARK    6  A    between atoms: C_13  and  C_14
REMARK    7  A    between atoms: N_16  and  C_17
REMARK    8  A    between atoms: C_20  and  O_24
REMARK    9  A    between atoms: O_24  and  C_25
REMARK                            x       y       z     vdW  Elec       q    Type
REMARK                         _______ _______ _______ _____ _____    ______ ____
ROOT
ATOM      1  S   UNL     1       0.041   1.819   2.910  0.00  0.00    +0.061 S 
ATOM      2  O   UNL     1      -0.841   1.659   4.013  0.00  0.00    -0.153 OA
ATOM      3  O   UNL     1       1.166   0.975   2.707  0.00  0.00    -0.153 OA
ENDROOT
BRANCH   1  10
ATOM      4  C   UNL     1       1.973   3.005   0.916  0.00  0.00    +0.046 C 
ATOM      5  C   UNL     1       1.540   3.922   2.030  0.00  0.00    -0.022 A 
ATOM      6  C   UNL     1       2.026   5.216   2.087  0.00  0.00    +0.032 A 
ATOM      7  C   UNL     1       1.627   6.057   3.112  0.00  0.00    +0.076 A 
ATOM      8  C   UNL     1       0.737   5.599   4.083  0.00  0.00    +0.144 A 
ATOM      9  C   UNL     1       0.250   4.305   4.016  0.00  0.00    +0.076 A 
ATOM     10  C   UNL     1       0.657   3.468   2.992  0.00  0.00    +0.112 A 
ATOM     11  O   UNL     1       0.353   6.433   5.086  0.00  0.00    -0.481 OA
ATOM     12  C   UNL     1       1.320   7.387   5.533  0.00  0.00    +0.325 C 
ATOM     13  C   UNL     1       1.959   8.057   4.344  0.00  0.00    +0.255 C 
ATOM     14  O   UNL     1       2.340   9.206   4.423  0.00  0.00    -0.272 OA
ATOM     15  N   UNL     1       2.107   7.372   3.189  0.00  0.00    -0.280 N 
ATOM     16  H   UNL     1       2.539   7.783   2.424  0.00  0.00    +0.155 HD
ENDBRANCH   1  10
BRANCH   1  17
ATOM     17  N   UNL     1      -0.886   1.710   1.543  0.00  0.00    -0.171 NA
ATOM     18  C   UNL     1      -0.329   1.116   0.325  0.00  0.00    +0.132 C 
BRANCH  17  19
ATOM     19  C   UNL     1      -2.264   2.207   1.551  0.00  0.00    +0.205 C 
BRANCH  19  20
ATOM     20  C   UNL     1      -3.207   1.069   1.847  0.00  0.00    +0.233 C 
ATOM     21  O   UNL     1      -2.771  -0.047   2.033  0.00  0.00    -0.274 OA
ATOM     22  N   UNL     1      -4.535   1.292   1.905  0.00  0.00    -0.284 N 
ATOM     23  H   UNL     1      -4.890   2.168   1.688  0.00  0.00    +0.155 HD
BRANCH  22  24
ATOM     24  C   UNL     1      -5.403   0.258   2.279  0.00  0.00    +0.035 A 
ATOM     25  C   UNL     1      -6.676   0.186   1.728  0.00  0.00    +0.027 A 
ATOM     26  C   UNL     1      -7.530  -0.836   2.094  0.00  0.00    +0.049 A 
ATOM     27  C   UNL     1      -7.121  -1.785   3.018  0.00  0.00    +0.138 A 
ATOM     28  C   UNL     1      -5.851  -1.711   3.574  0.00  0.00    +0.084 A 
ATOM     29  C   UNL     1      -4.993  -0.692   3.205  0.00  0.00    +0.047 A 
ATOM     30 CL   UNL     1      -5.339  -2.900   4.731  0.00  0.00    -0.080 Cl
BRANCH  27  31
ATOM     31  O   UNL     1      -7.964  -2.788   3.381  0.00  0.00    -0.494 OA
ATOM     32  C   UNL     1      -9.256  -2.803   2.770  0.00  0.00    +0.277 C 
ENDBRANCH  27  31
ENDBRANCH  22  24
ENDBRANCH  19  20
ENDBRANCH  17  19
ENDBRANCH   1  17
TORSDOF 6
