REMARK  Name = ZINC21788717
REMARK  9 active torsions:
REMARK  status: ('A' for Active; 'I' for Inactive)
REMARK    1  A    between atoms: C_1  and  C_2
REMARK    2  A    between atoms: C_2  and  C_3
REMARK    3  A    between atoms: C_3  and  C_4
REMARK    4  A    between atoms: C_4  and  N_5
REMARK    5  A    between atoms: C_17  and  C_20
REMARK    6  A    between atoms: C_23  and  O_26
REMARK    7  A    between atoms: O_26  and  C_27
REMARK    8  A    between atoms: C_28  and  C_30
REMARK    9  A    between atoms: C_30  and  C_31
REMARK                            x       y       z     vdW  Elec       q    Type
REMARK                         _______ _______ _______ _____ _____    ______ ____
ROOT
ATOM      1  N   UNL     1       4.223  -1.815   4.150  0.00  0.00    -0.248 N 
ATOM      2  C   UNL     1       3.199  -1.113   3.628  0.00  0.00    +0.259 C 
ATOM      3  O   UNL     1       3.066  -1.024   2.420  0.00  0.00    -0.269 OA
ATOM      4  C   UNL     1       2.275  -0.478   4.501  0.00  0.00    +0.119 C 
ATOM      5  C   UNL     1       2.466  -0.599   5.874  0.00  0.00    +0.276 C 
ATOM      6  N   UNL     1       3.524  -1.331   6.337  0.00  0.00    -0.153 NA
ATOM      7  C   UNL     1       4.379  -1.919   5.482  0.00  0.00    +0.167 C 
ATOM      8  S   UNL     1       5.695  -2.821   6.102  0.00  0.00    -0.016 S 
ATOM      9  O   UNL     1       1.616  -0.006   6.736  0.00  0.00    -0.268 OA
ATOM     10  C   UNL     1       1.145   0.296   3.965  0.00  0.00    +0.041 C 
ATOM     11  N   UNL     1       0.889   0.470   2.712  0.00  0.00    -0.264 N 
ATOM     12  N   UNL     1      -0.242   1.246   2.466  0.00  0.00    -0.215 N 
ATOM     13  C   UNL     1      -0.827   1.657   3.752  0.00  0.00    +0.132 C 
ATOM     14  C   UNL     1       0.105   1.012   4.797  0.00  0.00    +0.082 C 
ATOM     15  C   UNL     1      -0.718   1.572   1.248  0.00  0.00    +0.232 C 
ATOM     16  O   UNL     1      -1.715   2.256   1.150  0.00  0.00    -0.274 OA
ATOM     17  H   UNL     1       1.474   0.067   1.872  0.00  0.00    +0.170 HD
ENDROOT
BRANCH  13  18
ATOM     18  C   UNL     1      -0.817   3.158   3.883  0.00  0.00    -0.025 A 
ATOM     19  C   UNL     1       0.266   3.884   3.422  0.00  0.00    +0.009 A 
ATOM     20  C   UNL     1       0.275   5.261   3.537  0.00  0.00    +0.046 A 
ATOM     21  C   UNL     1      -0.798   5.914   4.125  0.00  0.00    +0.120 A 
ATOM     22  C   UNL     1      -1.881   5.183   4.592  0.00  0.00    +0.046 A 
ATOM     23  C   UNL     1      -1.888   3.807   4.470  0.00  0.00    +0.009 A 
BRANCH  21  24
ATOM     24  O   UNL     1      -0.789   7.268   4.244  0.00  0.00    -0.495 OA
ATOM     25  C   UNL     1       0.358   7.955   3.741  0.00  0.00    +0.277 C 
ENDBRANCH  21  24
ENDBRANCH  13  18
BRANCH  15  26
ATOM     26  C   UNL     1      -0.013   1.086   0.008  0.00  0.00    +0.094 C 
ATOM     27  C   UNL     1      -0.753   1.593  -1.232  0.00  0.00    +0.013 C 
ENDBRANCH  15  26
BRANCH   1  28
ATOM     28  C   UNL     1       5.180  -2.474   3.257  0.00  0.00    +0.116 C 
BRANCH  28  29
ATOM     29  C   UNL     1       6.329  -1.513   2.944  0.00  0.00    +0.019 C 
BRANCH  29  31
ATOM     30  C   UNL     1       8.477  -1.241   1.697  0.00  0.00    +0.004 C 
ATOM     31  C   UNL     1       7.328  -2.201   2.011  0.00  0.00    -0.002 C 
ENDBRANCH  29  31
ENDBRANCH  28  29
ENDBRANCH   1  28
TORSDOF 6
