REMARK  Name = ZINC03114921
REMARK  14 active torsions:
REMARK  status: ('A' for Active; 'I' for Inactive)
REMARK    1  A    between atoms: C_1  and  C_2
REMARK    2  A    between atoms: C_2  and  N_47
REMARK    3  A    between atoms: C_3  and  C_4
REMARK    4  A    between atoms: C_3  and  N_47
REMARK    5  A    between atoms: C_5  and  C_7
REMARK    6  A    between atoms: C_5  and  N_11
REMARK    7  A    between atoms: C_5  and  N_47
REMARK    8  A    between atoms: N_14  and  C_15
REMARK    9  A    between atoms: C_15  and  C_17
REMARK   10  A    between atoms: C_15  and  N_49
REMARK   11  A    between atoms: C_21  and  C_22
REMARK   12  A    between atoms: C_21  and  N_49
REMARK   13  A    between atoms: C_23  and  C_24
REMARK   14  A    between atoms: C_23  and  N_49
REMARK                            x       y       z     vdW  Elec       q    Type
REMARK                         _______ _______ _______ _____ _____    ______ ____
ROOT
ATOM      1  N   UNL     1      -1.901  -0.623   0.831  0.00  0.00    -0.309 N 
ATOM      2  C   UNL     1      -2.371  -1.355  -0.199  0.00  0.00    +0.297 C 
ATOM      3  O   UNL     1      -2.229  -2.563  -0.201  0.00  0.00    -0.253 OA
ATOM      4  N   UNL     1      -2.997  -0.748  -1.226  0.00  0.00    -0.309 N 
ATOM      5  H   UNL     1      -2.014   0.340   0.833  0.00  0.00    +0.148 HD
ATOM      6  H   UNL     1      -3.111   0.215  -1.225  0.00  0.00    +0.148 HD
ENDROOT
BRANCH   1   7
ATOM      7  C   UNL     1      -1.220  -1.283   1.948  0.00  0.00    +0.072 C 
BRANCH   7   8
ATOM      8  C   UNL     1      -1.767  -0.741   3.270  0.00  0.00    +0.194 C 
ATOM      9 CL   UNL     1      -1.233   0.967   3.486  0.00  0.00    -0.084 Cl
ATOM     10 CL   UNL     1      -3.568  -0.810   3.249  0.00  0.00    -0.084 Cl
ATOM     11 CL   UNL     1      -1.143  -1.743   4.633  0.00  0.00    -0.084 Cl
ENDBRANCH   7   8
BRANCH   7  12
ATOM     12  N   UNL     1       0.226  -0.988   1.861  0.00  0.00    +0.394 N 
ATOM     13  H   UNL     1       0.350  -0.001   1.606  0.00  0.00    -0.079 HD
BRANCH  12  15
ATOM     14  C   UNL     1       0.605  -1.195  -0.544  0.00  0.00    -0.017 C 
ATOM     15  C   UNL     1       0.852  -1.835   0.823  0.00  0.00    -0.079 C 
ENDBRANCH  12  15
BRANCH  12  16
ATOM     16  C   UNL     1       0.870  -1.232   3.168  0.00  0.00    -0.079 C 
ATOM     17  C   UNL     1       2.324  -0.759   3.099  0.00  0.00    -0.017 C 
ENDBRANCH  12  16
ENDBRANCH   7  12
ENDBRANCH   1   7
BRANCH   4  18
ATOM     18  C   UNL     1      -3.507  -1.544  -2.346  0.00  0.00    +0.072 C 
BRANCH  18  19
ATOM     19  C   UNL     1      -3.172  -0.843  -3.664  0.00  0.00    +0.194 C 
ATOM     20 CL   UNL     1      -1.400  -0.517  -3.738  0.00  0.00    -0.084 Cl
ATOM     21 CL   UNL     1      -3.646  -1.901  -5.045  0.00  0.00    -0.084 Cl
ATOM     22 CL   UNL     1      -4.074   0.715  -3.763  0.00  0.00    -0.084 Cl
ENDBRANCH  18  19
BRANCH  18  23
ATOM     23  N   UNL     1      -4.977  -1.662  -2.237  0.00  0.00    +0.394 N 
ATOM     24  H   UNL     1      -5.413  -0.885  -2.748  0.00  0.00    -0.079 HD
BRANCH  23  25
ATOM     25  C   UNL     1      -5.426  -2.939  -2.831  0.00  0.00    -0.079 C 
ATOM     26  C   UNL     1      -6.939  -2.874  -3.050  0.00  0.00    -0.017 C 
ENDBRANCH  23  25
BRANCH  23  27
ATOM     27  C   UNL     1      -5.386  -1.593  -0.819  0.00  0.00    -0.079 C 
ATOM     28  C   UNL     1      -5.459  -0.123  -0.402  0.00  0.00    -0.017 C 
ENDBRANCH  23  27
ENDBRANCH  18  23
ENDBRANCH   4  18
TORSDOF 10
