REMARK  Name = ZINC38519884
REMARK  6 active torsions:
REMARK  status: ('A' for Active; 'I' for Inactive)
REMARK    1  A    between atoms: C_1  and  C_2
REMARK    2  A    between atoms: C_2  and  C_3
REMARK    3  A    between atoms: C_3  and  C_4
REMARK    4  A    between atoms: C_4  and  C_5
REMARK    5  A    between atoms: N_11  and  C_13
REMARK    6  A    between atoms: C_18  and  C_20
REMARK                            x       y       z     vdW  Elec       q    Type
REMARK                         _______ _______ _______ _____ _____    ______ ____
ROOT
ATOM      1  C   UNL     1       1.492  -2.540   2.454  0.00  0.00    +0.218 C 
ATOM      2  O   UNL     1       1.950  -1.750   3.252  0.00  0.00    -0.275 OA
ATOM      3  N   UNL     1       1.635  -3.864   2.659  0.00  0.00    -0.269 N 
ATOM      4  C   UNL     1       2.313  -4.329   3.794  0.00  0.00    +0.153 A 
ATOM      5  C   UNL     1       2.536  -5.662   4.124  0.00  0.00    +0.045 A 
ATOM      6  C   UNL     1       3.237  -5.694   5.300  0.00  0.00    +0.129 A 
ATOM      7  N   UNL     1       3.434  -4.422   5.694  0.00  0.00    -0.251 N 
ATOM      8  N   UNL     1       2.854  -3.579   4.731  0.00  0.00    -0.154 NA
ATOM      9  C   UNL     1       4.133  -3.992   6.908  0.00  0.00    +0.174 C 
ATOM     10  N   UNL     1       3.637  -6.894   5.887  0.00  0.00    -0.270 N 
ATOM     11  C   UNL     1       3.493  -8.031   5.172  0.00  0.00    +0.219 C 
ATOM     12  O   UNL     1       3.655  -9.097   5.727  0.00  0.00    -0.275 OA
ATOM     13  C   UNL     1       3.139  -8.016   3.712  0.00  0.00    +0.112 C 
ATOM     14  C   UNL     1       2.120  -6.916   3.398  0.00  0.00    +0.100 C 
ATOM     15  H   UNL     1       1.269  -4.496   2.020  0.00  0.00    +0.156 HD
ATOM     16  H   UNL     1       4.007  -6.912   6.783  0.00  0.00    +0.156 HD
ENDROOT
BRANCH  14  17
ATOM     17  C   UNL     1       0.753  -7.343   3.865  0.00  0.00    +0.113 A 
ATOM     18  C   UNL     1      -0.339  -7.474   3.089  0.00  0.00    +0.045 A 
ATOM     19  C   UNL     1      -1.393  -7.892   3.933  0.00  0.00    +0.041 A 
ATOM     20  C   UNL     1      -0.884  -7.992   5.173  0.00  0.00    +0.195 A 
ATOM     21  O   UNL     1       0.418  -7.664   5.125  0.00  0.00    -0.467 OA
ENDBRANCH  14  17
BRANCH   1  22
ATOM     22  C   UNL     1       0.763  -2.041   1.233  0.00  0.00    +0.096 C 
BRANCH  22  23
ATOM     23  C   UNL     1       0.742  -0.511   1.242  0.00  0.00    +0.009 C 
BRANCH  23  25
ATOM     24  C   UNL     1      -0.019   1.526   0.010  0.00  0.00    +0.004 C 
ATOM     25  C   UNL     1       0.002  -0.004   0.002  0.00  0.00    -0.003 C 
ENDBRANCH  23  25
ENDBRANCH  22  23
ENDBRANCH   1  22
TORSDOF 4
