REMARK  Name = ZINC36492570
REMARK  10 active torsions:
REMARK  status: ('A' for Active; 'I' for Inactive)
REMARK    1  A    between atoms: C_1  and  C_2
REMARK    2  A    between atoms: C_2  and  C_3
REMARK    3  A    between atoms: C_2  and  C_4
REMARK    4  A    between atoms: C_2  and  N_5
REMARK    5  A    between atoms: C_6  and  C_8
REMARK    6  A    between atoms: C_8  and  C_10
REMARK    7  A    between atoms: C_8  and  N_16
REMARK    8  A    between atoms: N_16  and  C_17
REMARK    9  A    between atoms: C_23  and  C_25
REMARK   10  A    between atoms: C_28  and  N_31
REMARK                            x       y       z     vdW  Elec       q    Type
REMARK                         _______ _______ _______ _____ _____    ______ ____
ROOT
ATOM      1  N   UNL     1       4.296  -0.558  -1.929  0.00  0.00    -0.283 N 
ATOM      2  C   UNL     1       4.904  -1.179  -2.959  0.00  0.00    +0.247 C 
ATOM      3  O   UNL     1       4.288  -1.980  -3.635  0.00  0.00    -0.270 OA
ENDROOT
BRANCH   1   4
ATOM      4  C   UNL     1       4.452   0.887  -1.750  0.00  0.00    +0.077 C 
ATOM      5  C   UNL     1       4.631   1.554  -3.116  0.00  0.00    +0.022 C 
ATOM      6  C   UNL     1       4.795   3.064  -2.929  0.00  0.00    +0.002 C 
ATOM      7  C   UNL     1       6.024   3.340  -2.061  0.00  0.00    +0.000 C 
ATOM      8  C   UNL     1       5.845   2.673  -0.695  0.00  0.00    +0.002 C 
ATOM      9  C   UNL     1       5.682   1.164  -0.882  0.00  0.00    +0.022 C 
ENDBRANCH   1   4
BRANCH   2  10
ATOM     10  C   UNL     1       6.321  -0.887  -3.266  0.00  0.00    +0.037 A 
ATOM     11  C   UNL     1       6.843   0.384  -3.021  0.00  0.00    +0.015 A 
ATOM     12  C   UNL     1       8.166   0.650  -3.309  0.00  0.00    +0.033 A 
ATOM     13  C   UNL     1       8.974  -0.340  -3.840  0.00  0.00    +0.126 A 
ATOM     14  C   UNL     1       8.462  -1.601  -4.086  0.00  0.00    +0.033 A 
ATOM     15  C   UNL     1       7.143  -1.882  -3.796  0.00  0.00    +0.015 A 
BRANCH  13  16
ATOM     16  N   UNL     1      10.392  -0.047  -4.147  0.00  0.00    +0.056 N 
ATOM     17  O   UNL     1      10.842   1.055  -3.934  0.00  0.00    -0.126 OA
ATOM     18  O   UNL     1      11.100  -0.910  -4.611  0.00  0.00    -0.126 OA
ENDBRANCH  13  16
ENDBRANCH   2  10
BRANCH   1  19
ATOM     19  C   UNL     1       3.478  -1.328  -0.989  0.00  0.00    +0.166 C 
BRANCH  19  20
ATOM     20  C   UNL     1       2.043  -0.796  -1.006  0.00  0.00    +0.019 C 
ATOM     21  C   UNL     1       1.437  -1.009  -2.395  0.00  0.00    +0.006 C 
ATOM     22  C   UNL     1       0.003  -0.477  -2.412  0.00  0.00    +0.000 C 
ATOM     23  C   UNL     1      -0.832  -1.226  -1.371  0.00  0.00    +0.000 C 
ATOM     24  C   UNL     1      -0.225  -1.013   0.017  0.00  0.00    +0.000 C 
ATOM     25  C   UNL     1       1.209  -1.545   0.035  0.00  0.00    +0.006 C 
ENDBRANCH  19  20
BRANCH  19  27
ATOM     26  N   UNL     1       4.237  -2.290   1.160  0.00  0.00    -0.309 N 
ATOM     27  C   UNL     1       4.047  -1.193   0.400  0.00  0.00    +0.234 C 
ATOM     28  O   UNL     1       4.335  -0.098   0.833  0.00  0.00    -0.274 OA
ATOM     29  H   UNL     1       3.973  -3.162   0.827  0.00  0.00    +0.149 HD
BRANCH  26  31
ATOM     30  C   UNL     1       3.970  -1.256   3.360  0.00  0.00    +0.031 C 
ATOM     31  C   UNL     1       4.840  -2.164   2.489  0.00  0.00    +0.026 C 
ATOM     32  C   UNL     1       6.239  -1.558   2.359  0.00  0.00    +0.031 C 
ATOM     33  C   UNL     1       4.941  -3.547   3.136  0.00  0.00    +0.031 C 
ENDBRANCH  26  31
ENDBRANCH  19  27
ENDBRANCH   1  19
TORSDOF 7
