REMARK  Name = ZINC05260011
REMARK  7 active torsions:
REMARK  status: ('A' for Active; 'I' for Inactive)
REMARK    1  A    between atoms: C_1  and  C_2
REMARK    2  A    between atoms: C_2  and  C_3
REMARK    3  A    between atoms: C_3  and  C_11
REMARK    4  A    between atoms: C_14  and  N_17
REMARK    5  A    between atoms: N_17  and  S_18
REMARK    6  A    between atoms: S_18  and  C_21
REMARK    7  A    between atoms: C_26  and  N_27
REMARK                            x       y       z     vdW  Elec       q    Type
REMARK                         _______ _______ _______ _____ _____    ______ ____
ROOT
ATOM      1  C   UNL     1       5.328   1.366   1.103  0.00  0.00    -0.032 A 
ATOM      2  C   UNL     1       5.296   2.240   0.032  0.00  0.00    +0.006 A 
ATOM      3  C   UNL     1       6.452   2.879  -0.373  0.00  0.00    +0.025 A 
ATOM      4  C   UNL     1       7.648   2.635   0.289  0.00  0.00    +0.048 A 
ATOM      5  C   UNL     1       7.677   1.752   1.361  0.00  0.00    +0.025 A 
ATOM      6  C   UNL     1       6.517   1.120   1.765  0.00  0.00    +0.006 A 
ENDROOT
BRANCH   1   7
ATOM      7  C   UNL     1       4.064   0.674   1.547  0.00  0.00    +0.072 C 
ATOM      8  C   UNL     1       2.876   1.216   0.745  0.00  0.00    +0.030 C 
ATOM      9  C   UNL     1       1.624   0.422   1.132  0.00  0.00    +0.097 C 
ATOM     10  C   UNL     1       1.881  -1.045   0.913  0.00  0.00    +0.219 C 
ATOM     11  O   UNL     1       0.955  -1.777   0.638  0.00  0.00    -0.275 OA
ATOM     12  N   UNL     1       3.117  -1.558   1.015  0.00  0.00    -0.256 N 
ATOM     13  C   UNL     1       4.189  -0.807   1.305  0.00  0.00    +0.230 C 
ATOM     14  O   UNL     1       5.281  -1.330   1.374  0.00  0.00    -0.274 OA
ATOM     15  H   UNL     1       3.239  -2.510   0.874  0.00  0.00    +0.157 HD
BRANCH   7  17
ATOM     16  C   UNL     1       3.645   2.432   3.273  0.00  0.00    +0.005 C 
ATOM     17  C   UNL     1       3.835   0.932   3.038  0.00  0.00    +0.017 C 
ENDBRANCH   7  17
ENDBRANCH   1   7
BRANCH   4  18
ATOM     18  N   UNL     1       8.819   3.275  -0.122  0.00  0.00    -0.216 N 
ATOM     19  H   UNL     1       9.407   3.679   0.535  0.00  0.00    +0.174 HD
BRANCH  18  20
ATOM     20  S   UNL     1       9.203   3.345  -1.731  0.00  0.00    +0.075 S 
ATOM     21  O   UNL     1      10.455   4.011  -1.821  0.00  0.00    -0.150 OA
ATOM     22  O   UNL     1       8.995   2.041  -2.256  0.00  0.00    -0.150 OA
BRANCH  20  23
ATOM     23  C   UNL     1       8.018   4.394  -2.505  0.00  0.00    +0.139 A 
ATOM     24  C   UNL     1       7.173   3.886  -3.474  0.00  0.00    +0.031 A 
ATOM     25  C   UNL     1       6.243   4.708  -4.081  0.00  0.00    +0.002 A 
ATOM     26  C   UNL     1       6.157   6.040  -3.718  0.00  0.00    +0.002 A 
ATOM     27  C   UNL     1       7.001   6.548  -2.749  0.00  0.00    +0.035 A 
ATOM     28  C   UNL     1       7.928   5.724  -2.139  0.00  0.00    +0.153 A 
BRANCH  28  29
ATOM     29  N   UNL     1       8.829   6.266  -1.097  0.00  0.00    +0.058 N 
ATOM     30  O   UNL     1       8.839   7.462  -0.863  0.00  0.00    -0.126 OA
ATOM     31  O   UNL     1       9.559   5.518  -0.473  0.00  0.00    -0.126 OA
ENDBRANCH  28  29
ENDBRANCH  20  23
ENDBRANCH  18  20
ENDBRANCH   4  18
TORSDOF 6
