REMARK  Name = ZINC08639739
REMARK  10 active torsions:
REMARK  status: ('A' for Active; 'I' for Inactive)
REMARK    1  A    between atoms: C_1  and  C_2
REMARK    2  A    between atoms: C_5  and  N_31
REMARK    3  A    between atoms: C_7  and  N_8
REMARK    4  A    between atoms: C_9  and  C_11
REMARK    5  A    between atoms: C_11  and  S_12
REMARK    6  A    between atoms: S_12  and  C_13
REMARK    7  A    between atoms: N_26  and  C_27
REMARK    8  A    between atoms: C_27  and  C_28
REMARK    9  A    between atoms: C_28  and  O_29
REMARK   10  A    between atoms: O_29  and  C_30
REMARK                            x       y       z     vdW  Elec       q    Type
REMARK                         _______ _______ _______ _____ _____    ______ ____
ROOT
ATOM      1  C   UNL     1      -0.314   2.738   1.785  0.00  0.00    +0.173 A 
ATOM      2  N   UNL     1      -0.909   3.191   2.870  0.00  0.00    -0.216 NA
ATOM      3  C   UNL     1      -1.870   2.490   3.461  0.00  0.00    +0.117 A 
ATOM      4  C   UNL     1      -2.301   1.248   2.967  0.00  0.00    +0.076 A 
ATOM      5  C   UNL     1      -3.368   0.593   3.726  0.00  0.00    -0.023 A 
ATOM      6  C   UNL     1      -3.829   1.239   4.816  0.00  0.00    -0.004 A 
ATOM      7  S   UNL     1      -2.885   2.737   4.896  0.00  0.00    -0.073 S 
ATOM      8  C   UNL     1      -4.906   0.785   5.753  0.00  0.00    +0.043 C 
ATOM      9  C   UNL     1      -5.677  -0.362   5.085  0.00  0.00    +0.005 C 
ATOM     10  C   UNL     1      -4.669  -1.369   4.521  0.00  0.00    +0.005 C 
ATOM     11  C   UNL     1      -3.945  -0.760   3.320  0.00  0.00    +0.037 C 
ATOM     12  C   UNL     1      -1.641   0.783   1.785  0.00  0.00    +0.263 A 
ATOM     13  O   UNL     1      -1.948  -0.285   1.285  0.00  0.00    -0.267 OA
ATOM     14  N   UNL     1      -0.675   1.542   1.235  0.00  0.00    -0.285 N 
ENDROOT
BRANCH   1  15
ATOM     15  S   UNL     1       0.961   3.692   1.031  0.00  0.00    -0.078 S 
BRANCH  15  16
ATOM     16  C   UNL     1       0.999   5.110   2.154  0.00  0.00    +0.173 C 
BRANCH  16  18
ATOM     17  N   UNL     1       2.256   7.228   2.381  0.00  0.00    -0.285 N 
ATOM     18  C   UNL     1       2.048   6.088   1.693  0.00  0.00    +0.227 C 
ATOM     19  O   UNL     1       2.706   5.850   0.702  0.00  0.00    -0.275 OA
ATOM     20  H   UNL     1       1.678   7.457   3.126  0.00  0.00    +0.155 HD
BRANCH  17  27
ATOM     21  C   UNL     1       2.046   9.982   3.069  0.00  0.00    +0.045 C 
ATOM     22  C   UNL     1       3.244   9.431   2.339  0.00  0.00    -0.029 A 
ATOM     23  C   UNL     1       4.282  10.271   1.984  0.00  0.00    +0.007 A 
ATOM     24  C   UNL     1       5.382   9.767   1.315  0.00  0.00    +0.033 A 
ATOM     25  C   UNL     1       5.447   8.422   0.998  0.00  0.00    +0.128 A 
ATOM     26  C   UNL     1       4.414   7.577   1.355  0.00  0.00    +0.056 A 
ATOM     27  C   UNL     1       3.306   8.081   2.023  0.00  0.00    +0.038 A 
BRANCH  25  28
ATOM     28  N   UNL     1       6.626   7.887   0.282  0.00  0.00    +0.056 N 
ATOM     29  O   UNL     1       7.540   8.630  -0.028  0.00  0.00    -0.126 OA
ATOM     30  O   UNL     1       6.684   6.702   0.003  0.00  0.00    -0.126 OA
ENDBRANCH  25  28
ENDBRANCH  17  27
ENDBRANCH  16  18
ENDBRANCH  15  16
ENDBRANCH   1  15
BRANCH  14  31
ATOM     31  C   UNL     1       0.006   1.072   0.026  0.00  0.00    +0.155 C 
BRANCH  31  32
ATOM     32  C   UNL     1      -0.744   1.574  -1.210  0.00  0.00    +0.181 C 
BRANCH  32  33
ATOM     33  O   UNL     1      -2.043   0.980  -1.252  0.00  0.00    -0.381 OA
ATOM     34  C   UNL     1      -2.830   1.384  -2.374  0.00  0.00    +0.194 C 
ENDBRANCH  32  33
ENDBRANCH  31  32
ENDBRANCH  14  31
TORSDOF 8
