REMARK  Name = ZINC27558980
REMARK  9 active torsions:
REMARK  status: ('A' for Active; 'I' for Inactive)
REMARK    1  A    between atoms: C_1  and  C_2
REMARK    2  A    between atoms: C_2  and  C_4
REMARK    3  A    between atoms: C_2  and  N_17
REMARK    4  A    between atoms: N_6  and  C_7
REMARK    5  A    between atoms: C_10  and  N_14
REMARK    6  A    between atoms: N_20  and  C_23
REMARK    7  A    between atoms: C_23  and  C_24
REMARK    8  A    between atoms: N_26  and  C_27
REMARK    9  A    between atoms: C_27  and  C_28
REMARK                            x       y       z     vdW  Elec       q    Type
REMARK                         _______ _______ _______ _____ _____    ______ ____
ROOT
ATOM      1  C   UNL     1       2.481  -0.512  -1.132  0.00  0.00    +0.034 C 
ATOM      2  C   UNL     1       2.421   0.746  -0.264  0.00  0.00    +0.140 C 
ENDROOT
BRANCH   2   3
ATOM      3  N   UNL     1       3.600   1.582  -0.531  0.00  0.00    -0.295 NA
ATOM      4  C   UNL     1       3.474   2.273  -1.822  0.00  0.00    +0.066 C 
ATOM      5  C   UNL     1       4.681   3.191  -2.025  0.00  0.00    -0.063 C 
ATOM      6  N   UNL     1       5.915   2.393  -1.976  0.00  0.00    +0.387 N 
ATOM      7  C   UNL     1       6.040   1.702  -0.685  0.00  0.00    -0.063 C 
ATOM      8  C   UNL     1       4.833   0.784  -0.482  0.00  0.00    +0.066 C 
ATOM      9  H   UNL     1       5.857   1.630  -2.766  0.00  0.00    -0.081 HD
BRANCH   6  10
ATOM     10  C   UNL     1       7.093   3.229  -2.243  0.00  0.00    +0.019 C 
BRANCH  10  11
ATOM     11  C   UNL     1       7.047   3.723  -3.666  0.00  0.00    +0.197 C 
ATOM     12  O   UNL     1       6.123   3.411  -4.386  0.00  0.00    -0.278 OA
ATOM     13  N   UNL     1       8.032   4.513  -4.137  0.00  0.00    -0.313 N 
ATOM     14  H   UNL     1       8.870   4.796  -3.483  0.00  0.00    +0.149 HD
BRANCH  13  15
ATOM     15  C   UNL     1       7.987   4.994  -5.520  0.00  0.00    +0.131 C 
BRANCH  15  16
ATOM     16  C   UNL     1       9.196   5.851  -5.794  0.00  0.00    -0.016 C 
ATOM     17  C   UNL     1       9.986   5.567  -6.799  0.00  0.00    +0.005 C 
ENDBRANCH  15  16
ENDBRANCH  13  15
ENDBRANCH  10  11
ENDBRANCH   6  10
ENDBRANCH   2   3
BRANCH   2  18
ATOM     18  C   UNL     1       2.403   0.353   1.190  0.00  0.00    +0.234 C 
ATOM     19  O   UNL     1       3.376   0.555   1.885  0.00  0.00    -0.274 OA
ATOM     20  N   UNL     1       1.305  -0.223   1.719  0.00  0.00    -0.283 N 
ATOM     21  H   UNL     1       0.391  -0.322   1.115  0.00  0.00    +0.155 HD
BRANCH  20  22
ATOM     22  C   UNL     1       1.328  -0.694   3.037  0.00  0.00    +0.052 A 
ATOM     23  C   UNL     1       2.540  -0.961   3.660  0.00  0.00    +0.027 A 
ATOM     24  C   UNL     1       2.559  -1.426   4.960  0.00  0.00    +0.034 A 
ATOM     25  C   UNL     1       1.373  -1.626   5.643  0.00  0.00    +0.128 A 
ATOM     26  C   UNL     1       0.164  -1.361   5.026  0.00  0.00    +0.054 A 
ATOM     27  C   UNL     1       0.138  -0.890   3.727  0.00  0.00    +0.064 A 
ATOM     28 CL   UNL     1      -1.380  -0.551   2.955  0.00  0.00    -0.082 Cl
BRANCH  25  29
ATOM     29  N   UNL     1       1.398  -2.123   7.036  0.00  0.00    +0.056 N 
ATOM     30  O   UNL     1       2.462  -2.357   7.581  0.00  0.00    -0.126 OA
ATOM     31  O   UNL     1       0.354  -2.300   7.639  0.00  0.00    -0.126 OA
ENDBRANCH  25  29
ENDBRANCH  20  22
ENDBRANCH   2  18
TORSDOF 8
