REMARK  Name = ZINC04469096
REMARK  5 active torsions:
REMARK  status: ('A' for Active; 'I' for Inactive)
REMARK    1  A    between atoms: C_1  and  C_2
REMARK    2  A    between atoms: C_2  and  C_4
REMARK    3  A    between atoms: C_2  and  S_11
REMARK    4  A    between atoms: N_9  and  C_10
REMARK    5  A    between atoms: S_11  and  C_12
REMARK                            x       y       z     vdW  Elec       q    Type
REMARK                         _______ _______ _______ _____ _____    ______ ____
ROOT
ATOM      1  C   UNL     1       0.020  -4.839  -0.015  0.00  0.00    +0.171 A 
ATOM      2  N   UNL     1       1.303  -4.546  -0.365  0.00  0.00    -0.301 N 
ATOM      3  H   UNL     1       1.934  -5.302  -0.540  0.00  0.00    +0.171 HD
ATOM      4  C   UNL     1       1.763  -3.279  -0.488  0.00  0.00    +0.261 A 
ATOM      5  O   UNL     1       2.916  -3.037  -0.802  0.00  0.00    -0.267 OA
ATOM      6  C   UNL     1       0.812  -2.240  -0.225  0.00  0.00    +0.075 A 
ATOM      7  C   UNL     1       1.051  -0.807  -0.287  0.00  0.00    -0.023 A 
ATOM      8  C   UNL     1       0.002  -0.004   0.002  0.00  0.00    -0.004 A 
ATOM      9  S   UNL     1      -1.341  -1.105   0.368  0.00  0.00    -0.073 S 
ATOM     10  C   UNL     1      -0.497  -2.637   0.133  0.00  0.00    +0.117 A 
ATOM     11  N   UNL     1      -0.885  -3.902   0.237  0.00  0.00    -0.216 NA
ATOM     12  C   UNL     1      -0.018   1.493   0.010  0.00  0.00    +0.043 C 
ATOM     13  C   UNL     1       1.431   2.000  -0.001  0.00  0.00    +0.005 C 
ATOM     14  C   UNL     1       2.207   1.244  -1.083  0.00  0.00    +0.005 C 
ATOM     15  C   UNL     1       2.406  -0.211  -0.659  0.00  0.00    +0.037 C 
ENDROOT
BRANCH   1  16
ATOM     16  S   UNL     1      -0.458  -6.530   0.111  0.00  0.00    -0.075 S 
BRANCH  16  18
ATOM     17  C   UNL     1      -2.962  -5.667  -0.556  0.00  0.00    +0.029 C 
ATOM     18  C   UNL     1      -2.193  -6.333   0.586  0.00  0.00    +0.137 C 
BRANCH  18  19
ATOM     19  C   UNL     1      -2.792  -7.685   0.875  0.00  0.00    +0.233 C 
ATOM     20  O   UNL     1      -2.266  -8.686   0.438  0.00  0.00    -0.274 OA
ATOM     21  N   UNL     1      -3.912  -7.782   1.618  0.00  0.00    -0.239 N 
ATOM     22  C   UNL     1      -4.447  -8.991   1.875  0.00  0.00    +0.306 C 
ATOM     23  O   UNL     1      -3.920  -9.995   1.438  0.00  0.00    -0.252 OA
ATOM     24  N   UNL     1      -5.568  -9.088   2.619  0.00  0.00    -0.302 N 
ATOM     25  C   UNL     1      -6.150 -10.402   2.899  0.00  0.00    +0.129 C 
ATOM     26  H   UNL     1      -4.333  -6.980   1.967  0.00  0.00    +0.159 HD
ATOM     27  H   UNL     1      -5.988  -8.287   2.968  0.00  0.00    +0.150 HD
ENDBRANCH  18  19
ENDBRANCH  16  18
ENDBRANCH   1  16
TORSDOF 3
