REMARK  Name = ZINC12381844
REMARK  8 active torsions:
REMARK  status: ('A' for Active; 'I' for Inactive)
REMARK    1  A    between atoms: C_1  and  C_2
REMARK    2  A    between atoms: C_2  and  C_3
REMARK    3  A    between atoms: C_2  and  C_4
REMARK    4  A    between atoms: C_9  and  C_12
REMARK    5  A    between atoms: C_12  and  N_13
REMARK    6  A    between atoms: C_14  and  C_15
REMARK    7  A    between atoms: N_18  and  C_30
REMARK    8  A    between atoms: N_21  and  C_24
REMARK                            x       y       z     vdW  Elec       q    Type
REMARK                         _______ _______ _______ _____ _____    ______ ____
ROOT
ATOM      1  C   UNL     1      -0.846   0.204  -0.940  0.00  0.00    +0.202 C 
ATOM      2  C   UNL     1       0.253  -0.734  -1.228  0.00  0.00    +0.240 C 
ATOM      3  O   UNL     1       1.407  -0.351  -1.268  0.00  0.00    -0.274 OA
ATOM      4  N   UNL     1      -0.054  -2.030  -1.441  0.00  0.00    -0.222 N 
ATOM      5  C   UNL     1      -1.321  -2.465  -1.405  0.00  0.00    +0.318 C 
ATOM      6  O   UNL     1      -1.531  -3.644  -1.611  0.00  0.00    -0.252 OA
ATOM      7  N   UNL     1      -2.370  -1.668  -1.155  0.00  0.00    -0.222 N 
ATOM      8  C   UNL     1      -2.212  -0.350  -0.918  0.00  0.00    +0.240 C 
ATOM      9  O   UNL     1      -3.172   0.363  -0.692  0.00  0.00    -0.274 OA
ENDROOT
BRANCH   7  10
ATOM     10  C   UNL     1      -3.717  -2.242  -1.139  0.00  0.00    +0.086 C 
ATOM     11  C   UNL     1      -4.575  -1.559  -2.206  0.00  0.00    +0.023 C 
ATOM     12  C   UNL     1      -5.983  -2.158  -2.190  0.00  0.00    +0.002 C 
ATOM     13  C   UNL     1      -6.613  -1.942  -0.813  0.00  0.00    +0.000 C 
ATOM     14  C   UNL     1      -5.755  -2.625   0.254  0.00  0.00    +0.002 C 
ATOM     15  C   UNL     1      -4.348  -2.026   0.238  0.00  0.00    +0.023 C 
ENDBRANCH   7  10
BRANCH   4  16
ATOM     16  C   UNL     1       1.022  -2.983  -1.724  0.00  0.00    +0.086 C 
ATOM     17  C   UNL     1       1.996  -3.018  -0.545  0.00  0.00    +0.023 C 
ATOM     18  C   UNL     1       3.120  -4.014  -0.842  0.00  0.00    +0.002 C 
ATOM     19  C   UNL     1       3.865  -3.581  -2.106  0.00  0.00    +0.000 C 
ATOM     20  C   UNL     1       2.890  -3.546  -3.285  0.00  0.00    +0.002 C 
ATOM     21  C   UNL     1       1.767  -2.550  -2.989  0.00  0.00    +0.023 C 
ENDBRANCH   4  16
BRANCH   1  23
ATOM     22  N   UNL     1       0.659   2.000  -0.622  0.00  0.00    -0.294 NA
ATOM     23  C   UNL     1      -0.608   1.545  -0.706  0.00  0.00    +0.099 C 
BRANCH  22  24
ATOM     24  C   UNL     1       0.912   3.421  -0.374  0.00  0.00    +0.144 C 
BRANCH  24  30
ATOM     25  C   UNL     1       5.584   5.168   1.824  0.00  0.00    +0.218 C 
ATOM     26  O   UNL     1       5.715   6.373   1.860  0.00  0.00    -0.275 OA
ATOM     27  N   UNL     1       4.801   4.603   0.884  0.00  0.00    -0.301 N 
ATOM     28  C   UNL     1       4.197   5.420  -0.178  0.00  0.00    +0.108 C 
ATOM     29  C   UNL     1       2.686   5.171  -0.191  0.00  0.00    +0.024 C 
ATOM     30  C   UNL     1       2.421   3.670  -0.325  0.00  0.00    +0.013 C 
ATOM     31  C   UNL     1       3.020   2.935   0.876  0.00  0.00    +0.024 C 
ATOM     32  C   UNL     1       4.535   3.158   0.901  0.00  0.00    +0.108 C 
BRANCH  25  34
ATOM     33  C   UNL     1       7.654   4.924   3.168  0.00  0.00    +0.017 C 
ATOM     34  C   UNL     1       6.297   4.303   2.831  0.00  0.00    +0.069 C 
ATOM     35  C   UNL     1       5.454   4.200   4.103  0.00  0.00    +0.017 C 
ENDBRANCH  25  34
ENDBRANCH  24  30
ENDBRANCH  22  24
ENDBRANCH   1  23
TORSDOF 6
