REMARK  Name = ZINC12402842
REMARK  11 active torsions:
REMARK  status: ('A' for Active; 'I' for Inactive)
REMARK    1  A    between atoms: C_1  and  C_2
REMARK    2  A    between atoms: C_15  and  O_37
REMARK    3  A    between atoms: C_18  and  C_36
REMARK    4  A    between atoms: C_23  and  C_24
REMARK    5  A    between atoms: C_23  and  O_35
REMARK    6  A    between atoms: C_24  and  C_26
REMARK    7  A    between atoms: C_26  and  O_27
REMARK    8  A    between atoms: O_27  and  C_28
REMARK    9  A    between atoms: C_28  and  C_30
REMARK   10  A    between atoms: C_30  and  C_31
REMARK   11  A    between atoms: C_31  and  C_32
REMARK                            x       y       z     vdW  Elec       q    Type
REMARK                         _______ _______ _______ _____ _____    ______ ____
ROOT
ATOM      1  C   UNL     1       0.417   1.972  -0.160  0.00  0.00    +0.016 C 
ATOM      2  C   UNL     1       0.257   0.455  -0.054  0.00  0.00    -0.005 C 
ATOM      3  C   UNL     1      -1.241   0.122   0.036  0.00  0.00    +0.019 C 
ATOM      4  C   UNL     1      -1.865   0.831   1.238  0.00  0.00    +0.080 C 
ATOM      5  C   UNL     1      -1.077   0.509   2.482  0.00  0.00    +0.156 C 
ATOM      6  O   UNL     1      -1.584   0.660   3.576  0.00  0.00    -0.293 OA
ATOM      7  C   UNL     1       0.296   0.022   2.379  0.00  0.00    +0.046 C 
ATOM      8  C   UNL     1       0.926  -0.025   1.209  0.00  0.00    -0.060 C 
ATOM      9  C   UNL     1       2.326  -0.573   1.125  0.00  0.00    +0.032 C 
ATOM     10  C   UNL     1       2.341  -1.769   0.179  0.00  0.00    +0.008 C 
ATOM     11  C   UNL     1       1.340  -1.654  -0.945  0.00  0.00    -0.001 C 
ATOM     12  C   UNL     1       0.846  -0.249  -1.264  0.00  0.00    +0.031 C 
ATOM     13  C   UNL     1       1.784   0.584  -2.104  0.00  0.00    +0.119 C 
ATOM     14  C   UNL     1       2.217  -0.153  -3.386  0.00  0.00    +0.041 C 
ATOM     15  C   UNL     1       2.790  -1.501  -3.035  0.00  0.00    +0.009 C 
ATOM     16  C   UNL     1       1.772  -2.321  -2.223  0.00  0.00    +0.002 C 
ATOM     17  C   UNL     1       2.473  -3.683  -2.126  0.00  0.00    +0.008 C 
ATOM     18  C   UNL     1       3.047  -3.863  -3.562  0.00  0.00    +0.043 C 
ATOM     19  C   UNL     1       3.028  -2.459  -4.221  0.00  0.00    +0.133 C 
ATOM     20  C   UNL     1       4.145  -1.339  -2.349  0.00  0.00    +0.015 C 
ENDROOT
BRANCH  19  21
ATOM     21  C   UNL     1       4.356  -2.158  -4.860  0.00  0.00    +0.202 C 
ATOM     22  O   UNL     1       5.338  -2.781  -4.536  0.00  0.00    -0.291 OA
BRANCH  21  23
ATOM     23  C   UNL     1       4.461  -1.077  -5.906  0.00  0.00    +0.309 C 
BRANCH  23  24
ATOM     24  O   UNL     1       5.814  -0.982  -6.357  0.00  0.00    -0.457 OA
BRANCH  24  25
ATOM     25  C   UNL     1       6.079  -0.060  -7.296  0.00  0.00    +0.308 C 
ATOM     26  O   UNL     1       5.192   0.643  -7.721  0.00  0.00    -0.251 OA
BRANCH  25  27
ATOM     27  C   UNL     1       7.482   0.099  -7.821  0.00  0.00    +0.132 C 
BRANCH  27  28
ATOM     28  C   UNL     1       7.510   1.209  -8.874  0.00  0.00    +0.136 C 
BRANCH  28  29
ATOM     29  C   UNL     1       8.914   1.368  -9.399  0.00  0.00    +0.357 C 
ATOM     30  O   UNL     1       9.809   0.660  -8.971  0.00  0.00    -0.246 OA
ATOM     31  O   UNL     1       9.155   2.206 -10.252  0.00  0.00    -0.246 OA
ENDBRANCH  28  29
ENDBRANCH  27  28
ENDBRANCH  25  27
ENDBRANCH  24  25
ENDBRANCH  23  24
ENDBRANCH  21  23
ENDBRANCH  19  21
BRANCH  19  32
ATOM     32  O   UNL     1       1.967  -2.351  -5.164  0.00  0.00    -0.380 OA
ATOM     33  H   UNL     1       2.062  -2.931  -5.932  0.00  0.00    +0.211 HD
ENDBRANCH  19  32
BRANCH  13  34
ATOM     34  O   UNL     1       2.921   1.014  -1.367  0.00  0.00    -0.391 OA
ATOM     35  H   UNL     1       3.542   1.551  -1.879  0.00  0.00    +0.210 HD
ENDBRANCH  13  34
TORSDOF 9
