REMARK  Name = ZINC11997995
REMARK  13 active torsions:
REMARK  status: ('A' for Active; 'I' for Inactive)
REMARK    1  A    between atoms: C_1  and  C_2
REMARK    2  A    between atoms: C_2  and  C_33
REMARK    3  A    between atoms: N_7  and  C_10
REMARK    4  A    between atoms: C_13  and  S_16
REMARK    5  A    between atoms: S_16  and  N_19
REMARK    6  A    between atoms: N_19  and  C_20
REMARK    7  A    between atoms: C_20  and  C_21
REMARK    8  A    between atoms: C_21  and  C_23
REMARK    9  A    between atoms: C_21  and  N_62
REMARK   10  A    between atoms: C_26  and  O_29
REMARK   11  A    between atoms: O_29  and  C_30
REMARK   12  A    between atoms: C_31  and  N_62
REMARK   13  A    between atoms: C_32  and  N_62
REMARK                            x       y       z     vdW  Elec       q    Type
REMARK                         _______ _______ _______ _____ _____    ______ ____
ROOT
ATOM      1  S   UNL     1       3.069   3.043  -0.310  0.00  0.00    +0.058 S 
ATOM      2  O   UNL     1       2.238   3.939   0.415  0.00  0.00    -0.153 OA
ATOM      3  O   UNL     1       4.292   2.544   0.214  0.00  0.00    -0.153 OA
ENDROOT
BRANCH   1   7
ATOM      4  C   UNL     1       0.521  -0.564  -1.315  0.00  0.00    +0.059 A 
ATOM      5  C   UNL     1       1.903  -0.683  -1.254  0.00  0.00    +0.027 A 
ATOM      6  C   UNL     1       2.678   0.419  -0.949  0.00  0.00    +0.030 A 
ATOM      7  C   UNL     1       2.078   1.639  -0.699  0.00  0.00    +0.105 A 
ATOM      8  C   UNL     1       0.701   1.761  -0.755  0.00  0.00    +0.030 A 
ATOM      9  C   UNL     1      -0.079   0.662  -1.059  0.00  0.00    +0.027 A 
BRANCH   4  16
ATOM     10  C   UNL     1      -0.205  -5.202  -2.432  0.00  0.00    +0.022 C 
ATOM     11  C   UNL     1      -0.869  -3.834  -2.604  0.00  0.00    +0.064 C 
ATOM     12  C   UNL     1      -2.042  -3.692  -1.598  0.00  0.00    +0.205 C 
ATOM     13  S   UNL     1      -1.867  -1.905  -1.199  0.00  0.00    +0.053 S 
ATOM     14  O   UNL     1      -1.922  -1.690   0.204  0.00  0.00    -0.155 OA
ATOM     15  O   UNL     1      -2.625  -1.108  -2.100  0.00  0.00    -0.155 OA
ATOM     16  N   UNL     1      -0.266  -1.677  -1.630  0.00  0.00    -0.143 N 
ATOM     17  C   UNL     1       0.128  -2.748  -2.336  0.00  0.00    +0.246 C 
ATOM     18  O   UNL     1       1.267  -2.837  -2.744  0.00  0.00    -0.273 OA
ATOM     19  C   UNL     1      -1.398  -3.695  -4.033  0.00  0.00    +0.022 C 
ENDBRANCH   4  16
ENDBRANCH   1   7
BRANCH   1  20
ATOM     20  N   UNL     1       3.438   3.793  -1.740  0.00  0.00    -0.191 NA
ATOM     21  H   UNL     1       4.358   3.833  -2.043  0.00  0.00    +0.148 HD
BRANCH  20  22
ATOM     22  C   UNL     1       2.374   4.397  -2.546  0.00  0.00    +0.095 C 
BRANCH  22  23
ATOM     23  C   UNL     1       2.992   5.327  -3.592  0.00  0.00    -0.023 C 
BRANCH  23  24
ATOM     24  C   UNL     1       1.896   6.041  -4.340  0.00  0.00    -0.059 A 
ATOM     25  C   UNL     1       0.870   6.653  -3.643  0.00  0.00    +0.005 A 
ATOM     26  C   UNL     1      -0.133   7.313  -4.326  0.00  0.00    +0.046 A 
ATOM     27  C   UNL     1      -0.117   7.352  -5.712  0.00  0.00    +0.120 A 
ATOM     28  C   UNL     1       0.910   6.732  -6.410  0.00  0.00    +0.046 A 
ATOM     29  C   UNL     1       1.914   6.079  -5.722  0.00  0.00    +0.005 A 
BRANCH  27  30
ATOM     30  O   UNL     1      -1.106   7.995  -6.387  0.00  0.00    -0.495 OA
ATOM     31  C   UNL     1      -2.131   8.610  -5.604  0.00  0.00    +0.277 C 
ENDBRANCH  27  30
ENDBRANCH  23  24
BRANCH  23  34
ATOM     32  C   UNL     1       4.607   7.104  -3.903  0.00  0.00    -0.096 C 
ATOM     33  C   UNL     1       3.064   7.184  -2.039  0.00  0.00    -0.096 C 
ATOM     34  N   UNL     1       3.870   6.299  -2.907  0.00  0.00    +0.381 N 
ATOM     35  H   UNL     1       4.545   5.787  -2.326  0.00  0.00    -0.082 HD
ENDBRANCH  23  34
ENDBRANCH  22  23
ENDBRANCH  20  22
ENDBRANCH   1  20
TORSDOF 8
