REMARK  Name = ZINC02124182
REMARK  4 active torsions:
REMARK  status: ('A' for Active; 'I' for Inactive)
REMARK    1  A    between atoms: C_16  and  S_18
REMARK    2  A    between atoms: S_18  and  C_19
REMARK    3  A    between atoms: C_19  and  C_20
REMARK    4  A    between atoms: N_22  and  C_23
REMARK                            x       y       z     vdW  Elec       q    Type
REMARK                         _______ _______ _______ _____ _____    ______ ____
ROOT
ATOM      1  C   UNL     1      -0.471   5.813   0.090  0.00  0.00    +0.001 A 
ATOM      2  C   UNL     1      -1.774   6.278   0.109  0.00  0.00    +0.002 A 
ATOM      3  C   UNL     1      -2.824   5.371   0.112  0.00  0.00    +0.030 A 
ATOM      4  C   UNL     1      -2.559   4.033   0.097  0.00  0.00    +0.123 A 
ATOM      5  C   UNL     1      -1.251   3.530   0.077  0.00  0.00    +0.043 A 
ATOM      6  C   UNL     1      -0.202   4.463   0.075  0.00  0.00    +0.013 A 
ATOM      7  C   UNL     1      -1.221   2.060   0.063  0.00  0.00    +0.155 C 
ATOM      8  N   UNL     1      -2.338   1.404   0.063  0.00  0.00    -0.113 NA
ATOM      9  S   UNL     1      -3.547   2.561   0.093  0.00  0.00    +0.101 S 
ATOM     10  O   UNL     1      -4.202   2.477   1.351  0.00  0.00    -0.146 OA
ATOM     11  O   UNL     1      -4.230   2.502  -1.152  0.00  0.00    -0.146 OA
ATOM     12  N   UNL     1      -0.017   1.387   0.043  0.00  0.00    -0.275 N 
ATOM     13  C   UNL     1       0.002  -0.004   0.029  0.00  0.00    +0.188 A 
ATOM     14  N   UNL     1      -1.007  -0.853   0.036  0.00  0.00    -0.125 NA
ATOM     15  N   UNL     1      -0.763  -2.207   0.019  0.00  0.00    -0.133 NA
ATOM     16  C   UNL     1       0.481  -2.649  -0.004  0.00  0.00    +0.160 A 
ATOM     17  S   UNL     1       1.399  -1.117  -0.011  0.00  0.00    -0.024 S 
ATOM     18  H   UNL     1       0.816   1.883   0.035  0.00  0.00    +0.156 HD
ENDROOT
BRANCH  16  19
ATOM     19  S   UNL     1       1.076  -4.307  -0.030  0.00  0.00    -0.088 S 
BRANCH  19  20
ATOM     20  C   UNL     1      -0.432  -5.315  -0.017  0.00  0.00    +0.172 C 
BRANCH  20  21
ATOM     21  C   UNL     1      -0.060  -6.776  -0.037  0.00  0.00    +0.227 C 
ATOM     22  O   UNL     1       1.107  -7.104  -0.059  0.00  0.00    -0.275 OA
ATOM     23  N   UNL     1      -1.025  -7.717  -0.032  0.00  0.00    -0.285 N 
ATOM     24  H   UNL     1      -1.956  -7.457   0.053  0.00  0.00    +0.155 HD
BRANCH  23  25
ATOM     25  C   UNL     1      -0.684  -9.069  -0.149  0.00  0.00    +0.033 A 
ATOM     26  C   UNL     1      -1.518  -9.940  -0.838  0.00  0.00    +0.025 A 
ATOM     27  C   UNL     1      -1.177 -11.273  -0.955  0.00  0.00    +0.022 A 
ATOM     28  C   UNL     1      -0.010 -11.743  -0.379  0.00  0.00    +0.041 A 
ATOM     29  C   UNL     1       0.820 -10.879   0.313  0.00  0.00    +0.022 A 
ATOM     30  C   UNL     1       0.486  -9.544   0.429  0.00  0.00    +0.025 A 
ATOM     31 CL   UNL     1       0.413 -13.421  -0.523  0.00  0.00    -0.084 Cl
ENDBRANCH  23  25
ENDBRANCH  20  21
ENDBRANCH  19  20
ENDBRANCH  16  19
TORSDOF 4
