REMARK  Name = ZINC13269962
REMARK  11 active torsions:
REMARK  status: ('A' for Active; 'I' for Inactive)
REMARK    1  A    between atoms: C_1  and  C_2
REMARK    2  A    between atoms: C_4  and  C_29
REMARK    3  A    between atoms: C_6  and  S_9
REMARK    4  A    between atoms: C_7  and  C_8
REMARK    5  A    between atoms: S_9  and  N_12
REMARK    6  A    between atoms: N_12  and  C_13
REMARK    7  A    between atoms: C_13  and  C_15
REMARK    8  A    between atoms: C_13  and  C_23
REMARK    9  A    between atoms: C_18  and  O_21
REMARK   10  A    between atoms: O_21  and  C_22
REMARK   11  A    between atoms: N_27  and  C_28
REMARK                            x       y       z     vdW  Elec       q    Type
REMARK                         _______ _______ _______ _____ _____    ______ ____
ROOT
ATOM      1  N   UNL     1       0.996   4.242   1.185  0.00  0.00    -0.175 NA
ATOM      2  H   UNL     1       0.124   4.653   1.077  0.00  0.00    +0.149 HD
ENDROOT
BRANCH   1   3
ATOM      3  S   UNL     1       1.859   4.482   2.577  0.00  0.00    +0.060 S 
ATOM      4  O   UNL     1       1.086   5.358   3.387  0.00  0.00    -0.153 OA
ATOM      5  O   UNL     1       2.274   3.199   3.025  0.00  0.00    -0.153 OA
BRANCH   3  11
ATOM      6  C   UNL     1       4.264   8.746   0.746  0.00  0.00    +0.044 C 
ATOM      7  C   UNL     1       4.373   7.345   1.291  0.00  0.00    -0.045 A 
ATOM      8  C   UNL     1       5.614   6.761   1.442  0.00  0.00    +0.018 A 
ATOM      9  C   UNL     1       5.714   5.463   1.947  0.00  0.00    +0.065 A 
ATOM     10  C   UNL     1       4.555   4.765   2.295  0.00  0.00    +0.044 A 
ATOM     11  C   UNL     1       3.321   5.361   2.139  0.00  0.00    +0.109 A 
ATOM     12  C   UNL     1       3.229   6.646   1.632  0.00  0.00    -0.021 A 
ATOM     13  C   UNL     1       1.878   7.288   1.458  0.00  0.00    +0.046 C 
BRANCH   9  14
ATOM     14  C   UNL     1       7.039   4.830   2.111  0.00  0.00    +0.387 C 
ATOM     15  O   UNL     1       7.122   3.701   2.550  0.00  0.00    -0.241 OA
ATOM     16  O   UNL     1       8.154   5.506   1.774  0.00  0.00    -0.241 OA
ENDBRANCH   9  14
ENDBRANCH   3  11
ENDBRANCH   1   3
BRANCH   1  17
ATOM     17  C   UNL     1       1.549   3.407   0.115  0.00  0.00    +0.172 C 
BRANCH  17  18
ATOM     18  C   UNL     1       1.158   3.980  -1.223  0.00  0.00    -0.021 A 
ATOM     19  C   UNL     1      -0.115   4.487  -1.411  0.00  0.00    +0.009 A 
ATOM     20  C   UNL     1      -0.474   5.018  -2.635  0.00  0.00    +0.046 A 
ATOM     21  C   UNL     1       0.440   5.032  -3.678  0.00  0.00    +0.120 A 
ATOM     22  C   UNL     1       1.714   4.518  -3.489  0.00  0.00    +0.046 A 
ATOM     23  C   UNL     1       2.071   3.994  -2.261  0.00  0.00    +0.009 A 
BRANCH  21  24
ATOM     24  O   UNL     1       0.086   5.548  -4.885  0.00  0.00    -0.495 OA
ATOM     25  C   UNL     1      -1.242   6.059  -5.008  0.00  0.00    +0.277 C 
ENDBRANCH  21  24
ENDBRANCH  17  18
BRANCH  17  26
ATOM     26  C   UNL     1       1.008   2.006   0.239  0.00  0.00    +0.133 A 
ATOM     27  N   UNL     1      -0.235   1.690   0.480  0.00  0.00    -0.239 NA
ATOM     28  C   UNL     1      -0.352   0.355   0.522  0.00  0.00    +0.130 A 
ATOM     29  C   UNL     1       0.866  -0.177   0.300  0.00  0.00    +0.106 A 
ATOM     30  N   UNL     1       1.728   0.871   0.120  0.00  0.00    -0.336 N 
ATOM     31  C   UNL     1       3.165   0.777  -0.151  0.00  0.00    +0.150 C 
ENDBRANCH  17  26
ENDBRANCH   1  17
TORSDOF 7
