REMARK  Name = ZINC65050571
REMARK  6 active torsions:
REMARK  status: ('A' for Active; 'I' for Inactive)
REMARK    1  A    between atoms: C_1  and  O_2
REMARK    2  A    between atoms: O_2  and  C_3
REMARK    3  A    between atoms: C_3  and  C_4
REMARK    4  A    between atoms: C_6  and  C_9
REMARK    5  A    between atoms: N_11  and  C_12
REMARK    6  A    between atoms: C_15  and  N_18
REMARK                            x       y       z     vdW  Elec       q    Type
REMARK                         _______ _______ _______ _____ _____    ______ ____
ROOT
ATOM      1  C   UNL     1      -1.114  -5.186  -1.791  0.00  0.00    +0.267 C 
ATOM      2  O   UNL     1      -0.926  -6.373  -1.600  0.00  0.00    -0.268 OA
ATOM      3  N   UNL     1      -2.215  -4.776  -2.451  0.00  0.00    -0.280 N 
ATOM      4  H   UNL     1      -2.400  -3.829  -2.545  0.00  0.00    +0.155 HD
ENDROOT
BRANCH   3   5
ATOM      5  C   UNL     1      -3.092  -5.717  -3.001  0.00  0.00    +0.034 A 
ATOM      6  C   UNL     1      -3.737  -5.449  -4.201  0.00  0.00    +0.025 A 
ATOM      7  C   UNL     1      -4.602  -6.380  -4.742  0.00  0.00    +0.034 A 
ATOM      8  C   UNL     1      -4.826  -7.578  -4.090  0.00  0.00    +0.126 A 
ATOM      9  C   UNL     1      -4.185  -7.849  -2.894  0.00  0.00    +0.034 A 
ATOM     10  C   UNL     1      -3.315  -6.924  -2.351  0.00  0.00    +0.025 A 
BRANCH   8  11
ATOM     11  N   UNL     1      -5.754  -8.574  -4.672  0.00  0.00    +0.056 N 
ATOM     12  O   UNL     1      -6.315  -8.339  -5.716  0.00  0.00    -0.126 OA
ATOM     13  O   UNL     1      -5.950  -9.622  -4.102  0.00  0.00    -0.126 OA
ENDBRANCH   8  11
ENDBRANCH   3   5
BRANCH   1  16
ATOM     14  C   UNL     1       0.602  -2.072  -1.022  0.00  0.00    +0.105 A 
ATOM     15  N   UNL     1      -0.307  -2.885  -1.488  0.00  0.00    -0.237 NA
ATOM     16  C   UNL     1      -0.139  -4.198  -1.300  0.00  0.00    +0.133 A 
ATOM     17  C   UNL     1       0.993  -4.570  -0.625  0.00  0.00    +0.080 A 
ATOM     18  S   UNL     1       1.730  -3.093  -0.313  0.00  0.00    -0.077 S 
BRANCH  14  19
ATOM     19  C   UNL     1       0.634  -0.568  -1.108  0.00  0.00    +0.222 C 
BRANCH  19  21
ATOM     20  C   UNL     1      -0.044   1.417   0.052  0.00  0.00    +0.194 C 
ATOM     21  O   UNL     1      -0.019  -0.011   0.035  0.00  0.00    -0.376 OA
ENDBRANCH  19  21
ENDBRANCH  14  19
ENDBRANCH   1  16
TORSDOF 5
