REMARK  Name = ZINC65890438
REMARK  8 active torsions:
REMARK  status: ('A' for Active; 'I' for Inactive)
REMARK    1  A    between atoms: C_1  and  C_2
REMARK    2  A    between atoms: C_2  and  C_3
REMARK    3  A    between atoms: C_2  and  C_4
REMARK    4  A    between atoms: C_2  and  O_5
REMARK    5  A    between atoms: O_5  and  C_6
REMARK    6  A    between atoms: N_8  and  N_9
REMARK    7  A    between atoms: C_10  and  C_12
REMARK    8  A    between atoms: N_15  and  C_17
REMARK                            x       y       z     vdW  Elec       q    Type
REMARK                         _______ _______ _______ _____ _____    ______ ____
ROOT
ATOM      1  N   UNL     1       2.023  -1.296  -3.385  0.00  0.00    -0.228 N 
ATOM      2  C   UNL     1       2.712  -1.696  -4.472  0.00  0.00    +0.263 C 
ATOM      3  O   UNL     1       3.869  -1.353  -4.619  0.00  0.00    -0.269 OA
ATOM      4  H   UNL     1       1.100  -1.570  -3.267  0.00  0.00    +0.173 HD
ENDROOT
BRANCH   2   5
ATOM      5  C   UNL     1       2.062  -2.550  -5.483  0.00  0.00    +0.076 A 
ATOM      6  C   UNL     1       0.730  -3.022  -5.452  0.00  0.00    +0.148 A 
ATOM      7  N   UNL     1       0.531  -3.744  -6.520  0.00  0.00    -0.174 NA
ATOM      8  N   UNL     1       1.709  -3.770  -7.276  0.00  0.00    -0.238 N 
ATOM      9  C   UNL     1       2.639  -3.034  -6.640  0.00  0.00    +0.127 A 
BRANCH   8  10
ATOM     10  C   UNL     1       1.888  -4.445  -8.492  0.00  0.00    +0.084 A 
ATOM     11  C   UNL     1       3.114  -4.395  -9.140  0.00  0.00    +0.030 A 
ATOM     12  C   UNL     1       3.288  -5.061 -10.338  0.00  0.00    +0.022 A 
ATOM     13  C   UNL     1       2.241  -5.777 -10.892  0.00  0.00    +0.042 A 
ATOM     14  C   UNL     1       1.018  -5.828 -10.248  0.00  0.00    +0.042 A 
ATOM     15  C   UNL     1       0.840  -5.168  -9.047  0.00  0.00    +0.068 A 
ATOM     16 CL   UNL     1      -0.693  -5.238  -8.236  0.00  0.00    -0.081 Cl
ATOM     17 CL   UNL     1       2.464  -6.611 -12.398  0.00  0.00    -0.083 Cl
ENDBRANCH   8  10
ENDBRANCH   2   5
BRANCH   1  20
ATOM     18  C   UNL     1       1.952  -0.085  -1.337  0.00  0.00    +0.417 C 
ATOM     19  O   UNL     1       2.488   0.619  -0.503  0.00  0.00    -0.225 OA
ATOM     20  N   UNL     1       2.641  -0.485  -2.424  0.00  0.00    -0.199 N 
ATOM     21  H   UNL     1       3.564  -0.211  -2.541  0.00  0.00    +0.176 HD
BRANCH  18  22
ATOM     22  O   UNL     1       0.671  -0.465  -1.174  0.00  0.00    -0.444 OA
BRANCH  22  24
ATOM     23  C   UNL     1      -0.019   1.526   0.010  0.00  0.00    +0.055 C 
ATOM     24  C   UNL     1       0.002  -0.004   0.002  0.00  0.00    +0.107 C 
ATOM     25  C   UNL     1       0.742  -0.511   1.242  0.00  0.00    +0.055 C 
ATOM     26  C   UNL     1      -1.433  -0.534   0.013  0.00  0.00    +0.055 C 
ENDBRANCH  22  24
ENDBRANCH  18  22
ENDBRANCH   1  20
TORSDOF 5
