REMARK  Name = ZINC00341184
REMARK  5 active torsions:
REMARK  status: ('A' for Active; 'I' for Inactive)
REMARK    1  A    between atoms: C_9  and  C_12
REMARK    2  A    between atoms: C_12  and  N_37
REMARK    3  A    between atoms: C_13  and  C_14
REMARK    4  A    between atoms: C_13  and  N_37
REMARK    5  A    between atoms: C_17  and  N_20
REMARK                            x       y       z     vdW  Elec       q    Type
REMARK                         _______ _______ _______ _____ _____    ______ ____
ROOT
ATOM      1  N   UNL     1       4.396   1.330   2.030  0.00  0.00    +0.384 N 
ATOM      2  H   UNL     1       4.493   0.342   1.768  0.00  0.00    -0.085 HD
ATOM      3  H   UNL     1       3.969   1.396   2.962  0.00  0.00    -0.085 HD
ENDROOT
BRANCH   1   4
ATOM      4  C   UNL     1       3.530   2.011   1.049  0.00  0.00    -0.034 C 
BRANCH   4  13
ATOM      5  C   UNL     1      -1.144  -2.081  -0.356  0.00  0.00    +0.004 A 
ATOM      6  C   UNL     1       0.003  -2.775  -0.018  0.00  0.00    +0.004 A 
ATOM      7  C   UNL     1       1.151  -2.089   0.328  0.00  0.00    +0.049 A 
ATOM      8  C   UNL     1       1.156  -0.702   0.339  0.00  0.00    +0.162 A 
ATOM      9  C   UNL     1       0.002  -0.004   0.002  0.00  0.00    +0.162 A 
ATOM     10  C   UNL     1      -1.147  -0.699  -0.346  0.00  0.00    +0.049 A 
ATOM     11  O   UNL     1      -0.016   1.357   0.009  0.00  0.00    -0.485 OA
ATOM     12  C   UNL     1       1.254   2.018   0.001  0.00  0.00    +0.271 C 
ATOM     13  C   UNL     1       2.156   1.338   1.040  0.00  0.00    +0.194 C 
ATOM     14  O   UNL     1       2.296  -0.040   0.679  0.00  0.00    -0.484 OA
ENDBRANCH   4  13
ENDBRANCH   1   4
BRANCH   1  15
ATOM     15  C   UNL     1       5.729   1.959   2.060  0.00  0.00    -0.047 C 
BRANCH  15  16
ATOM     16  C   UNL     1       6.590   1.244   3.069  0.00  0.00    -0.064 A 
ATOM     17  C   UNL     1       6.615   1.671   4.383  0.00  0.00    +0.004 A 
ATOM     18  C   UNL     1       7.401   1.012   5.310  0.00  0.00    +0.033 A 
ATOM     19  C   UNL     1       8.170  -0.068   4.920  0.00  0.00    +0.126 A 
ATOM     20  C   UNL     1       8.149  -0.493   3.605  0.00  0.00    +0.033 A 
ATOM     21  C   UNL     1       7.359   0.163   2.679  0.00  0.00    +0.004 A 
BRANCH  19  22
ATOM     22  N   UNL     1       9.016  -0.771   5.911  0.00  0.00    +0.056 N 
ATOM     23  O   UNL     1       9.693  -1.723   5.568  0.00  0.00    -0.126 OA
ATOM     24  O   UNL     1       9.034  -0.397   7.070  0.00  0.00    -0.126 OA
ENDBRANCH  19  22
ENDBRANCH  15  16
ENDBRANCH   1  15
TORSDOF 5
