REMARK  Name = ZINC32690218
REMARK  6 active torsions:
REMARK  status: ('A' for Active; 'I' for Inactive)
REMARK    1  A    between atoms: C_1  and  N_2
REMARK    2  A    between atoms: N_2  and  C_3
REMARK    3  A    between atoms: C_5  and  C_10
REMARK    4  A    between atoms: C_10  and  N_11
REMARK    5  A    between atoms: C_12  and  C_14
REMARK    6  A    between atoms: C_14  and  N_15
REMARK                            x       y       z     vdW  Elec       q    Type
REMARK                         _______ _______ _______ _____ _____    ______ ____
ROOT
ATOM      1  N   UNL     1      -1.587  -2.894   0.520  0.00  0.00    -0.310 N 
ATOM      2  C   UNL     1      -1.915  -3.530   1.663  0.00  0.00    +0.235 C 
ATOM      3  O   UNL     1      -1.053  -4.059   2.332  0.00  0.00    -0.274 OA
ATOM      4  H   UNL     1      -2.277  -2.471  -0.015  0.00  0.00    +0.149 HD
ENDROOT
BRANCH   1   5
ATOM      5  C   UNL     1      -0.189  -2.842   0.087  0.00  0.00    +0.143 C 
BRANCH   5  10
ATOM      6  C   UNL     1      -1.567   0.417   0.462  0.00  0.00    +0.130 C 
ATOM      7  N   UNL     1      -0.246   0.001  -0.013  0.00  0.00    -0.323 N 
ATOM      8  C   UNL     1       0.949   0.311   0.777  0.00  0.00    +0.130 C 
ATOM      9  C   UNL     1      -0.125  -0.689  -1.214  0.00  0.00    +0.103 A 
ATOM     10  C   UNL     1      -0.093  -2.080  -1.210  0.00  0.00    +0.008 A 
ATOM     11  C   UNL     1       0.027  -2.753  -2.412  0.00  0.00    +0.010 A 
ATOM     12  C   UNL     1       0.113  -2.010  -3.582  0.00  0.00    +0.018 A 
ATOM     13  C   UNL     1       0.075  -0.632  -3.513  0.00  0.00    +0.084 A 
ATOM     14  N   UNL     1      -0.046  -0.016  -2.352  0.00  0.00    -0.349 N 
ATOM     15  H   UNL     1      -0.073   0.953  -2.331  0.00  0.00    +0.167 HD
ENDBRANCH   5  10
ENDBRANCH   1   5
BRANCH   2  16
ATOM     16  C   UNL     1      -3.354  -3.584   2.109  0.00  0.00    +0.243 C 
BRANCH  16  17
ATOM     17  N   UNL     1      -3.447  -4.325   3.369  0.00  0.00    -0.220 N 
ATOM     18  C   UNL     1      -3.345  -3.653   4.535  0.00  0.00    +0.275 A 
ATOM     19  O   UNL     1      -3.179  -2.446   4.543  0.00  0.00    -0.266 OA
ATOM     20  C   UNL     1      -3.441  -4.404   5.793  0.00  0.00    +0.050 A 
ATOM     21  C   UNL     1      -3.345  -3.779   7.035  0.00  0.00    +0.014 A 
ATOM     22  C   UNL     1      -3.442  -4.537   8.182  0.00  0.00    +0.001 A 
ATOM     23  C   UNL     1      -3.633  -5.911   8.110  0.00  0.00    +0.001 A 
ATOM     24  C   UNL     1      -3.729  -6.544   6.903  0.00  0.00    +0.010 A 
ATOM     25  C   UNL     1      -3.635  -5.803   5.724  0.00  0.00    +0.007 A 
ATOM     26  C   UNL     1      -3.732  -6.431   4.407  0.00  0.00    +0.141 A 
ATOM     27  N   UNL     1      -3.644  -5.705   3.332  0.00  0.00    -0.176 NA
ENDBRANCH  16  17
ENDBRANCH   2  16
TORSDOF 4
