REMARK  Name = ZINC12075748
REMARK  13 active torsions:
REMARK  status: ('A' for Active; 'I' for Inactive)
REMARK    1  A    between atoms: C_1  and  N_66
REMARK    2  A    between atoms: C_2  and  C_3
REMARK    3  A    between atoms: C_2  and  N_66
REMARK    4  A    between atoms: C_7  and  O_9
REMARK    5  A    between atoms: O_9  and  C_10
REMARK    6  A    between atoms: C_10  and  C_11
REMARK    7  A    between atoms: C_11  and  C_13
REMARK    8  A    between atoms: C_11  and  O_21
REMARK    9  A    between atoms: C_13  and  N_68
REMARK   10  A    between atoms: C_14  and  N_68
REMARK   11  A    between atoms: C_15  and  N_68
REMARK   12  A    between atoms: C_22  and  C_23
REMARK   13  A    between atoms: C_22  and  N_66
REMARK                            x       y       z     vdW  Elec       q    Type
REMARK                         _______ _______ _______ _____ _____    ______ ____
ROOT
ATOM      1  C   UNL     1      -4.126  -2.299   2.724  0.00  0.00    -0.060 A 
ATOM      2  C   UNL     1      -3.651  -3.306   3.545  0.00  0.00    +0.002 A 
ATOM      3  C   UNL     1      -3.865  -3.248   4.909  0.00  0.00    +0.004 A 
ATOM      4  C   UNL     1      -4.564  -2.189   5.455  0.00  0.00    +0.045 A 
ATOM      5  C   UNL     1      -5.047  -1.181   4.634  0.00  0.00    +0.121 A 
ATOM      6  C   UNL     1      -4.825  -1.238   3.265  0.00  0.00    +0.047 A 
ENDROOT
BRANCH   1   7
ATOM      7  C   UNL     1      -3.885  -2.363   1.238  0.00  0.00    -0.043 C 
BRANCH   7   9
ATOM      8  C   UNL     1      -1.477  -2.406   1.488  0.00  0.00    -0.095 C 
ATOM      9  N   UNL     1      -2.623  -1.658   0.929  0.00  0.00    +0.386 N 
ATOM     10  H   UNL     1      -2.650  -0.724   1.353  0.00  0.00    -0.081 HD
BRANCH   9  11
ATOM     11  C   UNL     1      -2.469  -1.517  -0.534  0.00  0.00    +0.019 C 
BRANCH  11  12
ATOM     12  C   UNL     1      -1.298  -0.610  -0.814  0.00  0.00    +0.180 A 
ATOM     13  N   UNL     1      -0.073  -1.010  -0.981  0.00  0.00    -0.215 NA
ATOM     14  C   UNL     1       0.714   0.076  -1.213  0.00  0.00    +0.109 A 
ATOM     15  C   UNL     1       2.078   0.246  -1.456  0.00  0.00    +0.031 A 
ATOM     16  C   UNL     1       2.583   1.510  -1.658  0.00  0.00    +0.002 A 
ATOM     17  C   UNL     1       1.746   2.615  -1.622  0.00  0.00    +0.004 A 
ATOM     18  C   UNL     1       0.396   2.462  -1.383  0.00  0.00    +0.048 A 
ATOM     19  C   UNL     1      -0.130   1.196  -1.177  0.00  0.00    +0.155 A 
ATOM     20  O   UNL     1      -1.371   0.725  -0.927  0.00  0.00    -0.442 OA
ENDBRANCH  11  12
ENDBRANCH   9  11
ENDBRANCH   7   9
ENDBRANCH   1   7
BRANCH   5  21
ATOM     21  O   UNL     1      -5.735  -0.138   5.168  0.00  0.00    -0.489 OA
BRANCH  21  22
ATOM     22  C   UNL     1      -5.925  -0.144   6.585  0.00  0.00    +0.258 C 
BRANCH  22  23
ATOM     23  C   UNL     1      -6.716   1.099   6.999  0.00  0.00    +0.135 C 
BRANCH  23  24
ATOM     24  O   UNL     1      -8.030   1.035   6.441  0.00  0.00    -0.390 OA
ATOM     25  H   UNL     1      -8.541   0.265   6.724  0.00  0.00    +0.210 HD
ENDBRANCH  23  24
BRANCH  23  26
ATOM     26  C   UNL     1      -6.812   1.157   8.525  0.00  0.00    -0.044 C 
BRANCH  26  28
ATOM     27  C   UNL     1      -7.976   2.287  10.322  0.00  0.00    -0.096 C 
ATOM     28  N   UNL     1      -7.558   2.374   8.907  0.00  0.00    +0.381 N 
ATOM     29  H   UNL     1      -8.395   2.452   8.316  0.00  0.00    -0.082 HD
BRANCH  28  30
ATOM     30  C   UNL     1      -6.713   3.570   8.703  0.00  0.00    -0.069 C 
ATOM     31  C   UNL     1      -5.492   3.527   9.623  0.00  0.00    -0.015 C 
ATOM     32  C   UNL     1      -4.637   4.775   9.393  0.00  0.00    -0.002 C 
ATOM     33  C   UNL     1      -5.464   6.024   9.701  0.00  0.00    -0.000 C 
ATOM     34  C   UNL     1      -6.686   6.067   8.781  0.00  0.00    -0.002 C 
ATOM     35  C   UNL     1      -7.541   4.819   9.011  0.00  0.00    -0.015 C 
ENDBRANCH  28  30
ENDBRANCH  26  28
ENDBRANCH  23  26
ENDBRANCH  22  23
ENDBRANCH  21  22
ENDBRANCH   5  21
TORSDOF 11
