REMARK  Name = ZINC61224939
REMARK  6 active torsions:
REMARK  status: ('A' for Active; 'I' for Inactive)
REMARK    1  A    between atoms: C_1  and  N_2
REMARK    2  A    between atoms: C_6  and  C_7
REMARK    3  A    between atoms: N_9  and  N_10
REMARK    4  A    between atoms: C_11  and  C_13
REMARK    5  A    between atoms: C_13  and  C_14
REMARK    6  A    between atoms: C_14  and  N_15
REMARK                            x       y       z     vdW  Elec       q    Type
REMARK                         _______ _______ _______ _____ _____    ______ ____
ROOT
ATOM      1  N   UNL     1      -0.398   1.368   4.116  0.00  0.00    -0.234 N 
ATOM      2  C   UNL     1      -0.602   2.671   4.394  0.00  0.00    +0.231 C 
ATOM      3  O   UNL     1      -0.782   3.463   3.493  0.00  0.00    -0.274 OA
ATOM      4  H   UNL     1      -0.255   0.735   4.836  0.00  0.00    +0.173 HD
ENDROOT
BRANCH   1   7
ATOM      5  C   UNL     1      -0.189  -0.374   2.507  0.00  0.00    +0.277 C 
ATOM      6  O   UNL     1      -0.101  -1.183   3.412  0.00  0.00    -0.267 OA
ATOM      7  N   UNL     1      -0.393   0.929   2.785  0.00  0.00    -0.229 N 
ATOM      8  H   UNL     1      -0.536   1.562   2.065  0.00  0.00    +0.173 HD
BRANCH   5  14
ATOM      9  C   UNL     1       0.070  -3.305   1.538  0.00  0.00    +0.149 C 
ATOM     10  N   UNL     1       0.043  -2.118   0.680  0.00  0.00    -0.346 N 
ATOM     11  C   UNL     1       0.122  -2.119  -0.673  0.00  0.00    +0.086 A 
ATOM     12  C   UNL     1       0.065  -0.840  -1.116  0.00  0.00    +0.020 A 
ATOM     13  C   UNL     1      -0.054  -0.005  -0.001  0.00  0.00    +0.032 A 
ATOM     14  C   UNL     1      -0.072  -0.817   1.113  0.00  0.00    +0.106 A 
ENDBRANCH   5  14
ENDBRANCH   1   7
BRANCH   2  15
ATOM     15  C   UNL     1      -0.608   3.143   5.825  0.00  0.00    +0.119 C 
BRANCH  15  16
ATOM     16  C   UNL     1      -0.859   4.652   5.863  0.00  0.00    +0.138 C 
BRANCH  16  17
ATOM     17  N   UNL     1      -0.865   5.112   7.254  0.00  0.00    -0.274 N 
ATOM     18  C   UNL     1      -1.974   5.179   8.096  0.00  0.00    +0.090 A 
ATOM     19  C   UNL     1      -3.315   4.870   7.930  0.00  0.00    +0.030 A 
ATOM     20  C   UNL     1      -4.197   5.049   8.978  0.00  0.00    +0.002 A 
ATOM     21  C   UNL     1      -3.744   5.538  10.191  0.00  0.00    +0.004 A 
ATOM     22  C   UNL     1      -2.410   5.849  10.364  0.00  0.00    +0.048 A 
ATOM     23  C   UNL     1      -1.518   5.671   9.318  0.00  0.00    +0.157 A 
ATOM     24  O   UNL     1      -0.185   5.884   9.194  0.00  0.00    -0.407 OA
ATOM     25  C   UNL     1       0.203   5.541   7.956  0.00  0.00    +0.421 A 
ATOM     26  O   UNL     1       1.341   5.610   7.531  0.00  0.00    -0.223 OA
ENDBRANCH  16  17
ENDBRANCH  15  16
ENDBRANCH   2  15
TORSDOF 5
