REMARK  Name = ZINC57675991
REMARK  5 active torsions:
REMARK  status: ('A' for Active; 'I' for Inactive)
REMARK    1  A    between atoms: C_3  and  N_27
REMARK    2  A    between atoms: C_4  and  N_24
REMARK    3  A    between atoms: C_6  and  C_7
REMARK    4  A    between atoms: N_9  and  N_10
REMARK    5  A    between atoms: C_11  and  C_13
REMARK                            x       y       z     vdW  Elec       q    Type
REMARK                         _______ _______ _______ _____ _____    ______ ____
ROOT
ATOM      1  C   UNL     1      -1.405  -0.367  -0.551  0.00  0.00    +0.260 C 
ATOM      2  O   UNL     1      -1.533  -1.550  -0.802  0.00  0.00    -0.269 OA
ATOM      3  N   UNL     1      -2.485   0.438  -0.530  0.00  0.00    -0.230 N 
ATOM      4  H   UNL     1      -2.382   1.382  -0.330  0.00  0.00    +0.173 HD
ENDROOT
BRANCH   1  10
ATOM      5  C   UNL     1       0.085   1.545   0.020  0.00  0.00    +0.015 A 
ATOM      6  C   UNL     1       1.336   2.058   0.283  0.00  0.00    +0.029 A 
ATOM      7  C   UNL     1       2.449   1.225   0.261  0.00  0.00    +0.078 A 
ATOM      8  C   UNL     1       2.304  -0.128  -0.026  0.00  0.00    +0.151 A 
ATOM      9  C   UNL     1       1.056  -0.648  -0.290  0.00  0.00    +0.048 A 
ATOM     10  C   UNL     1      -0.065   0.186  -0.269  0.00  0.00    +0.040 A 
BRANCH   7  11
ATOM     11  N   UNL     1       3.717   1.749   0.528  0.00  0.00    -0.304 N 
ATOM     12  C   UNL     1       4.322   2.793  -0.125  0.00  0.00    +0.112 A 
ATOM     13  C   UNL     1       5.528   2.966   0.449  0.00  0.00    +0.130 A 
ATOM     14  N   UNL     1       5.662   2.055   1.425  0.00  0.00    -0.244 NA
ATOM     15  C   UNL     1       4.582   1.325   1.487  0.00  0.00    +0.204 A 
ENDBRANCH   7  11
BRANCH   8  16
ATOM     16  N   UNL     1       3.492  -1.010  -0.049  0.00  0.00    +0.058 N 
ATOM     17  O   UNL     1       4.543  -0.598  -0.482  0.00  0.00    -0.126 OA
ATOM     18  O   UNL     1       3.412  -2.143   0.366  0.00  0.00    -0.126 OA
ENDBRANCH   8  16
ENDBRANCH   1  10
BRANCH   3  19
ATOM     19  N   UNL     1      -3.756  -0.087  -0.798  0.00  0.00    -0.230 N 
ATOM     20  C   UNL     1      -4.836   0.719  -0.777  0.00  0.00    +0.267 C 
ATOM     21  O   UNL     1      -4.707   1.903  -0.526  0.00  0.00    -0.268 OA
ATOM     22  H   UNL     1      -3.858  -1.030  -0.999  0.00  0.00    +0.173 HD
BRANCH  20  23
ATOM     23  C   UNL     1      -6.166   0.169  -1.058  0.00  0.00    +0.076 A 
ATOM     24  C   UNL     1      -7.384   0.811  -1.093  0.00  0.00    +0.024 A 
ATOM     25  C   UNL     1      -8.508   0.025  -1.364  0.00  0.00    -0.036 A 
ATOM     26  C   UNL     1      -8.304  -1.295  -1.527  0.00  0.00    -0.006 A 
ATOM     27  S   UNL     1      -6.633  -1.503  -1.450  0.00  0.00    -0.088 S 
ATOM     28  C   UNL     1      -9.249  -2.463  -1.668  0.00  0.00    +0.043 C 
ATOM     29  C   UNL     1     -10.715  -2.035  -1.593  0.00  0.00    +0.005 C 
ATOM     30  C   UNL     1     -11.181  -1.458  -2.919  0.00  0.00    +0.000 C 
ATOM     31  C   UNL     1     -10.120  -0.621  -3.603  0.00  0.00    +0.000 C 
ATOM     32  C   UNL     1     -10.206   0.785  -3.001  0.00  0.00    +0.005 C 
ATOM     33  C   UNL     1      -9.860   0.709  -1.514  0.00  0.00    +0.036 C 
ENDBRANCH  20  23
ENDBRANCH   3  19
TORSDOF 5
