REMARK  Name = ZINC09152174
REMARK  6 active torsions:
REMARK  status: ('A' for Active; 'I' for Inactive)
REMARK    1  A    between atoms: C_1  and  C_2
REMARK    2  A    between atoms: C_7  and  S_15
REMARK    3  A    between atoms: C_12  and  C_14
REMARK    4  A    between atoms: S_15  and  N_18
REMARK    5  A    between atoms: C_21  and  C_24
REMARK    6  A    between atoms: N_29  and  C_32
REMARK                            x       y       z     vdW  Elec       q    Type
REMARK                         _______ _______ _______ _____ _____    ______ ____
ROOT
ATOM      1  N   UNL     1       6.085  -2.825  -2.224  0.00  0.00    -0.177 NA
ATOM      2  C   UNL     1       6.060  -2.274  -3.586  0.00  0.00    +0.110 C 
ATOM      3  C   UNL     1       6.366  -0.775  -3.517  0.00  0.00    +0.030 C 
ATOM      4  C   UNL     1       7.689  -0.562  -2.778  0.00  0.00    +0.078 C 
ATOM      5  C   UNL     1       7.569  -1.096  -1.349  0.00  0.00    +0.030 C 
ATOM      6  C   UNL     1       7.273  -2.594  -1.391  0.00  0.00    +0.110 C 
ENDROOT
BRANCH   4   7
ATOM      7  C   UNL     1       8.011   0.910  -2.739  0.00  0.00    +0.219 C 
ATOM      8  O   UNL     1       7.548   1.609  -1.862  0.00  0.00    -0.275 OA
ATOM      9  N   UNL     1       8.813   1.450  -3.677  0.00  0.00    -0.298 N 
ATOM     10  C   UNL     1       9.281   0.645  -4.814  0.00  0.00    +0.126 C 
ATOM     11  C   UNL     1       8.894   1.361  -6.114  0.00  0.00    +0.124 C 
ATOM     12  N   UNL     1       9.316   2.765  -6.020  0.00  0.00    -0.325 N 
ATOM     13  C   UNL     1       8.848   3.571  -4.883  0.00  0.00    +0.124 C 
ATOM     14  C   UNL     1       9.230   2.856  -3.586  0.00  0.00    +0.126 C 
BRANCH  12  15
ATOM     15  C   UNL     1      10.148   3.326  -6.994  0.00  0.00    +0.065 A 
ATOM     16  C   UNL     1       9.597   3.942  -8.109  0.00  0.00    +0.026 A 
ATOM     17  C   UNL     1      10.422   4.495  -9.070  0.00  0.00    +0.002 A 
ATOM     18  C   UNL     1      11.795   4.435  -8.923  0.00  0.00    +0.003 A 
ATOM     19  C   UNL     1      12.349   3.822  -7.814  0.00  0.00    +0.040 A 
ATOM     20  C   UNL     1      11.530   3.272  -6.845  0.00  0.00    +0.144 A 
ATOM     21  F   UNL     1      12.071   2.678  -5.759  0.00  0.00    -0.204 F 
ENDBRANCH  12  15
ENDBRANCH   4   7
BRANCH   1  22
ATOM     22  S   UNL     1       4.797  -3.684  -1.636  0.00  0.00    +0.061 S 
ATOM     23  O   UNL     1       5.302  -4.515  -0.600  0.00  0.00    -0.153 OA
ATOM     24  O   UNL     1       4.109  -4.206  -2.764  0.00  0.00    -0.153 OA
BRANCH  22  30
ATOM     25  C   UNL     1       0.277   2.082  -0.673  0.00  0.00    +0.029 C 
ATOM     26  C   UNL     1       0.165   0.584  -0.381  0.00  0.00    +0.083 C 
ATOM     27  C   UNL     1       0.690  -0.233  -1.572  0.00  0.00    +0.059 C 
ATOM     28  C   UNL     1       1.850  -1.023  -1.009  0.00  0.00    -0.022 A 
ATOM     29  C   UNL     1       2.706  -1.928  -1.609  0.00  0.00    +0.034 A 
ATOM     30  C   UNL     1       3.708  -2.530  -0.871  0.00  0.00    +0.106 A 
ATOM     31  C   UNL     1       3.852  -2.225   0.471  0.00  0.00    +0.030 A 
ATOM     32  C   UNL     1       3.001  -1.324   1.073  0.00  0.00    +0.026 A 
ATOM     33  C   UNL     1       1.986  -0.711   0.334  0.00  0.00    +0.040 A 
ATOM     34  N   UNL     1       1.026   0.220   0.748  0.00  0.00    -0.268 N 
ATOM     35  C   UNL     1       0.911   0.712   1.997  0.00  0.00    +0.217 C 
ATOM     36  O   UNL     1       1.736   0.425   2.840  0.00  0.00    -0.276 OA
ATOM     37  C   UNL     1      -0.241   1.617   2.348  0.00  0.00    +0.109 C 
ENDBRANCH  22  30
ENDBRANCH   1  22
TORSDOF 4
