REMARK  Name = ZINC22608397
REMARK  7 active torsions:
REMARK  status: ('A' for Active; 'I' for Inactive)
REMARK    1  A    between atoms: C_1  and  N_2
REMARK    2  A    between atoms: N_2  and  C_3
REMARK    3  A    between atoms: C_6  and  C_12
REMARK    4  A    between atoms: C_8  and  N_9
REMARK    5  A    between atoms: C_13  and  C_14
REMARK    6  A    between atoms: C_17  and  C_19
REMARK    7  A    between atoms: N_21  and  C_22
REMARK                            x       y       z     vdW  Elec       q    Type
REMARK                         _______ _______ _______ _____ _____    ______ ____
ROOT
ATOM      1  C   UNL     1       1.256   3.407   0.111  0.00  0.00    +0.030 C 
ATOM      2  C   UNL     1       2.420   4.085   0.033  0.00  0.00    +0.075 C 
ATOM      3 CL   UNL     1       3.925   3.221  -0.015  0.00  0.00    -0.081 Cl
ENDROOT
BRANCH   1   7
ATOM      4  C   UNL     1       1.279  -0.829   0.362  0.00  0.00    +0.058 A 
ATOM      5  C   UNL     1       0.324  -0.185  -0.419  0.00  0.00    +0.026 A 
ATOM      6  C   UNL     1       0.313   1.189  -0.504  0.00  0.00    +0.010 A 
ATOM      7  C   UNL     1       1.264   1.939   0.198  0.00  0.00    -0.021 A 
ATOM      8  C   UNL     1       2.222   1.288   0.983  0.00  0.00    +0.042 A 
ATOM      9  C   UNL     1       2.226  -0.087   1.061  0.00  0.00    +0.147 A 
BRANCH   4  11
ATOM     10  C   UNL     1       0.377  -3.008  -0.390  0.00  0.00    +0.125 C 
ATOM     11  N   UNL     1       1.286  -2.220   0.445  0.00  0.00    -0.345 N 
ATOM     12  H   UNL     1       1.975  -2.726   1.137  0.00  0.00    +0.146 HD
ENDBRANCH   4  11
BRANCH   9  13
ATOM     13  N   UNL     1       3.240  -0.777   1.891  0.00  0.00    +0.058 N 
ATOM     14  O   UNL     1       4.138  -0.139   2.409  0.00  0.00    -0.126 OA
ATOM     15  O   UNL     1       3.175  -1.982   2.054  0.00  0.00    -0.126 OA
ENDBRANCH   9  13
ENDBRANCH   1   7
BRANCH   2  16
ATOM     16  C   UNL     1       2.414   5.549  -0.011  0.00  0.00    +0.144 A 
ATOM     17  N   UNL     1       1.385   6.405   0.014  0.00  0.00    -0.140 NA
ATOM     18  N   UNL     1       1.563   7.653  -0.033  0.00  0.00    -0.136 NA
ATOM     19  C   UNL     1       2.781   8.187  -0.109  0.00  0.00    +0.187 A 
ATOM     20  S   UNL     1       3.780   6.701  -0.106  0.00  0.00    -0.040 S 
BRANCH  19  21
ATOM     21  C   UNL     1       3.189   9.598  -0.171  0.00  0.00    +0.275 C 
ATOM     22  O   UNL     1       4.369   9.887  -0.238  0.00  0.00    -0.268 OA
ATOM     23  N   UNL     1       2.257  10.570  -0.154  0.00  0.00    -0.280 N 
ATOM     24  H   UNL     1       1.196  10.313  -0.014  0.00  0.00    +0.155 HD
BRANCH  23  25
ATOM     25  C   UNL     1       2.637  11.906  -0.315  0.00  0.00    +0.034 A 
ATOM     26  C   UNL     1       1.943  12.912   0.346  0.00  0.00    +0.023 A 
ATOM     27  C   UNL     1       2.325  14.230   0.190  0.00  0.00    +0.002 A 
ATOM     28  C   UNL     1       3.390  14.550  -0.632  0.00  0.00    +0.000 A 
ATOM     29  C   UNL     1       4.079  13.552  -1.296  0.00  0.00    +0.002 A 
ATOM     30  C   UNL     1       3.706  12.231  -1.140  0.00  0.00    +0.023 A 
ENDBRANCH  23  25
ENDBRANCH  19  21
ENDBRANCH   2  16
TORSDOF 6
