REMARK  Name = ZINC12497772
REMARK  10 active torsions:
REMARK  status: ('A' for Active; 'I' for Inactive)
REMARK    1  A    between atoms: C_1  and  C_2
REMARK    2  A    between atoms: C_2  and  O_3
REMARK    3  A    between atoms: O_3  and  C_4
REMARK    4  A    between atoms: C_7  and  N_10
REMARK    5  A    between atoms: C_15  and  C_32
REMARK    6  A    between atoms: C_17  and  C_22
REMARK    7  A    between atoms: C_17  and  C_28
REMARK    8  A    between atoms: C_28  and  O_30
REMARK    9  A    between atoms: O_30  and  C_31
REMARK   10  A    between atoms: C_37  and  C_38
REMARK                            x       y       z     vdW  Elec       q    Type
REMARK                         _______ _______ _______ _____ _____    ______ ____
ROOT
ATOM      1  N   UNL     1      -2.453  -1.284  -0.356  0.00  0.00    -0.210 N 
ATOM      2  C   UNL     1      -1.583  -1.895  -1.214  0.00  0.00    +0.229 C 
ATOM      3  O   UNL     1      -1.855  -2.477  -2.243  0.00  0.00    -0.275 OA
ATOM      4  C   UNL     1      -0.216  -1.695  -0.618  0.00  0.00    +0.078 C 
ATOM      5  C   UNL     1       0.962  -1.287  -1.511  0.00  0.00    -0.026 C 
ATOM      6  C   UNL     1       0.832   0.205   0.376  0.00  0.00    +0.070 C 
ATOM      7  C   UNL     1      -0.503  -0.248  -0.046  0.00  0.00    +0.090 C 
ATOM      8  C   UNL     1      -1.825  -0.433   0.511  0.00  0.00    +0.229 C 
ATOM      9  O   UNL     1      -2.279   0.057   1.522  0.00  0.00    -0.275 OA
ATOM     10  N   UNL     1       1.752  -0.399  -0.632  0.00  0.00    +0.398 N 
ATOM     11  H   UNL     1       2.189   0.343  -1.191  0.00  0.00    -0.083 HD
ATOM     12  H   UNL     1       2.481  -0.942  -0.155  0.00  0.00    -0.083 HD
ENDROOT
BRANCH   5  13
ATOM     13  C   UNL     1       1.754  -2.497  -1.935  0.00  0.00    -0.058 A 
ATOM     14  C   UNL     1       1.583  -3.701  -1.277  0.00  0.00    +0.002 A 
ATOM     15  C   UNL     1       2.310  -4.810  -1.666  0.00  0.00    +0.000 A 
ATOM     16  C   UNL     1       3.208  -4.716  -2.713  0.00  0.00    +0.000 A 
ATOM     17  C   UNL     1       3.380  -3.512  -3.370  0.00  0.00    +0.003 A 
ATOM     18  C   UNL     1       2.649  -2.404  -2.985  0.00  0.00    -0.049 A 
ATOM     19  C   UNL     1       2.831  -1.093  -3.705  0.00  0.00    +0.044 C 
ENDBRANCH   5  13
BRANCH   1  23
ATOM     20  C   UNL     1      -6.567  -1.977  -0.358  0.00  0.00    +0.121 A 
ATOM     21  C   UNL     1      -5.752  -2.639  -1.264  0.00  0.00    +0.047 A 
ATOM     22  C   UNL     1      -4.391  -2.410  -1.264  0.00  0.00    +0.027 A 
ATOM     23  C   UNL     1      -3.837  -1.517  -0.357  0.00  0.00    +0.044 A 
ATOM     24  C   UNL     1      -4.652  -0.859   0.554  0.00  0.00    +0.027 A 
ATOM     25  C   UNL     1      -6.015  -1.085   0.549  0.00  0.00    +0.047 A 
BRANCH  20  26
ATOM     26  O   UNL     1      -7.908  -2.202  -0.359  0.00  0.00    -0.492 OA
BRANCH  26  28
ATOM     27  C   UNL     1     -10.161  -1.867   0.450  0.00  0.00    +0.048 C 
ATOM     28  C   UNL     1      -8.687  -1.486   0.602  0.00  0.00    +0.225 C 
ENDBRANCH  26  28
ENDBRANCH  20  26
ENDBRANCH   1  23
BRANCH   6  29
ATOM     29  C   UNL     1       0.915   1.709   0.339  0.00  0.00    -0.047 A 
ATOM     30  C   UNL     1      -0.211   2.470   0.594  0.00  0.00    +0.003 A 
ATOM     31  C   UNL     1      -0.134   3.850   0.566  0.00  0.00    +0.000 A 
ATOM     32  C   UNL     1       1.066   4.469   0.271  0.00  0.00    +0.000 A 
ATOM     33  C   UNL     1       2.190   3.709   0.010  0.00  0.00    +0.000 A 
ATOM     34  C   UNL     1       2.115   2.329   0.044  0.00  0.00    +0.003 A 
ENDBRANCH   6  29
BRANCH   6  35
ATOM     35  C   UNL     1       1.150  -0.305   1.758  0.00  0.00    +0.301 C 
ATOM     36  O   UNL     1       0.255  -0.546   2.533  0.00  0.00    -0.252 OA
BRANCH  35  37
ATOM     37  O   UNL     1       2.426  -0.492   2.127  0.00  0.00    -0.469 OA
ATOM     38  C   UNL     1       2.657  -0.986   3.473  0.00  0.00    +0.280 C 
ENDBRANCH  35  37
ENDBRANCH   6  35
TORSDOF 7
