REMARK  Name = ZINC04954334
REMARK  6 active torsions:
REMARK  status: ('A' for Active; 'I' for Inactive)
REMARK    1  A    between atoms: C_1  and  C_2
REMARK    2  A    between atoms: C_2  and  C_31
REMARK    3  A    between atoms: C_3  and  N_28
REMARK    4  A    between atoms: C_5  and  C_21
REMARK    5  A    between atoms: C_7  and  C_14
REMARK    6  A    between atoms: C_9  and  N_11
REMARK                            x       y       z     vdW  Elec       q    Type
REMARK                         _______ _______ _______ _____ _____    ______ ____
ROOT
ATOM      1  C   UNL     1       5.700  -0.939   0.724  0.00  0.00    +0.015 C 
ATOM      2  C   UNL     1       4.778  -0.005  -0.063  0.00  0.00    +0.017 C 
ATOM      3  C   UNL     1       5.250   1.441   0.104  0.00  0.00    +0.168 C 
ATOM      4  C   UNL     1       4.289   2.375  -0.635  0.00  0.00    -0.010 C 
ATOM      5  C   UNL     1       2.441   0.848  -0.280  0.00  0.00    -0.010 C 
ATOM      6  C   UNL     1       3.347  -0.132   0.469  0.00  0.00    +0.168 C 
ATOM      7  C   UNL     1       4.807  -0.386  -1.545  0.00  0.00    +0.015 C 
ATOM      8  N   UNL     1       2.929   2.227  -0.084  0.00  0.00    +0.391 N 
ATOM      9  H   UNL     1       2.297   2.880  -0.561  0.00  0.00    -0.084 HD
ATOM     10  H   UNL     1       2.946   2.439   0.921  0.00  0.00    -0.084 HD
ENDROOT
BRANCH   5  11
ATOM     11  C   UNL     1       1.036   0.742   0.254  0.00  0.00    -0.059 A 
ATOM     12  C   UNL     1       0.090   0.005  -0.434  0.00  0.00    +0.005 A 
ATOM     13  C   UNL     1      -1.200  -0.088   0.052  0.00  0.00    +0.038 A 
ATOM     14  C   UNL     1      -1.542   0.546   1.234  0.00  0.00    +0.123 A 
ATOM     15  C   UNL     1      -0.593   1.283   1.922  0.00  0.00    +0.038 A 
ATOM     16  C   UNL     1       0.695   1.380   1.432  0.00  0.00    +0.005 A 
ATOM     17  F   UNL     1      -2.802   0.451   1.713  0.00  0.00    -0.205 F 
ENDBRANCH   5  11
BRANCH   4  18
ATOM     18  C   UNL     1       4.282   2.030  -2.102  0.00  0.00    -0.059 A 
ATOM     19  C   UNL     1       5.450   1.627  -2.722  0.00  0.00    +0.005 A 
ATOM     20  C   UNL     1       5.444   1.305  -4.066  0.00  0.00    +0.038 A 
ATOM     21  C   UNL     1       4.269   1.397  -4.794  0.00  0.00    +0.123 A 
ATOM     22  C   UNL     1       3.102   1.806  -4.173  0.00  0.00    +0.038 A 
ATOM     23  C   UNL     1       3.109   2.122  -2.828  0.00  0.00    +0.005 A 
ATOM     24  F   UNL     1       4.263   1.089  -6.109  0.00  0.00    -0.205 F 
ENDBRANCH   4  18
BRANCH   6  25
ATOM     25  N   UNL     1       3.328   0.182   1.900  0.00  0.00    +0.025 N 
ATOM     26  O   UNL     1       2.947  -0.652   2.701  0.00  0.00    -0.131 OA
ATOM     27  O   UNL     1       3.694   1.277   2.289  0.00  0.00    -0.131 OA
ENDBRANCH   6  25
BRANCH   3  28
ATOM     28  N   UNL     1       6.597   1.583  -0.455  0.00  0.00    +0.025 N 
ATOM     29  O   UNL     1       7.152   0.623  -0.958  0.00  0.00    -0.131 OA
ATOM     30  O   UNL     1       7.161   2.662  -0.417  0.00  0.00    -0.131 OA
ENDBRANCH   3  28
TORSDOF 4
