REMARK  Name = ZINC49467264
REMARK  3 active torsions:
REMARK  status: ('A' for Active; 'I' for Inactive)
REMARK    1  A    between atoms: C_8  and  C_11
REMARK    2  A    between atoms: N_13  and  C_14
REMARK    3  A    between atoms: C_14  and  C_15
REMARK                            x       y       z     vdW  Elec       q    Type
REMARK                         _______ _______ _______ _____ _____    ______ ____
ROOT
ATOM      1  C   UNL     1      -0.017   1.397   0.010  0.00  0.00    +0.011 A 
ATOM      2  C   UNL     1       1.157   2.092   0.002  0.00  0.00    +0.021 A 
ATOM      3  C   UNL     1       2.376   1.423  -0.013  0.00  0.00    +0.043 A 
ATOM      4  C   UNL     1       2.420   0.045  -0.021  0.00  0.00    +0.046 A 
ATOM      5  C   UNL     1       1.235  -0.685  -0.013  0.00  0.00    +0.048 A 
ATOM      6  C   UNL     1       0.002  -0.004   0.002  0.00  0.00    +0.000 A 
ATOM      7  C   UNL     1      -1.014  -0.990   0.006  0.00  0.00    +0.040 A 
ATOM      8  C   UNL     1      -0.410  -2.207  -0.007  0.00  0.00    +0.103 A 
ATOM      9  N   UNL     1       0.961  -2.032  -0.019  0.00  0.00    -0.351 N 
ATOM     10  H   UNL     1       1.621  -2.743  -0.029  0.00  0.00    +0.166 HD
ATOM     11 CL   UNL     1       3.855   2.331  -0.024  0.00  0.00    -0.083 Cl
ENDROOT
BRANCH   8  12
ATOM     12  C   UNL     1      -1.104  -3.503  -0.007  0.00  0.00    +0.261 C 
ATOM     13  O   UNL     1      -2.320  -3.542   0.004  0.00  0.00    -0.269 OA
ATOM     14  N   UNL     1      -0.394  -4.648  -0.021  0.00  0.00    -0.306 N 
ATOM     15  H   UNL     1       0.576  -4.617  -0.029  0.00  0.00    +0.149 HD
BRANCH  14  16
ATOM     16  C   UNL     1      -1.085  -5.939  -0.021  0.00  0.00    +0.140 C 
BRANCH  16  17
ATOM     17  C   UNL     1      -0.070  -7.053  -0.037  0.00  0.00    -0.022 A 
ATOM     18  C   UNL     1       0.395  -7.561  -1.236  0.00  0.00    +0.028 A 
ATOM     19  C   UNL     1       1.309  -8.563  -1.214  0.00  0.00    +0.055 A 
ATOM     20  S   UNL     1       1.537  -8.817   0.538  0.00  0.00    -0.090 S 
ATOM     21  C   UNL     1       0.405  -7.567   1.123  0.00  0.00    +0.051 A 
ATOM     22 BR   UNL     1       2.128  -9.460  -2.664  0.00  0.00    -0.043 Br
ENDBRANCH  16  17
ENDBRANCH  14  16
ENDBRANCH   8  12
TORSDOF 3
