REMARK  Name = ZINC09115045
REMARK  5 active torsions:
REMARK  status: ('A' for Active; 'I' for Inactive)
REMARK    1  A    between atoms: C_1  and  C_2
REMARK    2  A    between atoms: C_2  and  C_4
REMARK    3  A    between atoms: C_9  and  N_10
REMARK    4  A    between atoms: C_11  and  C_13
REMARK    5  A    between atoms: N_28  and  C_31
REMARK                            x       y       z     vdW  Elec       q    Type
REMARK                         _______ _______ _______ _____ _____    ______ ____
ROOT
ATOM      1  C   UNL     1      -3.317  -1.117   0.587  0.00  0.00    +0.076 C 
ATOM      2  C   UNL     1      -4.003  -0.831   1.951  0.00  0.00    -0.003 C 
ATOM      3  C   UNL     1      -4.658  -2.196   2.268  0.00  0.00    -0.066 C 
ATOM      4  C   UNL     1      -4.763  -2.366   3.792  0.00  0.00    -0.017 C 
ATOM      5  C   UNL     1      -3.819  -3.541   4.135  0.00  0.00    -0.020 C 
ATOM      6  C   UNL     1      -2.832  -3.551   2.942  0.00  0.00    -0.077 C 
ATOM      7  C   UNL     1      -2.868  -2.580   0.727  0.00  0.00    +0.052 C 
ATOM      8  C   UNL     1      -3.000  -3.307  -0.585  0.00  0.00    -0.027 A 
ATOM      9  C   UNL     1      -4.069  -3.583  -1.407  0.00  0.00    +0.004 A 
ATOM     10  C   UNL     1      -3.875  -4.290  -2.581  0.00  0.00    +0.000 A 
ATOM     11  C   UNL     1      -2.605  -4.718  -2.924  0.00  0.00    +0.002 A 
ATOM     12  C   UNL     1      -1.532  -4.444  -2.102  0.00  0.00    +0.024 A 
ATOM     13  C   UNL     1      -1.719  -3.732  -0.919  0.00  0.00    +0.038 A 
ATOM     14  N   UNL     1      -0.808  -3.336   0.062  0.00  0.00    -0.275 N 
ATOM     15  C   UNL     1      -1.400  -2.656   1.061  0.00  0.00    +0.214 C 
ATOM     16  O   UNL     1      -0.857  -2.193   2.042  0.00  0.00    -0.276 OA
ATOM     17  C   UNL     1       0.627  -3.627   0.009  0.00  0.00    +0.138 C 
ATOM     18  N   UNL     1      -3.688  -3.182   1.799  0.00  0.00    +0.394 N 
ATOM     19  H   UNL     1      -4.173  -4.013   1.440  0.00  0.00    -0.079 HD
ENDROOT
BRANCH   1  21
ATOM     20  N   UNL     1      -1.677   0.039  -0.859  0.00  0.00    -0.285 N 
ATOM     21  C   UNL     1      -2.131  -0.211   0.386  0.00  0.00    +0.220 C 
ATOM     22  O   UNL     1      -1.583   0.294   1.343  0.00  0.00    -0.275 OA
ATOM     23  H   UNL     1      -2.159  -0.302  -1.628  0.00  0.00    +0.155 HD
BRANCH  20  29
ATOM     24  C   UNL     1       0.414   0.419  -2.029  0.00  0.00    +0.042 A 
ATOM     25  C   UNL     1       1.582   1.176  -2.200  0.00  0.00    +0.062 A 
ATOM     26  C   UNL     1       1.811   2.276  -1.403  0.00  0.00    +0.167 A 
ATOM     27  C   UNL     1       0.882   2.641  -0.423  0.00  0.00    +0.168 A 
ATOM     28  C   UNL     1      -0.275   1.899  -0.248  0.00  0.00    +0.073 A 
ATOM     29  C   UNL     1      -0.516   0.787  -1.040  0.00  0.00    +0.048 A 
ATOM     30  O   UNL     1       1.343   3.752   0.219  0.00  0.00    -0.453 OA
ATOM     31  C   UNL     1       2.746   3.824  -0.093  0.00  0.00    +0.466 C 
ATOM     32  O   UNL     1       2.850   3.163  -1.368  0.00  0.00    -0.453 OA
BRANCH  24  34
ATOM     33  C   UNL     1       1.149  -1.125  -3.952  0.00  0.00    +0.091 C 
ATOM     34  C   UNL     1       0.165  -0.752  -2.873  0.00  0.00    +0.162 C 
ATOM     35  O   UNL     1      -0.833  -1.420  -2.705  0.00  0.00    -0.292 OA
ENDBRANCH  24  34
ENDBRANCH  20  29
ENDBRANCH   1  21
TORSDOF 3
