REMARK  Name = ZINC58864170
REMARK  6 active torsions:
REMARK  status: ('A' for Active; 'I' for Inactive)
REMARK    1  A    between atoms: C_1  and  C_2
REMARK    2  A    between atoms: C_5  and  N_8
REMARK    3  A    between atoms: C_10  and  C_14
REMARK    4  A    between atoms: N_16  and  N_17
REMARK    5  A    between atoms: N_20  and  C_21
REMARK    6  A    between atoms: C_26  and  C_27
REMARK                            x       y       z     vdW  Elec       q    Type
REMARK                         _______ _______ _______ _____ _____    ______ ____
ROOT
ATOM      1  C   UNL     1       0.576  -7.477   1.390  0.00  0.00    +0.234 C 
ATOM      2  O   UNL     1       1.446  -7.161   2.174  0.00  0.00    -0.274 OA
ATOM      3  N   UNL     1       0.316  -8.780   1.162  0.00  0.00    -0.233 N 
ATOM      4  H   UNL     1      -0.380  -9.033   0.535  0.00  0.00    +0.173 HD
ENDROOT
BRANCH   1   7
ATOM      5  N   UNL     1       0.165  -4.186  -0.130  0.00  0.00    -0.271 N 
ATOM      6  C   UNL     1       0.254  -5.002   1.087  0.00  0.00    +0.127 C 
ATOM      7  C   UNL     1      -0.214  -6.414   0.672  0.00  0.00    +0.103 C 
ATOM      8  C   UNL     1       0.101  -6.418  -0.842  0.00  0.00    +0.110 C 
ATOM      9  C   UNL     1       0.078  -4.956  -1.228  0.00  0.00    +0.221 C 
ATOM     10  O   UNL     1      -0.004  -4.538  -2.364  0.00  0.00    -0.275 OA
BRANCH   5  15
ATOM     11  C   UNL     1       0.162   1.487  -0.187  0.00  0.00    +0.044 C 
ATOM     12  C   UNL     1       0.163  -0.020  -0.172  0.00  0.00    -0.050 A 
ATOM     13  C   UNL     1       0.183  -0.722  -1.363  0.00  0.00    +0.005 A 
ATOM     14  C   UNL     1       0.183  -2.103  -1.353  0.00  0.00    +0.024 A 
ATOM     15  C   UNL     1       0.165  -2.787  -0.144  0.00  0.00    +0.036 A 
ATOM     16  C   UNL     1       0.145  -2.079   1.051  0.00  0.00    +0.024 A 
ATOM     17  C   UNL     1       0.150  -0.698   1.033  0.00  0.00    +0.005 A 
ENDBRANCH   5  15
ENDBRANCH   1   7
BRANCH   3  18
ATOM     18  N   UNL     1       1.050  -9.768   1.830  0.00  0.00    -0.218 N 
ATOM     19  C   UNL     1       0.790 -11.071   1.602  0.00  0.00    +0.320 C 
ATOM     20  O   UNL     1       1.427 -11.929   2.182  0.00  0.00    -0.251 OA
ATOM     21  N   UNL     1      -0.177 -11.423   0.731  0.00  0.00    -0.268 N 
ATOM     22  H   UNL     1       1.746  -9.515   2.457  0.00  0.00    +0.174 HD
ATOM     23  H   UNL     1      -0.646 -10.741   0.226  0.00  0.00    +0.156 HD
BRANCH  21  24
ATOM     24  C   UNL     1      -0.503 -12.772   0.556  0.00  0.00    +0.038 A 
ATOM     25  C   UNL     1       0.440 -13.757   0.821  0.00  0.00    +0.023 A 
ATOM     26  C   UNL     1       0.115 -15.087   0.647  0.00  0.00    +0.002 A 
ATOM     27  C   UNL     1      -1.149 -15.440   0.209  0.00  0.00    +0.000 A 
ATOM     28  C   UNL     1      -2.090 -14.463  -0.055  0.00  0.00    +0.005 A 
ATOM     29  C   UNL     1      -1.773 -13.130   0.121  0.00  0.00    -0.029 A 
ATOM     30  C   UNL     1      -2.801 -12.065  -0.162  0.00  0.00    +0.045 C 
ENDBRANCH  21  24
ENDBRANCH   3  18
TORSDOF 4
