REMARK  Name = ZINC40008757
REMARK  6 active torsions:
REMARK  status: ('A' for Active; 'I' for Inactive)
REMARK    1  A    between atoms: C_1  and  C_2
REMARK    2  A    between atoms: C_2  and  C_3
REMARK    3  A    between atoms: C_2  and  C_4
REMARK    4  A    between atoms: C_10  and  C_26
REMARK    5  A    between atoms: C_30  and  O_32
REMARK    6  A    between atoms: O_32  and  C_33
REMARK                            x       y       z     vdW  Elec       q    Type
REMARK                         _______ _______ _______ _____ _____    ______ ____
ROOT
ATOM      1  C   UNL     1       0.707  -0.490  -1.238  0.00  0.00    +0.106 A 
ATOM      2  N   UNL     1       0.422  -0.288  -2.509  0.00  0.00    -0.144 NA
ATOM      3  N   UNL     1       1.123  -0.772  -3.440  0.00  0.00    -0.125 NA
ATOM      4  C   UNL     1       2.193  -1.516  -3.195  0.00  0.00    +0.191 A 
ATOM      5  S   UNL     1       2.177  -1.500  -1.405  0.00  0.00    -0.035 S 
ATOM      6  N   UNL     1       3.077  -2.126  -4.075  0.00  0.00    -0.230 N 
ATOM      7  C   UNL     1       3.012  -2.069  -5.545  0.00  0.00    +0.152 C 
ATOM      8  C   UNL     1       4.168  -2.877  -6.035  0.00  0.00    +0.072 A 
ATOM      9  C   UNL     1       4.619  -3.195  -7.394  0.00  0.00    +0.199 A 
ATOM     10  O   UNL     1       4.161  -2.663  -8.390  0.00  0.00    -0.287 OA
ATOM     11  C   UNL     1       5.686  -4.226  -7.441  0.00  0.00    +0.065 A 
ATOM     12  C   UNL     1       6.079  -4.779  -8.659  0.00  0.00    +0.030 A 
ATOM     13  C   UNL     1       7.067  -5.739  -8.683  0.00  0.00    +0.019 A 
ATOM     14  C   UNL     1       7.666  -6.152  -7.500  0.00  0.00    +0.019 A 
ATOM     15  C   UNL     1       7.286  -5.612  -6.292  0.00  0.00    +0.048 A 
ATOM     16  C   UNL     1       6.290  -4.636  -6.241  0.00  0.00    +0.140 A 
ATOM     17  O   UNL     1       5.944  -4.115  -5.042  0.00  0.00    -0.450 OA
ATOM     18  C   UNL     1       4.839  -3.350  -4.942  0.00  0.00    +0.199 A 
ATOM     19  C   UNL     1       4.148  -2.871  -3.733  0.00  0.00    +0.289 C 
ATOM     20  O   UNL     1       4.492  -3.113  -2.593  0.00  0.00    -0.266 OA
ATOM     21 BR   UNL     1       7.609  -6.496 -10.329  0.00  0.00    -0.050 Br
ENDROOT
BRANCH   7  22
ATOM     22  C   UNL     1       1.716  -2.665  -6.032  0.00  0.00    -0.019 A 
ATOM     23  C   UNL     1       1.191  -3.781  -5.406  0.00  0.00    +0.006 A 
ATOM     24  C   UNL     1       0.002  -4.330  -5.850  0.00  0.00    +0.004 A 
ATOM     25  C   UNL     1      -0.664  -3.765  -6.921  0.00  0.00    +0.045 A 
ATOM     26  C   UNL     1      -0.139  -2.645  -7.550  0.00  0.00    +0.120 A 
ATOM     27  C   UNL     1       1.051  -2.093  -7.098  0.00  0.00    +0.051 A 
BRANCH  26  28
ATOM     28  O   UNL     1      -0.792  -2.088  -8.603  0.00  0.00    -0.495 OA
ATOM     29  C   UNL     1      -2.015  -2.706  -9.009  0.00  0.00    +0.277 C 
ENDBRANCH  26  28
ENDBRANCH   7  22
BRANCH   1  31
ATOM     30  C   UNL     1      -0.019   1.526   0.010  0.00  0.00    +0.014 C 
ATOM     31  C   UNL     1       0.002  -0.004   0.002  0.00  0.00    +0.040 C 
ATOM     32  C   UNL     1      -1.433  -0.534   0.013  0.00  0.00    +0.014 C 
ENDBRANCH   1  31
TORSDOF 3
