REMARK  Name = ZINC33127804
REMARK  6 active torsions:
REMARK  status: ('A' for Active; 'I' for Inactive)
REMARK    1  A    between atoms: C_1  and  O_2
REMARK    2  A    between atoms: O_2  and  C_3
REMARK    3  A    between atoms: C_3  and  C_5
REMARK    4  A    between atoms: C_9  and  N_10
REMARK    5  A    between atoms: N_13  and  C_14
REMARK    6  A    between atoms: C_14  and  C_15
REMARK                            x       y       z     vdW  Elec       q    Type
REMARK                         _______ _______ _______ _____ _____    ______ ____
ROOT
ATOM      1  N   UNL     1      -0.668   1.540   7.205  0.00  0.00    -0.263 N 
ATOM      2  C   UNL     1      -1.208   1.903   6.024  0.00  0.00    +0.305 C 
ATOM      3  O   UNL     1      -2.215   2.584   5.999  0.00  0.00    -0.252 OA
ATOM      4  N   UNL     1      -0.630   1.511   4.871  0.00  0.00    -0.291 N 
ATOM      5  H   UNL     1       0.243   0.924   7.227  0.00  0.00    +0.157 HD
ATOM      6  H   UNL     1       0.281   0.895   4.893  0.00  0.00    +0.151 HD
ENDROOT
BRANCH   1  11
ATOM      7  C   UNL     1      -0.863   1.669   9.692  0.00  0.00    +0.091 A 
ATOM      8  C   UNL     1      -1.667   2.220  10.771  0.00  0.00    -0.021 A 
ATOM      9  C   UNL     1      -2.738   2.943  10.378  0.00  0.00    -0.004 A 
ATOM     10  S   UNL     1      -2.686   2.906   8.609  0.00  0.00    -0.077 S 
ATOM     11  C   UNL     1      -1.262   1.943   8.390  0.00  0.00    +0.087 A 
ATOM     12  C   UNL     1      -3.741   3.622  11.258  0.00  0.00    +0.043 C 
ATOM     13  C   UNL     1      -3.591   3.066  12.682  0.00  0.00    +0.005 C 
ATOM     14  C   UNL     1      -2.107   3.074  13.060  0.00  0.00    +0.005 C 
ATOM     15  C   UNL     1      -1.358   2.015  12.248  0.00  0.00    +0.037 C 
BRANCH   7  16
ATOM     16  C   UNL     1       0.324   0.858   9.968  0.00  0.00    +0.342 C 
ATOM     17  O   UNL     1       1.411   1.392  10.084  0.00  0.00    -0.245 OA
BRANCH  16  19
ATOM     18  C   UNL     1       1.432  -1.220  10.366  0.00  0.00    +0.280 C 
ATOM     19  O   UNL     1       0.213  -0.480  10.092  0.00  0.00    -0.464 OA
ENDBRANCH  16  19
ENDBRANCH   7  16
ENDBRANCH   1  11
BRANCH   4  20
ATOM     20  C   UNL     1      -1.216   1.905   3.587  0.00  0.00    +0.202 C 
BRANCH  20  21
ATOM     21  C   UNL     1      -0.387   1.342   2.462  0.00  0.00    +0.237 C 
ATOM     22  O   UNL     1       0.598   0.677   2.708  0.00  0.00    -0.274 OA
ATOM     23  N   UNL     1      -0.738   1.578   1.182  0.00  0.00    -0.270 N 
ATOM     24  C   UNL     1      -0.013   1.086   0.008  0.00  0.00    +0.118 C 
ATOM     25  C   UNL     1      -0.797   1.615  -1.204  0.00  0.00    +0.056 C 
ATOM     26  C   UNL     1      -1.947   2.393  -0.603  0.00  0.00    -0.024 A 
ATOM     27  C   UNL     1      -1.849   2.327   0.778  0.00  0.00    +0.040 A 
ATOM     28  C   UNL     1      -2.810   2.975   1.556  0.00  0.00    +0.024 A 
ATOM     29  C   UNL     1      -3.839   3.670   0.955  0.00  0.00    +0.002 A 
ATOM     30  C   UNL     1      -3.927   3.729  -0.423  0.00  0.00    +0.000 A 
ATOM     31  C   UNL     1      -2.979   3.089  -1.201  0.00  0.00    +0.005 A 
ENDBRANCH  20  21
ENDBRANCH   4  20
TORSDOF 5
