REMARK  Name = ZINC28572896
REMARK  8 active torsions:
REMARK  status: ('A' for Active; 'I' for Inactive)
REMARK    1  A    between atoms: C_1  and  C_2
REMARK    2  A    between atoms: C_2  and  C_3
REMARK    3  A    between atoms: C_9  and  C_28
REMARK    4  A    between atoms: C_10  and  C_12
REMARK    5  A    between atoms: C_12  and  O_14
REMARK    6  A    between atoms: O_14  and  C_15
REMARK    7  A    between atoms: C_15  and  C_16
REMARK    8  A    between atoms: N_18  and  C_19
REMARK                            x       y       z     vdW  Elec       q    Type
REMARK                         _______ _______ _______ _____ _____    ______ ____
ROOT
ATOM      1  O   UNL     1      -3.424  -2.491  -0.307  0.00  0.00    -0.450 OA
ENDROOT
BRANCH   1   2
ATOM      2  C   UNL     1      -4.483  -3.319  -0.415  0.00  0.00    +0.376 C 
ATOM      3  O   UNL     1      -5.611  -2.866  -0.421  0.00  0.00    -0.241 OA
BRANCH   2  11
ATOM      4  C   UNL     1      -4.125  -9.330  -0.891  0.00  0.00    -0.047 A 
ATOM      5  C   UNL     1      -2.765  -9.063  -0.817  0.00  0.00    +0.007 A 
ATOM      6  C   UNL     1      -2.307  -7.769  -0.694  0.00  0.00    +0.047 A 
ATOM      7  C   UNL     1      -3.213  -6.716  -0.643  0.00  0.00    +0.136 A 
ATOM      8  C   UNL     1      -4.591  -6.992  -0.718  0.00  0.00    +0.024 A 
ATOM      9  C   UNL     1      -5.034  -8.311  -0.842  0.00  0.00    +0.015 A 
ATOM     10  C   UNL     1      -5.261  -5.696  -0.633  0.00  0.00    +0.010 A 
ATOM     11  C   UNL     1      -4.273  -4.768  -0.525  0.00  0.00    +0.216 A 
ATOM     12  O   UNL     1      -3.071  -5.381  -0.529  0.00  0.00    -0.448 OA
ATOM     13  C   UNL     1      -6.745  -5.439  -0.662  0.00  0.00    +0.048 C 
BRANCH   4  15
ATOM     14  C   UNL     1      -4.709 -11.118  -2.506  0.00  0.00    +0.009 C 
ATOM     15  C   UNL     1      -4.602 -10.753  -1.024  0.00  0.00    +0.032 C 
ENDBRANCH   4  15
ENDBRANCH   2  11
ENDBRANCH   1   2
BRANCH   1  16
ATOM     16  C   UNL     1      -3.707  -1.071  -0.202  0.00  0.00    +0.328 C 
BRANCH  16  17
ATOM     17  C   UNL     1      -2.412  -0.308  -0.090  0.00  0.00    +0.255 C 
ATOM     18  O   UNL     1      -1.355  -0.903  -0.098  0.00  0.00    -0.272 OA
ATOM     19  N   UNL     1      -2.428   1.035   0.019  0.00  0.00    -0.283 N 
ATOM     20  H   UNL     1      -3.386   1.568   0.114  0.00  0.00    +0.155 HD
BRANCH  19  21
ATOM     21  C   UNL     1      -1.225   1.753   0.012  0.00  0.00    +0.037 A 
ATOM     22  C   UNL     1      -0.152   1.303  -0.747  0.00  0.00    +0.027 A 
ATOM     23  C   UNL     1       1.033   2.013  -0.760  0.00  0.00    +0.051 A 
ATOM     24  C   UNL     1       1.156   3.173  -0.012  0.00  0.00    +0.166 A 
ATOM     25  C   UNL     1       0.084   3.624   0.754  0.00  0.00    +0.168 A 
ATOM     26  C   UNL     1      -1.103   2.912   0.767  0.00  0.00    +0.072 A 
ATOM     27  O   UNL     1       0.455   4.774   1.389  0.00  0.00    -0.453 OA
ATOM     28  C   UNL     1       1.621   5.243   0.687  0.00  0.00    +0.466 C 
ATOM     29  O   UNL     1       2.199   4.042   0.144  0.00  0.00    -0.453 OA
ENDBRANCH  19  21
ENDBRANCH  16  17
ENDBRANCH   1  16
TORSDOF 6
