REMARK  Name = ZINC58406656
REMARK  9 active torsions:
REMARK  status: ('A' for Active; 'I' for Inactive)
REMARK    1  A    between atoms: C_1  and  C_2
REMARK    2  A    between atoms: C_2  and  N_3
REMARK    3  A    between atoms: N_3  and  C_4
REMARK    4  A    between atoms: N_3  and  C_21
REMARK    5  A    between atoms: C_4  and  C_5
REMARK    6  A    between atoms: C_5  and  N_6
REMARK    7  A    between atoms: N_9  and  C_10
REMARK    8  A    between atoms: C_13  and  N_16
REMARK    9  A    between atoms: C_26  and  C_27
REMARK                            x       y       z     vdW  Elec       q    Type
REMARK                         _______ _______ _______ _____ _____    ______ ____
ROOT
ATOM      1  N   UNL     1       2.581  -2.851   0.254  0.00  0.00    -0.298 N 
ATOM      2  C   UNL     1       2.527  -3.875   1.129  0.00  0.00    +0.304 C 
ATOM      3  O   UNL     1       1.451  -4.278   1.526  0.00  0.00    -0.253 OA
ATOM      4  N   UNL     1       3.665  -4.453   1.562  0.00  0.00    -0.269 N 
ATOM      5  H   UNL     1       3.440  -2.529  -0.063  0.00  0.00    +0.150 HD
ATOM      6  H   UNL     1       4.520  -4.166   1.206  0.00  0.00    +0.156 HD
ENDROOT
BRANCH   4   7
ATOM      7  C   UNL     1       3.612  -5.467   2.526  0.00  0.00    +0.035 A 
ATOM      8  C   UNL     1       4.605  -5.558   3.493  0.00  0.00    +0.025 A 
ATOM      9  C   UNL     1       4.552  -6.558   4.443  0.00  0.00    +0.030 A 
ATOM     10  C   UNL     1       3.508  -7.473   4.432  0.00  0.00    +0.069 A 
ATOM     11  C   UNL     1       2.515  -7.382   3.465  0.00  0.00    +0.030 A 
ATOM     12  C   UNL     1       2.564  -6.379   2.518  0.00  0.00    +0.025 A 
BRANCH  10  13
ATOM     13  N   UNL     1       3.455  -8.489   5.398  0.00  0.00    -0.200 N 
ATOM     14  C   UNL     1       2.518  -9.453   5.523  0.00  0.00    +0.250 A 
ATOM     15  N   UNL     1       2.851 -10.188   6.552  0.00  0.00    -0.116 NA
ATOM     16  N   UNL     1       3.935  -9.753   7.086  0.00  0.00    -0.023 NA
ATOM     17  N   UNL     1       4.369  -8.725   6.440  0.00  0.00    -0.039 NA
ENDBRANCH  10  13
ENDBRANCH   4   7
BRANCH   1  18
ATOM     18  C   UNL     1       1.344  -2.223  -0.217  0.00  0.00    +0.124 C 
BRANCH  18  19
ATOM     19  C   UNL     1       1.684  -1.096  -1.193  0.00  0.00    +0.124 C 
BRANCH  19  20
ATOM     20  N   UNL     1       0.459  -0.382  -1.562  0.00  0.00    -0.328 N 
BRANCH  20  21
ATOM     21  C   UNL     1      -0.231  -0.733  -2.725  0.00  0.00    +0.033 A 
ATOM     22  C   UNL     1       0.165  -0.213  -3.951  0.00  0.00    +0.023 A 
ATOM     23  C   UNL     1      -0.519  -0.562  -5.099  0.00  0.00    +0.002 A 
ATOM     24  C   UNL     1      -1.596  -1.427  -5.029  0.00  0.00    +0.000 A 
ATOM     25  C   UNL     1      -1.992  -1.946  -3.810  0.00  0.00    +0.005 A 
ATOM     26  C   UNL     1      -1.309  -1.606  -2.659  0.00  0.00    -0.029 A 
ATOM     27  C   UNL     1      -1.737  -2.176  -1.331  0.00  0.00    +0.045 C 
ENDBRANCH  20  21
BRANCH  20  29
ATOM     28  C   UNL     1       0.562   2.028  -1.163  0.00  0.00    +0.024 C 
ATOM     29  C   UNL     1      -0.044   0.698  -0.710  0.00  0.00    +0.102 C 
ENDBRANCH  20  29
ENDBRANCH  19  20
ENDBRANCH  18  19
ENDBRANCH   1  18
TORSDOF 7
