REMARK  Name = ZINC15440455
REMARK  7 active torsions:
REMARK  status: ('A' for Active; 'I' for Inactive)
REMARK    1  A    between atoms: C_1  and  C_2
REMARK    2  A    between atoms: C_5  and  C_8
REMARK    3  A    between atoms: C_10  and  C_13
REMARK    4  A    between atoms: C_13  and  S_14
REMARK    5  A    between atoms: S_14  and  C_15
REMARK    6  A    between atoms: N_19  and  C_20
REMARK    7  A    between atoms: C_23  and  O_26
REMARK                            x       y       z     vdW  Elec       q    Type
REMARK                         _______ _______ _______ _____ _____    ______ ____
ROOT
ATOM      1  S   UNL     1      -1.447   2.340   0.022  0.00  0.00    -0.075 S 
ENDROOT
BRANCH   1   2
ATOM      2  C   UNL     1      -0.016   1.312   0.009  0.00  0.00    +0.214 A 
ATOM      3  N   UNL     1       0.002  -0.004   0.002  0.00  0.00    -0.101 NA
ATOM      4  N   UNL     1       1.211  -0.438  -0.012  0.00  0.00    -0.022 NA
ATOM      5  N   UNL     1       2.042   0.548  -0.015  0.00  0.00    -0.038 NA
ATOM      6  N   UNL     1       1.276   1.727  -0.001  0.00  0.00    -0.187 N 
BRANCH   6   7
ATOM      7  C   UNL     1       1.746   3.049   0.002  0.00  0.00    +0.070 A 
ATOM      8  C   UNL     1       1.048   4.036  -0.681  0.00  0.00    +0.031 A 
ATOM      9  C   UNL     1       1.508   5.337  -0.674  0.00  0.00    +0.047 A 
ATOM     10  C   UNL     1       2.675   5.657   0.006  0.00  0.00    +0.117 A 
ATOM     11  C   UNL     1       3.376   4.670   0.684  0.00  0.00    +0.047 A 
ATOM     12  C   UNL     1       2.913   3.369   0.682  0.00  0.00    +0.031 A 
BRANCH  10  13
ATOM     13  O   UNL     1       3.131   6.938   0.008  0.00  0.00    -0.507 OA
ATOM     14  H   UNL     1       3.733   7.142  -0.720  0.00  0.00    +0.292 HD
ENDBRANCH  10  13
ENDBRANCH   6   7
ENDBRANCH   1   2
BRANCH   1  15
ATOM     15  C   UNL     1      -2.742   1.076   0.022  0.00  0.00    +0.176 C 
BRANCH  15  18
ATOM     16  C   UNL     1      -5.928   2.647  -0.525  0.00  0.00    +0.202 A 
ATOM     17  N   UNL     1      -4.795   2.095  -1.016  0.00  0.00    -0.191 NA
ATOM     18  C   UNL     1      -4.094   1.742   0.033  0.00  0.00    +0.238 A 
ATOM     19  O   UNL     1      -4.800   2.087   1.113  0.00  0.00    -0.337 OA
ATOM     20  N   UNL     1      -5.846   2.603   0.779  0.00  0.00    -0.056 NA
BRANCH  16  25
ATOM     21  C   UNL     1     -10.291   4.804  -3.606  0.00  0.00    +0.044 C 
ATOM     22  C   UNL     1      -9.150   4.239  -2.800  0.00  0.00    -0.050 A 
ATOM     23  C   UNL     1      -9.204   4.262  -1.418  0.00  0.00    +0.004 A 
ATOM     24  C   UNL     1      -8.161   3.747  -0.675  0.00  0.00    +0.012 A 
ATOM     25  C   UNL     1      -7.053   3.202  -1.319  0.00  0.00    +0.022 A 
ATOM     26  C   UNL     1      -7.000   3.186  -2.711  0.00  0.00    +0.012 A 
ATOM     27  C   UNL     1      -8.051   3.699  -3.445  0.00  0.00    +0.004 A 
ENDBRANCH  16  25
ENDBRANCH  15  18
ENDBRANCH   1  15
TORSDOF 6
