REMARK  Name = ZINC21425851
REMARK  9 active torsions:
REMARK  status: ('A' for Active; 'I' for Inactive)
REMARK    1  A    between atoms: C_1  and  C_2
REMARK    2  A    between atoms: C_2  and  C_3
REMARK    3  A    between atoms: C_2  and  S_14
REMARK    4  A    between atoms: N_5  and  C_6
REMARK    5  A    between atoms: C_6  and  C_12
REMARK    6  A    between atoms: S_14  and  C_15
REMARK    7  A    between atoms: C_16  and  C_24
REMARK    8  A    between atoms: C_18  and  C_22
REMARK    9  A    between atoms: C_19  and  N_21
REMARK                            x       y       z     vdW  Elec       q    Type
REMARK                         _______ _______ _______ _____ _____    ______ ____
ROOT
ATOM      1  C   UNL     1      -0.019   1.526   0.010  0.00  0.00    +0.029 C 
ATOM      2  C   UNL     1       0.002  -0.004   0.002  0.00  0.00    +0.135 C 
ENDROOT
BRANCH   2   3
ATOM      3  C   UNL     1       0.707  -0.490  -1.238  0.00  0.00    +0.227 C 
ATOM      4  O   UNL     1       1.864  -0.849  -1.176  0.00  0.00    -0.275 OA
ATOM      5  N   UNL     1       0.053  -0.526  -2.415  0.00  0.00    -0.296 N 
ATOM      6  H   UNL     1      -0.873  -0.239  -2.465  0.00  0.00    +0.150 HD
BRANCH   5   7
ATOM      7  C   UNL     1       0.738  -0.999  -3.621  0.00  0.00    +0.121 C 
ATOM      8  C   UNL     1       1.951  -0.109  -3.899  0.00  0.00    +0.041 C 
ATOM      9  C   UNL     1       2.667  -0.602  -5.158  0.00  0.00    +0.003 C 
ATOM     10  C   UNL     1       1.707  -0.542  -6.348  0.00  0.00    +0.000 C 
ATOM     11  C   UNL     1       0.494  -1.432  -6.069  0.00  0.00    +0.003 C 
ATOM     12  C   UNL     1      -0.222  -0.939  -4.810  0.00  0.00    +0.041 C 
BRANCH   7  13
ATOM     13  C   UNL     1       1.184  -2.387  -3.419  0.00  0.00    +0.088 C 
ATOM     14  N   UNL     1       1.528  -3.458  -3.264  0.00  0.00    -0.194 NA
ENDBRANCH   7  13
ENDBRANCH   5   7
ENDBRANCH   2   3
BRANCH   2  15
ATOM     15  S   UNL     1       0.879  -0.605   1.472  0.00  0.00    -0.092 S 
BRANCH  15  16
ATOM     16  C   UNL     1      -0.136  -0.087   2.816  0.00  0.00    +0.117 A 
ATOM     17  C   UNL     1       0.253  -0.386   4.137  0.00  0.00    +0.085 A 
ATOM     18  C   UNL     1      -0.559   0.030   5.194  0.00  0.00    +0.043 A 
ATOM     19  C   UNL     1      -1.731   0.729   4.895  0.00  0.00    +0.092 A 
ATOM     20  C   UNL     1      -2.050   0.988   3.547  0.00  0.00    +0.135 A 
ATOM     21  N   UNL     1      -1.252   0.583   2.572  0.00  0.00    -0.224 NA
BRANCH  20  22
ATOM     22  N   UNL     1      -3.205   1.678   3.240  0.00  0.00    -0.342 N 
ATOM     23  H   UNL     1      -3.792   1.981   3.950  0.00  0.00    +0.144 HD
ATOM     24  H   UNL     1      -3.430   1.859   2.314  0.00  0.00    +0.144 HD
ENDBRANCH  20  22
BRANCH  19  25
ATOM     25  C   UNL     1      -2.598   1.176   5.944  0.00  0.00    +0.103 C 
ATOM     26  N   UNL     1      -3.285   1.531   6.776  0.00  0.00    -0.191 NA
ENDBRANCH  19  25
BRANCH  17  27
ATOM     27  C   UNL     1       1.464  -1.106   4.392  0.00  0.00    +0.102 C 
ATOM     28  N   UNL     1       2.425  -1.677   4.595  0.00  0.00    -0.191 NA
ENDBRANCH  17  27
ENDBRANCH  15  16
ENDBRANCH   2  15
TORSDOF 8
