REMARK  Name = ZINC35514875
REMARK  9 active torsions:
REMARK  status: ('A' for Active; 'I' for Inactive)
REMARK    1  A    between atoms: C_1  and  C_2
REMARK    2  A    between atoms: C_2  and  O_3
REMARK    3  A    between atoms: O_3  and  C_4
REMARK    4  A    between atoms: C_7  and  C_13
REMARK    5  A    between atoms: C_9  and  O_10
REMARK    6  A    between atoms: O_10  and  C_11
REMARK    7  A    between atoms: C_11  and  C_12
REMARK    8  A    between atoms: C_20  and  C_36
REMARK    9  A    between atoms: C_32  and  C_35
REMARK                            x       y       z     vdW  Elec       q    Type
REMARK                         _______ _______ _______ _____ _____    ______ ____
ROOT
ATOM      1  C   UNL     1      -1.996  -6.097  -0.011  0.00  0.00    +0.151 C 
ATOM      2  C   UNL     1      -1.795  -6.633  -1.390  0.00  0.00    +0.072 A 
ATOM      3  C   UNL     1      -2.519  -6.380  -2.640  0.00  0.00    +0.199 A 
ATOM      4  O   UNL     1      -3.353  -5.501  -2.763  0.00  0.00    -0.287 OA
ATOM      5  C   UNL     1      -2.138  -7.298  -3.744  0.00  0.00    +0.065 A 
ATOM      6  C   UNL     1      -2.871  -7.319  -4.930  0.00  0.00    +0.018 A 
ATOM      7  C   UNL     1      -2.510  -8.174  -5.935  0.00  0.00    -0.050 A 
ATOM      8  C   UNL     1      -1.420  -9.018  -5.776  0.00  0.00    +0.007 A 
ATOM      9  C   UNL     1      -0.684  -9.009  -4.612  0.00  0.00    +0.047 A 
ATOM     10  C   UNL     1      -1.030  -8.145  -3.574  0.00  0.00    +0.139 A 
ATOM     11  O   UNL     1      -0.288  -8.146  -2.443  0.00  0.00    -0.450 OA
ATOM     12  C   UNL     1      -0.735  -7.494  -1.352  0.00  0.00    +0.199 A 
ATOM     13  C   UNL     1      -0.231  -7.545   0.031  0.00  0.00    +0.288 C 
ATOM     14  O   UNL     1       0.706  -8.221   0.406  0.00  0.00    -0.266 OA
ATOM     15  N   UNL     1      -0.962  -6.731   0.823  0.00  0.00    -0.238 N 
ATOM     16  C   UNL     1      -0.772  -6.527   2.187  0.00  0.00    +0.129 A 
ATOM     17  C   UNL     1      -1.672  -5.740   2.898  0.00  0.00    +0.044 A 
ATOM     18  C   UNL     1      -1.471  -5.545   4.253  0.00  0.00    +0.008 A 
ATOM     19  C   UNL     1      -0.372  -6.146   4.853  0.00  0.00    -0.032 A 
ATOM     20  C   UNL     1       0.481  -6.914   4.086  0.00  0.00    +0.116 A 
ATOM     21  N   UNL     1       0.261  -7.087   2.796  0.00  0.00    -0.240 NA
ATOM     22  C   UNL     1      -0.114  -5.960   6.326  0.00  0.00    +0.045 C 
ATOM     23  C   UNL     1      -3.299  -8.199  -7.218  0.00  0.00    +0.044 C 
ENDROOT
BRANCH   1  27
ATOM     24  C   UNL     1      -1.498  -1.849   0.006  0.00  0.00    +0.162 A 
ATOM     25  C   UNL     1      -0.389  -2.680  -0.003  0.00  0.00    +0.050 A 
ATOM     26  C   UNL     1      -0.553  -4.052  -0.008  0.00  0.00    +0.009 A 
ATOM     27  C   UNL     1      -1.823  -4.600  -0.005  0.00  0.00    -0.018 A 
ATOM     28  C   UNL     1      -2.934  -3.777   0.004  0.00  0.00    +0.055 A 
ATOM     29  C   UNL     1      -2.776  -2.400   0.016  0.00  0.00    +0.162 A 
BRANCH  24  30
ATOM     30  O   UNL     1      -1.339  -0.499   0.012  0.00  0.00    -0.489 OA
BRANCH  30  32
ATOM     31  C   UNL     1      -0.019   1.526   0.010  0.00  0.00    +0.048 C 
ATOM     32  C   UNL     1       0.002  -0.004   0.002  0.00  0.00    +0.226 C 
ENDBRANCH  30  32
ENDBRANCH  24  30
BRANCH  29  33
ATOM     33  O   UNL     1      -3.868  -1.589   0.030  0.00  0.00    -0.489 OA
BRANCH  33  34
ATOM     34  C   UNL     1      -5.148  -2.225   0.039  0.00  0.00    +0.226 C 
ATOM     35  C   UNL     1      -6.246  -1.159   0.055  0.00  0.00    +0.048 C 
ENDBRANCH  33  34
ENDBRANCH  29  33
ENDBRANCH   1  27
TORSDOF 5
