REMARK  Name = ZINC08555548
REMARK  8 active torsions:
REMARK  status: ('A' for Active; 'I' for Inactive)
REMARK    1  A    between atoms: C_1  and  C_2
REMARK    2  A    between atoms: C_2  and  C_4
REMARK    3  A    between atoms: C_7  and  N_10
REMARK    4  A    between atoms: C_11  and  C_13
REMARK    5  A    between atoms: C_13  and  N_24
REMARK    6  A    between atoms: C_14  and  C_15
REMARK    7  A    between atoms: C_19  and  N_21
REMARK    8  A    between atoms: C_25  and  C_27
REMARK                            x       y       z     vdW  Elec       q    Type
REMARK                         _______ _______ _______ _____ _____    ______ ____
ROOT
ATOM      1  C   UNL     1      -1.157   5.888  -0.107  0.00  0.00    +0.097 C 
ATOM      2  C   UNL     1       0.057   5.293  -0.046  0.00  0.00    +0.036 C 
ENDROOT
BRANCH   2   3
ATOM      3  C   UNL     1       0.161   3.827  -0.090  0.00  0.00    -0.021 A 
ATOM      4  C   UNL     1      -0.853   3.068  -0.685  0.00  0.00    +0.008 A 
ATOM      5  C   UNL     1      -0.745   1.694  -0.728  0.00  0.00    +0.003 A 
ATOM      6  C   UNL     1       0.358   1.065  -0.176  0.00  0.00    +0.033 A 
ATOM      7  C   UNL     1       1.365   1.809   0.414  0.00  0.00    +0.127 A 
ATOM      8  C   UNL     1       1.274   3.184   0.460  0.00  0.00    +0.040 A 
BRANCH   7   9
ATOM      9  N   UNL     1       2.542   1.127   0.997  0.00  0.00    +0.056 N 
ATOM     10  O   UNL     1       2.623  -0.088   0.956  0.00  0.00    -0.126 OA
ATOM     11  O   UNL     1       3.429   1.780   1.516  0.00  0.00    -0.126 OA
ENDBRANCH   7   9
ENDBRANCH   2   3
BRANCH   1  12
ATOM     12  N   UNL     1      -2.319   5.109  -0.082  0.00  0.00    -0.282 N 
ATOM     13  C   UNL     1      -3.192   5.169  -1.107  0.00  0.00    +0.214 C 
ATOM     14  O   UNL     1      -3.014   5.960  -2.010  0.00  0.00    -0.276 OA
ATOM     15  C   UNL     1      -4.390   4.255  -1.132  0.00  0.00    +0.109 C 
ATOM     16  H   UNL     1      -2.496   4.526   0.672  0.00  0.00    +0.155 HD
ENDBRANCH   1  12
BRANCH   1  18
ATOM     17  N   UNL     1      -2.465   7.943  -0.258  0.00  0.00    -0.280 N 
ATOM     18  C   UNL     1      -1.256   7.351  -0.198  0.00  0.00    +0.262 C 
ATOM     19  O   UNL     1      -0.245   8.028  -0.219  0.00  0.00    -0.268 OA
ATOM     20  H   UNL     1      -3.270   7.412  -0.157  0.00  0.00    +0.155 HD
BRANCH  17  24
ATOM     21  C   UNL     1      -2.743  12.041  -0.879  0.00  0.00    +0.017 A 
ATOM     22  C   UNL     1      -1.719  11.306  -1.489  0.00  0.00    +0.013 A 
ATOM     23  C   UNL     1      -1.631   9.959  -1.283  0.00  0.00    +0.024 A 
ATOM     24  C   UNL     1      -2.558   9.316  -0.466  0.00  0.00    +0.034 A 
ATOM     25  C   UNL     1      -3.581  10.042   0.139  0.00  0.00    +0.024 A 
ATOM     26  C   UNL     1      -3.673  11.390  -0.058  0.00  0.00    +0.013 A 
BRANCH  21  28
ATOM     27  C   UNL     1      -3.944  14.278  -0.439  0.00  0.00    +0.091 C 
ATOM     28  C   UNL     1      -2.841  13.490  -1.097  0.00  0.00    +0.160 C 
ATOM     29  O   UNL     1      -2.035  14.052  -1.808  0.00  0.00    -0.292 OA
ENDBRANCH  21  28
ENDBRANCH  17  24
ENDBRANCH   1  18
TORSDOF 6
