REMARK  Name = ZINC21600126
REMARK  5 active torsions:
REMARK  status: ('A' for Active; 'I' for Inactive)
REMARK    1  A    between atoms: C_1  and  N_2
REMARK    2  A    between atoms: N_5  and  C_14
REMARK    3  A    between atoms: C_14  and  C_15
REMARK    4  A    between atoms: N_17  and  C_18
REMARK    5  A    between atoms: C_23  and  N_24
REMARK                            x       y       z     vdW  Elec       q    Type
REMARK                         _______ _______ _______ _____ _____    ______ ____
ROOT
ATOM      1  C   UNL     1       1.320  -0.531  -0.011  0.00  0.00    +0.235 C 
ATOM      2  O   UNL     1       2.401   0.017   0.035  0.00  0.00    -0.274 OA
ATOM      3  N   UNL     1       0.191   0.192   0.128  0.00  0.00    -0.283 N 
ATOM      4  H   UNL     1      -0.785  -0.314   0.165  0.00  0.00    +0.155 HD
ENDROOT
BRANCH   3   5
ATOM      5  C   UNL     1       0.261   1.587   0.225  0.00  0.00    +0.055 A 
ATOM      6  C   UNL     1       1.336   2.188   0.864  0.00  0.00    +0.025 A 
ATOM      7  C   UNL     1       1.403   3.565   0.958  0.00  0.00    +0.002 A 
ATOM      8  C   UNL     1       0.400   4.348   0.416  0.00  0.00    +0.002 A 
ATOM      9  C   UNL     1      -0.674   3.759  -0.223  0.00  0.00    +0.025 A 
ATOM     10  C   UNL     1      -0.747   2.378  -0.327  0.00  0.00    +0.057 A 
BRANCH  10  11
ATOM     11  N   UNL     1      -1.832   1.778  -0.979  0.00  0.00    -0.270 N 
ATOM     12  C   UNL     1      -3.078   1.377  -0.315  0.00  0.00    +0.114 C 
ATOM     13  C   UNL     1      -4.108   1.189  -1.453  0.00  0.00    +0.029 C 
ATOM     14  C   UNL     1      -3.191   0.861  -2.654  0.00  0.00    +0.098 C 
ATOM     15  C   UNL     1      -1.865   1.492  -2.292  0.00  0.00    +0.220 C 
ATOM     16  O   UNL     1      -0.962   1.709  -3.072  0.00  0.00    -0.275 OA
ENDBRANCH  10  11
ENDBRANCH   3   5
BRANCH   1  17
ATOM     17  C   UNL     1       1.239  -2.021  -0.223  0.00  0.00    +0.214 C 
BRANCH  17  22
ATOM     18  C   UNL     1       5.462  -3.505  -2.387  0.00  0.00    +0.134 C 
ATOM     19  N   UNL     1       4.478  -3.231  -1.337  0.00  0.00    -0.274 N 
ATOM     20  C   UNL     1       3.250  -2.702  -1.501  0.00  0.00    +0.312 C 
ATOM     21  O   UNL     1       2.793  -2.376  -2.579  0.00  0.00    -0.252 OA
ATOM     22  N   UNL     1       2.591  -2.572  -0.343  0.00  0.00    -0.215 N 
ATOM     23  C   UNL     1       3.325  -3.015   0.699  0.00  0.00    +0.247 C 
ATOM     24  O   UNL     1       3.004  -3.034   1.867  0.00  0.00    -0.273 OA
ATOM     25  C   UNL     1       4.632  -3.484   0.101  0.00  0.00    +0.115 C 
ATOM     26  C   UNL     1       4.833  -4.972   0.364  0.00  0.00    +0.035 C 
ATOM     27  C   UNL     1       6.146  -5.433  -0.273  0.00  0.00    +0.003 C 
ATOM     28  C   UNL     1       7.307  -4.633   0.321  0.00  0.00    +0.000 C 
ATOM     29  C   UNL     1       7.104  -3.145   0.028  0.00  0.00    +0.003 C 
ATOM     30  C   UNL     1       5.794  -2.674   0.665  0.00  0.00    +0.035 C 
ENDBRANCH  17  22
ENDBRANCH   1  17
TORSDOF 4
