REMARK  Name = ZINC64021135
REMARK  4 active torsions:
REMARK  status: ('A' for Active; 'I' for Inactive)
REMARK    1  A    between atoms: C_12  and  S_13
REMARK    2  A    between atoms: S_13  and  N_16
REMARK    3  A    between atoms: N_16  and  C_17
REMARK    4  A    between atoms: C_23  and  C_25
REMARK                            x       y       z     vdW  Elec       q    Type
REMARK                         _______ _______ _______ _____ _____    ______ ____
ROOT
ATOM      1  S   UNL     1      -2.090  -0.536  -0.272  0.00  0.00    +0.059 S 
ATOM      2  O   UNL     1      -1.770  -1.754   0.385  0.00  0.00    -0.153 OA
ATOM      3  O   UNL     1      -3.151   0.306   0.159  0.00  0.00    -0.153 OA
ENDROOT
BRANCH   1  15
ATOM      4  C   UNL     1      -0.743   1.847  -0.358  0.00  0.00    +0.030 A 
ATOM      5  C   UNL     1       0.340   2.657  -0.349  0.00  0.00    +0.027 A 
ATOM      6  C   UNL     1       1.637   2.091  -0.232  0.00  0.00    +0.055 A 
ATOM      7  N   UNL     1       2.709   2.855  -0.221  0.00  0.00    -0.276 N 
ATOM      8  C   UNL     1       3.931   2.295  -0.108  0.00  0.00    +0.304 C 
ATOM      9  O   UNL     1       4.924   2.993  -0.097  0.00  0.00    -0.265 OA
ATOM     10  C   UNL     1       4.054   0.808   0.003  0.00  0.00    +0.304 C 
ATOM     11  O   UNL     1       5.147   0.291   0.105  0.00  0.00    -0.265 OA
ATOM     12  N   UNL     1       2.940   0.046  -0.011  0.00  0.00    -0.276 N 
ATOM     13  C   UNL     1       1.758   0.615  -0.122  0.00  0.00    +0.057 A 
ATOM     14  C   UNL     1       0.573  -0.165  -0.139  0.00  0.00    +0.053 A 
ATOM     15  C   UNL     1      -0.628   0.447  -0.253  0.00  0.00    +0.107 A 
ATOM     16  H   UNL     1       3.011  -0.919   0.060  0.00  0.00    +0.155 HD
ATOM     17  H   UNL     1       2.620   3.818  -0.294  0.00  0.00    +0.155 HD
ENDBRANCH   1  15
BRANCH   1  18
ATOM     18  N   UNL     1      -2.402  -0.919  -1.853  0.00  0.00    -0.187 NA
ATOM     19  H   UNL     1      -3.204  -0.583  -2.284  0.00  0.00    +0.148 HD
BRANCH  18  20
ATOM     20  C   UNL     1      -1.468  -1.765  -2.600  0.00  0.00    +0.079 C 
ATOM     21  C   UNL     1      -0.496  -0.881  -3.386  0.00  0.00    +0.039 C 
ATOM     22  C   UNL     1       0.500  -1.768  -4.138  0.00  0.00    +0.109 C 
ATOM     23  N   UNL     1      -0.248  -2.725  -4.964  0.00  0.00    -0.297 N 
ATOM     24  C   UNL     1      -1.272  -3.562  -4.324  0.00  0.00    +0.109 C 
ATOM     25  C   UNL     1      -2.249  -2.654  -3.570  0.00  0.00    +0.039 C 
ATOM     26  C   UNL     1      -0.000  -2.833  -6.285  0.00  0.00    +0.250 C 
ATOM     27  O   UNL     1      -0.578  -3.675  -6.945  0.00  0.00    -0.270 OA
BRANCH  26  28
ATOM     28  C   UNL     1       0.971  -1.931  -6.928  0.00  0.00    +0.074 A 
ATOM     29  C   UNL     1       2.275  -1.505  -6.399  0.00  0.00    +0.054 A 
ATOM     30  C   UNL     1       2.802  -0.691  -7.326  0.00  0.00    +0.195 A 
ATOM     31  O   UNL     1       1.947  -0.586  -8.355  0.00  0.00    -0.470 OA
ATOM     32  C   UNL     1       0.851  -1.320  -8.142  0.00  0.00    +0.207 A 
ENDBRANCH  26  28
ENDBRANCH  18  20
ENDBRANCH   1  18
TORSDOF 4
