REMARK  Name = ZINC59461224
REMARK  4 active torsions:
REMARK  status: ('A' for Active; 'I' for Inactive)
REMARK    1  A    between atoms: C_1  and  C_2
REMARK    2  A    between atoms: C_4  and  C_26
REMARK    3  A    between atoms: N_13  and  C_16
REMARK    4  A    between atoms: N_31  and  C_34
REMARK                            x       y       z     vdW  Elec       q    Type
REMARK                         _______ _______ _______ _____ _____    ______ ____
ROOT
ATOM      1  C   UNL     1      -0.018   1.503   0.010  0.00  0.00    +0.039 C 
ATOM      2  C   UNL     1       0.002  -0.004   0.002  0.00  0.00    -0.064 C 
ATOM      3  C   UNL     1       0.004  -0.592  -1.150  0.00  0.00    -0.023 C 
ATOM      4  C   UNL     1       0.029  -2.080  -1.304  0.00  0.00    +0.025 C 
ATOM      5  C   UNL     1      -0.442  -2.786  -0.051  0.00  0.00    +0.022 C 
ATOM      6  C   UNL     1       0.140  -2.215   1.226  0.00  0.00    +0.092 C 
ATOM      7  C   UNL     1       0.024  -0.693   1.315  0.00  0.00    +0.113 C 
ATOM      8  C   UNL     1      -1.273  -0.502   2.075  0.00  0.00    +0.234 C 
ATOM      9  O   UNL     1      -1.948   0.504   2.096  0.00  0.00    -0.274 OA
ATOM     10  N   UNL     1      -1.540  -1.651   2.721  0.00  0.00    -0.208 N 
ATOM     11  C   UNL     1      -0.728  -2.664   2.397  0.00  0.00    +0.230 C 
ATOM     12  O   UNL     1      -0.684  -3.745   2.944  0.00  0.00    -0.274 OA
ENDROOT
BRANCH  10  13
ATOM     13  C   UNL     1      -2.582  -1.780   3.647  0.00  0.00    +0.070 A 
ATOM     14  C   UNL     1      -3.835  -2.171   3.231  0.00  0.00    +0.026 A 
ATOM     15  C   UNL     1      -4.880  -2.303   4.141  0.00  0.00    +0.003 A 
ATOM     16  C   UNL     1      -4.692  -2.049   5.465  0.00  0.00    +0.010 A 
ATOM     17  C   UNL     1      -3.429  -1.649   5.929  0.00  0.00    +0.002 A 
ATOM     18  C   UNL     1      -2.355  -1.516   5.015  0.00  0.00    +0.093 A 
ATOM     19  N   UNL     1      -1.151  -1.140   5.453  0.00  0.00    -0.253 NA
ATOM     20  C   UNL     1      -0.933  -0.893   6.722  0.00  0.00    +0.111 A 
ATOM     21  C   UNL     1      -1.944  -1.009   7.675  0.00  0.00    +0.020 A 
ATOM     22  C   UNL     1      -3.201  -1.379   7.292  0.00  0.00    +0.011 A 
ENDBRANCH  10  13
BRANCH   4  23
ATOM     23  C   UNL     1      -0.881  -2.476  -2.468  0.00  0.00    +0.091 C 
ATOM     24  C   UNL     1      -0.841  -4.001  -2.694  0.00  0.00    +0.110 C 
ATOM     25  C   UNL     1      -0.299  -4.137  -4.100  0.00  0.00    +0.227 C 
ATOM     26  O   UNL     1      -0.106  -5.184  -4.681  0.00  0.00    -0.275 OA
ATOM     27  N   UNL     1      -0.065  -2.918  -4.602  0.00  0.00    -0.208 N 
ATOM     28  C   UNL     1      -0.359  -1.907  -3.769  0.00  0.00    +0.230 C 
ATOM     29  O   UNL     1      -0.227  -0.728  -4.018  0.00  0.00    -0.274 OA
BRANCH  27  30
ATOM     30  C   UNL     1       0.443  -2.713  -5.891  0.00  0.00    +0.070 A 
ATOM     31  C   UNL     1      -0.414  -2.571  -6.959  0.00  0.00    +0.026 A 
ATOM     32  C   UNL     1       0.077  -2.368  -8.245  0.00  0.00    +0.003 A 
ATOM     33  C   UNL     1       1.417  -2.304  -8.482  0.00  0.00    +0.010 A 
ATOM     34  C   UNL     1       2.323  -2.444  -7.418  0.00  0.00    +0.002 A 
ATOM     35  C   UNL     1       1.837  -2.646  -6.103  0.00  0.00    +0.093 A 
ATOM     36  N   UNL     1       2.695  -2.775  -5.088  0.00  0.00    -0.253 NA
ATOM     37  C   UNL     1       3.991  -2.714  -5.279  0.00  0.00    +0.111 A 
ATOM     38  C   UNL     1       4.536  -2.512  -6.546  0.00  0.00    +0.020 A 
ATOM     39  C   UNL     1       3.714  -2.384  -7.629  0.00  0.00    +0.011 A 
ENDBRANCH  27  30
ENDBRANCH   4  23
TORSDOF 3
