REMARK  Name = ZINC49543656
REMARK  10 active torsions:
REMARK  status: ('A' for Active; 'I' for Inactive)
REMARK    1  A    between atoms: C_1  and  O_2
REMARK    2  A    between atoms: O_2  and  C_3
REMARK    3  A    between atoms: C_8  and  O_9
REMARK    4  A    between atoms: O_9  and  C_10
REMARK    5  A    between atoms: N_12  and  C_15
REMARK    6  A    between atoms: C_15  and  C_16
REMARK    7  A    between atoms: C_20  and  O_23
REMARK    8  A    between atoms: O_23  and  C_24
REMARK    9  A    between atoms: C_24  and  C_25
REMARK   10  A    between atoms: N_27  and  C_28
REMARK                            x       y       z     vdW  Elec       q    Type
REMARK                         _______ _______ _______ _____ _____    ______ ____
ROOT
ATOM      1  C   UNL     1       4.856  -3.529   5.820  0.00  0.00    +0.092 A 
ATOM      2  C   UNL     1       6.178  -3.512   6.087  0.00  0.00    +0.094 A 
ATOM      3  C   UNL     1       6.975  -4.611   5.680  0.00  0.00    +0.226 A 
ATOM      4  O   UNL     1       8.176  -4.633   5.905  0.00  0.00    -0.284 OA
ATOM      5  C   UNL     1       6.338  -5.688   5.004  0.00  0.00    +0.202 A 
ATOM      6  C   UNL     1       5.008  -5.622   4.777  0.00  0.00    +0.244 A 
ATOM      7  O   UNL     1       4.294  -4.564   5.185  0.00  0.00    -0.466 OA
ENDROOT
BRANCH   1   8
ATOM      8  C   UNL     1       3.998  -2.366   6.248  0.00  0.00    -0.003 C 
BRANCH   8  16
ATOM      9  C   UNL     1       0.580  -0.640   1.094  0.00  0.00    +0.162 A 
ATOM     10  C   UNL     1       1.159   0.114   2.100  0.00  0.00    +0.053 A 
ATOM     11  C   UNL     1       1.805  -0.508   3.157  0.00  0.00    -0.044 A 
ATOM     12  C   UNL     1       1.870  -1.884   3.213  0.00  0.00    -0.057 A 
ATOM     13  C   UNL     1       1.293  -2.644   2.206  0.00  0.00    +0.051 A 
ATOM     14  C   UNL     1       0.643  -2.029   1.150  0.00  0.00    +0.162 A 
ATOM     15  C   UNL     1       2.554  -2.599   4.349  0.00  0.00    -0.042 C 
ATOM     16  N   UNL     1       3.459  -1.692   5.059  0.00  0.00    +0.387 N 
ATOM     17  C   UNL     1       2.711  -0.494   5.470  0.00  0.00    -0.073 C 
ATOM     18  C   UNL     1       2.425   0.352   4.229  0.00  0.00    +0.017 C 
ATOM     19  H   UNL     1       4.216  -1.424   4.449  0.00  0.00    -0.081 HD
BRANCH   9  21
ATOM     20  C   UNL     1      -0.078   1.403   0.068  0.00  0.00    +0.277 C 
ATOM     21  O   UNL     1      -0.053  -0.026   0.059  0.00  0.00    -0.491 OA
ENDBRANCH   9  21
BRANCH  14  22
ATOM     22  O   UNL     1       0.073  -2.778   0.169  0.00  0.00    -0.491 OA
ATOM     23  C   UNL     1       0.178  -4.198   0.294  0.00  0.00    +0.277 C 
ENDBRANCH  14  22
ENDBRANCH   8  16
ENDBRANCH   1   8
BRANCH   5  24
ATOM     24  O   UNL     1       7.057  -6.768   4.591  0.00  0.00    -0.476 OA
BRANCH  24  25
ATOM     25  C   UNL     1       6.341  -7.806   3.919  0.00  0.00    +0.325 C 
BRANCH  25  26
ATOM     26  C   UNL     1       7.295  -8.909   3.540  0.00  0.00    +0.255 C 
ATOM     27  O   UNL     1       8.472  -8.816   3.817  0.00  0.00    -0.272 OA
ATOM     28  N   UNL     1       6.839 -10.000   2.892  0.00  0.00    -0.283 N 
ATOM     29  H   UNL     1       5.889 -10.106   2.729  0.00  0.00    +0.155 HD
BRANCH  28  30
ATOM     30  C   UNL     1       7.739 -10.981   2.453  0.00  0.00    +0.037 A 
ATOM     31  C   UNL     1       7.506 -11.653   1.262  0.00  0.00    +0.027 A 
ATOM     32  C   UNL     1       8.392 -12.621   0.828  0.00  0.00    +0.051 A 
ATOM     33  C   UNL     1       9.515 -12.922   1.581  0.00  0.00    +0.166 A 
ATOM     34  C   UNL     1       9.752 -12.249   2.777  0.00  0.00    +0.168 A 
ATOM     35  C   UNL     1       8.866 -11.276   3.208  0.00  0.00    +0.072 A 
ATOM     36  O   UNL     1      10.909 -12.723   3.323  0.00  0.00    -0.453 OA
ATOM     37  C   UNL     1      11.163 -13.976   2.660  0.00  0.00    +0.466 C 
ATOM     38  O   UNL     1      10.525 -13.819   1.378  0.00  0.00    -0.453 OA
ENDBRANCH  28  30
ENDBRANCH  25  26
ENDBRANCH  24  25
ENDBRANCH   5  24
TORSDOF 8
