REMARK  Name = ZINC36061386
REMARK  17 active torsions:
REMARK  status: ('A' for Active; 'I' for Inactive)
REMARK    1  A    between atoms: C_1  and  C_2
REMARK    2  A    between atoms: C_3  and  C_29
REMARK    3  A    between atoms: C_4  and  C_19
REMARK    4  A    between atoms: C_7  and  C_12
REMARK    5  A    between atoms: C_13  and  N_15
REMARK    6  A    between atoms: N_15  and  C_16
REMARK    7  A    between atoms: C_16  and  C_17
REMARK    8  A    between atoms: C_16  and  C_18
REMARK    9  A    between atoms: C_22  and  O_27
REMARK   10  A    between atoms: C_23  and  O_25
REMARK   11  A    between atoms: O_25  and  C_26
REMARK   12  A    between atoms: O_27  and  C_28
REMARK   13  A    between atoms: C_29  and  O_31
REMARK   14  A    between atoms: O_31  and  C_32
REMARK   15  A    between atoms: C_32  and  C_33
REMARK   16  A    between atoms: C_32  and  C_34
REMARK   17  A    between atoms: C_32  and  C_35
REMARK                            x       y       z     vdW  Elec       q    Type
REMARK                         _______ _______ _______ _____ _____    ______ ____
ROOT
ATOM      1  C   UNL     1      -1.226   1.442   0.172  0.00  0.00    +0.066 C 
ATOM      2  C   UNL     1      -0.928  -0.030   0.296  0.00  0.00    +0.053 C 
ATOM      3  C   UNL     1      -1.968  -0.937   0.376  0.00  0.00    +0.083 C 
ATOM      4  C   UNL     1      -1.617  -2.403   0.499  0.00  0.00    +0.150 C 
ATOM      5  N   UNL     1      -0.172  -2.754   0.524  0.00  0.00    -0.267 N 
ATOM      6  C   UNL     1       0.375  -4.017   0.629  0.00  0.00    +0.048 C 
ATOM      7  C   UNL     1       1.722  -4.119   0.633  0.00  0.00    +0.072 C 
ATOM      8  S   UNL     1       2.221  -2.414   0.488  0.00  0.00    -0.060 S 
ATOM      9  C   UNL     1       0.700  -1.705   0.433  0.00  0.00    +0.166 C 
ATOM     10  N   UNL     1       0.328  -0.447   0.323  0.00  0.00    -0.230 NA
ENDROOT
BRANCH   4  11
ATOM     11  C   UNL     1      -2.243  -2.925   1.766  0.00  0.00    -0.018 A 
ATOM     12  C   UNL     1      -3.355  -3.743   1.701  0.00  0.00    +0.009 A 
ATOM     13  C   UNL     1      -3.933  -4.224   2.861  0.00  0.00    +0.050 A 
ATOM     14  C   UNL     1      -3.397  -3.887   4.093  0.00  0.00    +0.162 A 
ATOM     15  C   UNL     1      -2.277  -3.064   4.159  0.00  0.00    +0.162 A 
ATOM     16  C   UNL     1      -1.700  -2.588   2.993  0.00  0.00    +0.055 A 
BRANCH  15  17
ATOM     17  O   UNL     1      -1.747  -2.730   5.367  0.00  0.00    -0.491 OA
ATOM     18  C   UNL     1      -0.664  -1.797   5.364  0.00  0.00    +0.277 C 
ENDBRANCH  15  17
BRANCH  14  19
ATOM     19  O   UNL     1      -3.964  -4.359   5.235  0.00  0.00    -0.491 OA
ATOM     20  C   UNL     1      -5.111  -5.199   5.091  0.00  0.00    +0.277 C 
ENDBRANCH  14  19
ENDBRANCH   4  11
BRANCH   6  21
ATOM     21  C   UNL     1      -0.479  -5.210   0.732  0.00  0.00    +0.091 C 
ATOM     22  C   UNL     1       0.074  -6.414   0.971  0.00  0.00    +0.239 C 
ATOM     23  O   UNL     1       1.422  -6.547   1.005  0.00  0.00    -0.271 OA
BRANCH  22  24
ATOM     24  N   UNL     1      -0.736  -7.518   1.182  0.00  0.00    -0.309 N 
ATOM     25  H   UNL     1      -1.698  -7.439   1.087  0.00  0.00    +0.149 HD
BRANCH  24  26
ATOM     26  C   UNL     1      -0.139  -8.805   1.549  0.00  0.00    +0.067 C 
ATOM     27  C   UNL     1      -1.194  -9.681   2.227  0.00  0.00    +0.027 C 
ATOM     28  C   UNL     1       0.374  -9.506   0.290  0.00  0.00    +0.027 C 
ENDBRANCH  24  26
ENDBRANCH  22  24
ENDBRANCH   6  21
BRANCH   3  29
ATOM     29  C   UNL     1      -3.301  -0.512   0.344  0.00  0.00    +0.340 C 
ATOM     30  O   UNL     1      -3.562   0.679   0.345  0.00  0.00    -0.245 OA
BRANCH  29  31
ATOM     31  O   UNL     1      -4.300  -1.422   0.313  0.00  0.00    -0.456 OA
BRANCH  31  32
ATOM     32  C   UNL     1      -5.634  -0.918   0.218  0.00  0.00    +0.106 C 
ATOM     33  C   UNL     1      -5.771  -0.075  -1.051  0.00  0.00    +0.055 C 
ATOM     34  C   UNL     1      -6.618  -2.089   0.161  0.00  0.00    +0.055 C 
ATOM     35  C   UNL     1      -5.941  -0.053   1.442  0.00  0.00    +0.055 C 
ENDBRANCH  31  32
ENDBRANCH  29  31
ENDBRANCH   3  29
TORSDOF 9
