REMARK  Name = ZINC20206479
REMARK  11 active torsions:
REMARK  status: ('A' for Active; 'I' for Inactive)
REMARK    1  A    between atoms: C_1  and  C_2
REMARK    2  A    between atoms: C_2  and  O_3
REMARK    3  A    between atoms: O_3  and  C_4
REMARK    4  A    between atoms: C_6  and  C_20
REMARK    5  A    between atoms: C_9  and  O_10
REMARK    6  A    between atoms: O_10  and  C_11
REMARK    7  A    between atoms: C_11  and  C_13
REMARK    8  A    between atoms: C_11  and  C_14
REMARK    9  A    between atoms: C_31  and  S_32
REMARK   10  A    between atoms: S_32  and  C_35
REMARK   11  A    between atoms: C_35  and  C_36
REMARK                            x       y       z     vdW  Elec       q    Type
REMARK                         _______ _______ _______ _____ _____    ______ ____
ROOT
ATOM      1  C   UNL     1       0.098  -0.694  -1.509  0.00  0.00    +0.162 A 
ATOM      2  C   UNL     1      -0.625  -1.588  -0.746  0.00  0.00    +0.057 A 
ATOM      3  C   UNL     1      -0.639  -2.947  -1.093  0.00  0.00    -0.021 A 
ATOM      4  C   UNL     1       0.082  -3.388  -2.212  0.00  0.00    +0.012 A 
ATOM      5  C   UNL     1       0.799  -2.487  -2.965  0.00  0.00    +0.050 A 
ATOM      6  C   UNL     1       0.808  -1.140  -2.624  0.00  0.00    +0.163 A 
ENDROOT
BRANCH   3   7
ATOM      7  C   UNL     1      -1.404  -3.902  -0.288  0.00  0.00    +0.024 C 
ATOM      8  C   UNL     1      -2.061  -4.946  -0.899  0.00  0.00    +0.079 C 
ATOM      9  C   UNL     1      -2.689  -6.049  -0.115  0.00  0.00    +0.138 C 
ATOM     10  N   UNL     1      -3.217  -5.880   1.067  0.00  0.00    -0.284 NA
ATOM     11  N   UNL     1      -2.655  -7.291  -0.779  0.00  0.00    -0.201 N 
ATOM     12  C   UNL     1      -2.540  -7.297  -2.154  0.00  0.00    +0.183 C 
ATOM     13  N   UNL     1      -2.355  -6.252  -2.929  0.00  0.00    -0.152 NA
ATOM     14  C   UNL     1      -2.190  -5.034  -2.375  0.00  0.00    +0.273 C 
ATOM     15  O   UNL     1      -2.143  -4.031  -3.067  0.00  0.00    -0.268 OA
ATOM     16  S   UNL     1      -2.673  -8.913  -2.540  0.00  0.00    +0.049 S 
ATOM     17  N   UNL     1      -2.760  -9.556  -0.995  0.00  0.00    -0.174 NA
ATOM     18  C   UNL     1      -2.733  -8.519  -0.216  0.00  0.00    +0.257 C 
ATOM     19  H   UNL     1      -3.213  -5.002   1.479  0.00  0.00    +0.188 HD
BRANCH  18  20
ATOM     20  S   UNL     1      -2.797  -8.705   1.535  0.00  0.00    +0.029 S 
ATOM     21  O   UNL     1      -2.428 -10.057   1.770  0.00  0.00    -0.167 OA
ATOM     22  O   UNL     1      -2.006  -7.640   2.042  0.00  0.00    -0.167 OA
BRANCH  20  23
ATOM     23  C   UNL     1      -4.540  -8.450   1.968  0.00  0.00    +0.172 C 
ATOM     24  C   UNL     1      -4.716  -8.589   3.481  0.00  0.00    +0.028 C 
ENDBRANCH  20  23
ENDBRANCH  18  20
ENDBRANCH   3   7
BRANCH   1  25
ATOM     25  O   UNL     1       0.115   0.625  -1.176  0.00  0.00    -0.489 OA
BRANCH  25  27
ATOM     26  C   UNL     1      -0.497   2.521   0.192  0.00  0.00    +0.048 C 
ATOM     27  C   UNL     1      -0.634   1.012  -0.022  0.00  0.00    +0.226 C 
ENDBRANCH  25  27
ENDBRANCH   1  25
BRANCH   6  28
ATOM     28  O   UNL     1       1.513  -0.256  -3.375  0.00  0.00    -0.481 OA
BRANCH  28  29
ATOM     29  C   UNL     1       2.317  -0.795  -4.427  0.00  0.00    +0.201 C 
ATOM     30  C   UNL     1       1.458  -0.988  -5.678  0.00  0.00    +0.057 C 
BRANCH  29  31
ATOM     31  C   UNL     1       3.445   0.156  -4.734  0.00  0.00    -0.008 A 
ATOM     32  C   UNL     1       3.245   1.520  -4.639  0.00  0.00    +0.007 A 
ATOM     33  C   UNL     1       4.280   2.392  -4.920  0.00  0.00    +0.000 A 
ATOM     34  C   UNL     1       5.515   1.899  -5.297  0.00  0.00    +0.000 A 
ATOM     35  C   UNL     1       5.716   0.535  -5.391  0.00  0.00    +0.000 A 
ATOM     36  C   UNL     1       4.682  -0.337  -5.105  0.00  0.00    +0.007 A 
ENDBRANCH  29  31
ENDBRANCH  28  29
ENDBRANCH   6  28
TORSDOF 8
