REMARK  Name = ZINC38965689
REMARK  10 active torsions:
REMARK  status: ('A' for Active; 'I' for Inactive)
REMARK    1  A    between atoms: C_1  and  C_2
REMARK    2  A    between atoms: C_5  and  S_9
REMARK    3  A    between atoms: C_6  and  C_8
REMARK    4  A    between atoms: S_9  and  N_12
REMARK    5  A    between atoms: C_14  and  N_24
REMARK    6  A    between atoms: N_24  and  C_25
REMARK    7  A    between atoms: C_28  and  O_33
REMARK    8  A    between atoms: C_29  and  O_31
REMARK    9  A    between atoms: O_31  and  C_32
REMARK   10  A    between atoms: O_33  and  C_34
REMARK                            x       y       z     vdW  Elec       q    Type
REMARK                         _______ _______ _______ _____ _____    ______ ____
ROOT
ATOM      1  N   UNL     1       1.378  -4.676   0.980  0.00  0.00    -0.110 NA
ATOM      2  C   UNL     1       1.671  -5.936   0.844  0.00  0.00    +0.192 C 
ATOM      3  C   UNL     1       3.020  -6.461   1.280  0.00  0.00    +0.237 C 
ATOM      4  N   UNL     1       3.289  -7.896   1.099  0.00  0.00    -0.359 N 
ATOM      5  C   UNL     1       2.358  -8.643   0.574  0.00  0.00    +0.063 A 
ATOM      6  C   UNL     1       2.578 -10.083   0.372  0.00  0.00    +0.027 A 
ATOM      7  C   UNL     1       1.589 -10.824  -0.175  0.00  0.00    +0.002 A 
ATOM      8  C   UNL     1       0.362 -10.254  -0.553  0.00  0.00    +0.002 A 
ATOM      9  C   UNL     1       0.087  -8.940  -0.399  0.00  0.00    +0.030 A 
ATOM     10  C   UNL     1       1.053  -8.068   0.165  0.00  0.00    +0.089 A 
ATOM     11  N   UNL     1       0.778  -6.790   0.318  0.00  0.00    -0.226 NA
ATOM     12  H   UNL     1       4.141  -8.278   1.364  0.00  0.00    +0.162 HD
ENDROOT
BRANCH   1  13
ATOM     13  S   UNL     1      -0.105  -4.115   0.504  0.00  0.00    +0.101 S 
ATOM     14  O   UNL     1      -1.062  -4.714   1.367  0.00  0.00    -0.146 OA
ATOM     15  O   UNL     1      -0.159  -4.257  -0.908  0.00  0.00    -0.146 OA
BRANCH  13  20
ATOM     16  C   UNL     1      -0.225   1.808   1.648  0.00  0.00    +0.044 C 
ATOM     17  C   UNL     1      -0.195   0.329   1.362  0.00  0.00    -0.050 A 
ATOM     18  C   UNL     1      -0.258  -0.125   0.058  0.00  0.00    +0.005 A 
ATOM     19  C   UNL     1      -0.231  -1.481  -0.204  0.00  0.00    +0.029 A 
ATOM     20  C   UNL     1      -0.139  -2.385   0.838  0.00  0.00    +0.115 A 
ATOM     21  C   UNL     1      -0.075  -1.931   2.142  0.00  0.00    -0.023 A 
ATOM     22  C   UNL     1      -0.098  -0.574   2.404  0.00  0.00    +0.008 A 
ATOM     23  C   UNL     1       0.024  -2.916   3.279  0.00  0.00    +0.046 C 
ENDBRANCH  13  20
ENDBRANCH   1  13
BRANCH   3  24
ATOM     24  N   UNL     1       3.181  -6.153   2.703  0.00  0.00    -0.318 N 
ATOM     25  H   UNL     1       2.444  -6.297   3.317  0.00  0.00    +0.148 HD
BRANCH  24  26
ATOM     26  C   UNL     1       4.398  -5.651   3.177  0.00  0.00    +0.033 A 
ATOM     27  C   UNL     1       4.505  -5.218   4.492  0.00  0.00    +0.027 A 
ATOM     28  C   UNL     1       5.707  -4.722   4.962  0.00  0.00    +0.051 A 
ATOM     29  C   UNL     1       6.806  -4.655   4.122  0.00  0.00    +0.162 A 
ATOM     30  C   UNL     1       6.701  -5.087   2.803  0.00  0.00    +0.163 A 
ATOM     31  C   UNL     1       5.499  -5.590   2.334  0.00  0.00    +0.072 A 
BRANCH  30  32
ATOM     32  O   UNL     1       7.780  -5.020   1.978  0.00  0.00    -0.491 OA
ATOM     33  C   UNL     1       7.600  -5.481   0.637  0.00  0.00    +0.277 C 
ENDBRANCH  30  32
BRANCH  29  34
ATOM     34  O   UNL     1       7.988  -4.165   4.585  0.00  0.00    -0.491 OA
ATOM     35  C   UNL     1       8.024  -3.739   5.949  0.00  0.00    +0.277 C 
ENDBRANCH  29  34
ENDBRANCH  24  26
ENDBRANCH   3  24
TORSDOF 6
