REMARK  Name = ZINC06073642
REMARK  6 active torsions:
REMARK  status: ('A' for Active; 'I' for Inactive)
REMARK    1  A    between atoms: C_1  and  C_2
REMARK    2  A    between atoms: N_4  and  N_22
REMARK    3  A    between atoms: N_15  and  C_16
REMARK    4  A    between atoms: C_23  and  C_24
REMARK    5  A    between atoms: N_26  and  C_35
REMARK    6  A    between atoms: C_28  and  C_29
REMARK                            x       y       z     vdW  Elec       q    Type
REMARK                         _______ _______ _______ _____ _____    ______ ____
ROOT
ATOM      1  C   UNL     1      -2.287  -3.746  -5.822  0.00  0.00    +0.111 C 
ATOM      2  C   UNL     1      -2.142  -2.700  -4.746  0.00  0.00    +0.239 C 
ATOM      3  O   UNL     1      -2.433  -1.546  -4.979  0.00  0.00    -0.274 OA
ATOM      4  N   UNL     1      -1.688  -3.047  -3.526  0.00  0.00    -0.127 N 
ATOM      5  C   UNL     1      -1.495  -2.080  -2.560  0.00  0.00    +0.233 A 
ATOM      6  N   UNL     1      -1.668  -0.826  -2.891  0.00  0.00    -0.214 NA
ATOM      7  C   UNL     1      -1.496   0.173  -1.994  0.00  0.00    +0.080 A 
ATOM      8  C   UNL     1      -1.680   1.514  -2.345  0.00  0.00    +0.028 A 
ATOM      9  C   UNL     1      -1.495   2.490  -1.408  0.00  0.00    +0.002 A 
ATOM     10  C   UNL     1      -1.128   2.171  -0.107  0.00  0.00    +0.001 A 
ATOM     11  C   UNL     1      -0.940   0.869   0.267  0.00  0.00    +0.015 A 
ATOM     12  C   UNL     1      -1.121  -0.147  -0.669  0.00  0.00    +0.065 A 
ATOM     13  C   UNL     1      -0.934  -1.563  -0.325  0.00  0.00    +0.267 A 
ATOM     14  O   UNL     1      -0.611  -1.902   0.799  0.00  0.00    -0.267 OA
ATOM     15  N   UNL     1      -1.133  -2.477  -1.304  0.00  0.00    -0.247 N 
ENDROOT
BRANCH  15  16
ATOM     16  C   UNL     1      -0.967  -3.840  -1.026  0.00  0.00    +0.053 A 
ATOM     17  C   UNL     1      -2.011  -4.570  -0.475  0.00  0.00    +0.026 A 
ATOM     18  C   UNL     1      -1.846  -5.915  -0.207  0.00  0.00    +0.002 A 
ATOM     19  C   UNL     1      -0.638  -6.531  -0.478  0.00  0.00    +0.000 A 
ATOM     20  C   UNL     1       0.406  -5.806  -1.021  0.00  0.00    +0.002 A 
ATOM     21  C   UNL     1       0.245  -4.462  -1.296  0.00  0.00    +0.026 A 
ENDBRANCH  15  16
BRANCH   4  22
ATOM     22  N   UNL     1      -1.413  -4.390  -3.236  0.00  0.00    -0.177 NA
ATOM     23  C   UNL     1      -2.377  -5.259  -3.208  0.00  0.00    +0.142 C 
BRANCH  23  24
ATOM     24  C   UNL     1      -2.071  -6.695  -3.080  0.00  0.00    +0.040 A 
ATOM     25  C   UNL     1      -0.838  -7.279  -3.175  0.00  0.00    +0.124 A 
ATOM     26  N   UNL     1      -0.991  -8.607  -2.995  0.00  0.00    -0.239 N 
ATOM     27  N   UNL     1      -2.343  -8.897  -2.789  0.00  0.00    -0.166 NA
ATOM     28  C   UNL     1      -3.030  -7.776  -2.833  0.00  0.00    +0.102 A 
BRANCH  28  29
ATOM     29  C   UNL     1      -4.495  -7.632  -2.663  0.00  0.00    +0.003 A 
ATOM     30  C   UNL     1      -5.012  -6.601  -1.880  0.00  0.00    +0.010 A 
ATOM     31  C   UNL     1      -6.377  -6.469  -1.730  0.00  0.00    +0.001 A 
ATOM     32  C   UNL     1      -7.233  -7.365  -2.347  0.00  0.00    +0.000 A 
ATOM     33  C   UNL     1      -6.726  -8.393  -3.121  0.00  0.00    +0.001 A 
ATOM     34  C   UNL     1      -5.362  -8.531  -3.283  0.00  0.00    +0.010 A 
ENDBRANCH  28  29
BRANCH  26  35
ATOM     35  C   UNL     1       0.044  -9.551  -3.017  0.00  0.00    +0.065 A 
ATOM     36  C   UNL     1       1.353  -9.143  -3.237  0.00  0.00    +0.028 A 
ATOM     37  C   UNL     1       2.372 -10.075  -3.252  0.00  0.00    +0.002 A 
ATOM     38  C   UNL     1       2.088 -11.415  -3.061  0.00  0.00    +0.000 A 
ATOM     39  C   UNL     1       0.785 -11.825  -2.847  0.00  0.00    +0.002 A 
ATOM     40  C   UNL     1      -0.238 -10.897  -2.825  0.00  0.00    +0.028 A 
ENDBRANCH  26  35
ENDBRANCH  23  24
ENDBRANCH   4  22
TORSDOF 5
