REMARK  Name = ZINC20239051
REMARK  7 active torsions:
REMARK  status: ('A' for Active; 'I' for Inactive)
REMARK    1  A    between atoms: C_1  and  O_2
REMARK    2  A    between atoms: O_2  and  C_3
REMARK    3  A    between atoms: C_6  and  C_12
REMARK    4  A    between atoms: C_7  and  N_9
REMARK    5  A    between atoms: C_15  and  C_17
REMARK    6  A    between atoms: C_28  and  S_29
REMARK    7  A    between atoms: S_29  and  C_32
REMARK                            x       y       z     vdW  Elec       q    Type
REMARK                         _______ _______ _______ _____ _____    ______ ____
ROOT
ATOM      1  C   UNL     1       4.327  -5.058  -6.173  0.00  0.00    +0.062 C 
ATOM      2  C   UNL     1       5.465  -5.082  -5.380  0.00  0.00    +0.080 C 
ATOM      3  C   UNL     1       6.614  -5.978  -5.683  0.00  0.00    +0.117 C 
ATOM      4  N   UNL     1       6.963  -6.317  -6.897  0.00  0.00    -0.386 N 
ATOM      5  N   UNL     1       7.289  -6.423  -4.529  0.00  0.00    -0.203 N 
ATOM      6  C   UNL     1       7.186  -5.672  -3.377  0.00  0.00    +0.183 C 
ATOM      7  N   UNL     1       6.431  -4.612  -3.200  0.00  0.00    -0.152 NA
ATOM      8  C   UNL     1       5.606  -4.212  -4.191  0.00  0.00    +0.273 C 
ATOM      9  O   UNL     1       4.989  -3.162  -4.108  0.00  0.00    -0.268 OA
ATOM     10  S   UNL     1       8.213  -6.451  -2.320  0.00  0.00    +0.049 S 
ATOM     11  N   UNL     1       8.666  -7.745  -3.285  0.00  0.00    -0.174 NA
ATOM     12  C   UNL     1       8.060  -7.530  -4.411  0.00  0.00    +0.257 C 
ATOM     13  H   UNL     1       6.500  -5.934  -7.659  0.00  0.00    +0.157 HD
ATOM     14  H   UNL     1       7.684  -6.951  -7.035  0.00  0.00    +0.157 HD
ENDROOT
BRANCH   1  18
ATOM     15  C   UNL     1       1.672  -3.611  -4.300  0.00  0.00    +0.138 A 
ATOM     16  C   UNL     1       1.052  -3.717  -5.528  0.00  0.00    +0.050 A 
ATOM     17  C   UNL     1       1.976  -4.281  -6.405  0.00  0.00    +0.050 A 
ATOM     18  C   UNL     1       3.138  -4.501  -5.678  0.00  0.00    +0.129 A 
ATOM     19  O   UNL     1       2.926  -4.082  -4.411  0.00  0.00    -0.455 OA
BRANCH  15  23
ATOM     20  C   UNL     1      -0.083  -2.045  -0.766  0.00  0.00    +0.122 A 
ATOM     21  C   UNL     1      -0.159  -1.327  -1.954  0.00  0.00    +0.046 A 
ATOM     22  C   UNL     1       0.409  -1.831  -3.103  0.00  0.00    +0.017 A 
ATOM     23  C   UNL     1       1.063  -3.067  -3.073  0.00  0.00    +0.048 A 
ATOM     24  C   UNL     1       1.137  -3.785  -1.875  0.00  0.00    +0.140 A 
ATOM     25  C   UNL     1       0.570  -3.271  -0.730  0.00  0.00    +0.079 A 
BRANCH  24  26
ATOM     26  N   UNL     1       1.828  -5.095  -1.837  0.00  0.00    +0.057 N 
ATOM     27  O   UNL     1       1.892  -5.715  -0.801  0.00  0.00    -0.126 OA
ATOM     28  O   UNL     1       2.329  -5.544  -2.842  0.00  0.00    -0.126 OA
ENDBRANCH  24  26
BRANCH  20  30
ATOM     29  C   UNL     1      -1.300  -0.279   0.257  0.00  0.00    +0.277 C 
ATOM     30  O   UNL     1      -0.644  -1.544   0.364  0.00  0.00    -0.495 OA
ENDBRANCH  20  30
ENDBRANCH  15  23
ENDBRANCH   1  18
BRANCH  12  31
ATOM     31  S   UNL     1       8.235  -8.654  -5.757  0.00  0.00    +0.026 S 
ATOM     32  O   UNL     1       8.680  -9.866  -5.163  0.00  0.00    -0.167 OA
ATOM     33  O   UNL     1       6.991  -8.597  -6.441  0.00  0.00    -0.167 OA
ATOM     34  C   UNL     1       9.548  -7.945  -6.789  0.00  0.00    +0.203 C 
ENDBRANCH  12  31
TORSDOF 5
