REMARK  Name = ZINC38649090
REMARK  9 active torsions:
REMARK  status: ('A' for Active; 'I' for Inactive)
REMARK    1  A    between atoms: C_1  and  C_2
REMARK    2  A    between atoms: C_2  and  C_3
REMARK    3  A    between atoms: C_3  and  C_4
REMARK    4  A    between atoms: C_4  and  O_5
REMARK    5  A    between atoms: O_5  and  C_6
REMARK    6  A    between atoms: C_10  and  C_12
REMARK    7  A    between atoms: C_19  and  C_37
REMARK    8  A    between atoms: C_20  and  C_36
REMARK    9  A    between atoms: N_27  and  C_28
REMARK                            x       y       z     vdW  Elec       q    Type
REMARK                         _______ _______ _______ _____ _____    ______ ____
ROOT
ATOM      1  C   UNL     1       3.035  -6.334   4.985  0.00  0.00    +0.145 C 
ATOM      2  C   UNL     1       4.406  -6.789   4.603  0.00  0.00    +0.072 A 
ATOM      3  C   UNL     1       5.550  -6.054   4.054  0.00  0.00    +0.199 A 
ATOM      4  O   UNL     1       5.589  -4.838   3.981  0.00  0.00    -0.287 OA
ATOM      5  C   UNL     1       6.657  -6.932   3.598  0.00  0.00    +0.065 A 
ATOM      6  C   UNL     1       7.726  -6.403   2.874  0.00  0.00    +0.019 A 
ATOM      7  C   UNL     1       8.734  -7.225   2.456  0.00  0.00    -0.047 A 
ATOM      8  C   UNL     1       8.697  -8.582   2.749  0.00  0.00    -0.044 A 
ATOM      9  C   UNL     1       7.651  -9.120   3.464  0.00  0.00    +0.050 A 
ATOM     10  C   UNL     1       6.610  -8.302   3.904  0.00  0.00    +0.140 A 
ATOM     11  O   UNL     1       5.598  -8.850   4.612  0.00  0.00    -0.450 OA
ATOM     12  C   UNL     1       4.482  -8.131   4.846  0.00  0.00    +0.199 A 
ATOM     13  C   UNL     1       3.183  -8.579   5.378  0.00  0.00    +0.283 C 
ATOM     14  O   UNL     1       2.917  -9.721   5.694  0.00  0.00    -0.267 OA
ATOM     15  N   UNL     1       2.331  -7.535   5.464  0.00  0.00    -0.279 N 
ATOM     16  C   UNL     1       9.815  -9.476   2.279  0.00  0.00    +0.044 C 
ATOM     17  C   UNL     1       9.891  -6.658   1.674  0.00  0.00    +0.044 C 
ENDROOT
BRANCH  15  18
ATOM     18  C   UNL     1       0.950  -7.586   5.949  0.00  0.00    +0.100 C 
ATOM     19  C   UNL     1       0.138  -8.557   5.075  0.00  0.00    +0.047 C 
ATOM     20  C   UNL     1      -1.217  -8.833   5.788  0.00  0.00    +0.168 C 
ATOM     21  S   UNL     1      -0.654  -8.977   7.537  0.00  0.00    -0.029 S 
ATOM     22  O   UNL     1      -0.386 -10.342   7.825  0.00  0.00    -0.174 OA
ATOM     23  O   UNL     1      -1.545  -8.248   8.370  0.00  0.00    -0.174 OA
ATOM     24  C   UNL     1       0.939  -8.067   7.420  0.00  0.00    +0.188 C 
ENDBRANCH  15  18
BRANCH   1  29
ATOM     25  C   UNL     1       1.563  -3.861   2.537  0.00  0.00    +0.121 A 
ATOM     26  C   UNL     1       1.020  -4.709   1.582  0.00  0.00    +0.045 A 
ATOM     27  C   UNL     1       1.133  -6.078   1.733  0.00  0.00    +0.004 A 
ATOM     28  C   UNL     1       1.785  -6.602   2.833  0.00  0.00    +0.006 A 
ATOM     29  C   UNL     1       2.326  -5.759   3.786  0.00  0.00    -0.019 A 
ATOM     30  C   UNL     1       2.221  -4.389   3.637  0.00  0.00    +0.051 A 
BRANCH  25  31
ATOM     31  O   UNL     1       1.454  -2.514   2.391  0.00  0.00    -0.492 OA
BRANCH  31  32
ATOM     32  C   UNL     1       0.763  -2.041   1.233  0.00  0.00    +0.229 C 
BRANCH  32  33
ATOM     33  C   UNL     1       0.742  -0.511   1.242  0.00  0.00    +0.041 C 
BRANCH  33  35
ATOM     34  C   UNL     1      -0.019   1.526   0.010  0.00  0.00    +0.004 C 
ATOM     35  C   UNL     1       0.002  -0.004   0.002  0.00  0.00    -0.000 C 
ENDBRANCH  33  35
ENDBRANCH  32  33
ENDBRANCH  31  32
ENDBRANCH  25  31
ENDBRANCH   1  29
TORSDOF 6
