REMARK  Name = ZINC41723363
REMARK  9 active torsions:
REMARK  status: ('A' for Active; 'I' for Inactive)
REMARK    1  A    between atoms: C_1  and  C_2
REMARK    2  A    between atoms: C_5  and  C_29
REMARK    3  A    between atoms: N_8  and  C_10
REMARK    4  A    between atoms: C_10  and  C_11
REMARK    5  A    between atoms: C_11  and  N_12
REMARK    6  A    between atoms: C_13  and  C_15
REMARK    7  A    between atoms: N_17  and  C_18
REMARK    8  A    between atoms: C_25  and  C_27
REMARK    9  A    between atoms: C_25  and  C_28
REMARK                            x       y       z     vdW  Elec       q    Type
REMARK                         _______ _______ _______ _____ _____    ______ ____
ROOT
ATOM      1  N   UNL     1       2.822  -0.200   4.893  0.00  0.00    -0.309 N 
ATOM      2  C   UNL     1       2.402   0.253   6.090  0.00  0.00    +0.299 C 
ATOM      3  O   UNL     1       1.462   1.018   6.154  0.00  0.00    -0.265 OA
ATOM      4  H   UNL     1       3.573  -0.811   4.842  0.00  0.00    +0.149 HD
ENDROOT
BRANCH   2   5
ATOM      5  C   UNL     1       3.093  -0.186   7.339  0.00  0.00    +0.303 C 
ATOM      6  O   UNL     1       4.033  -0.951   7.275  0.00  0.00    -0.265 OA
ATOM      7  N   UNL     1       2.673   0.267   8.537  0.00  0.00    -0.278 N 
ATOM      8  H   UNL     1       1.966   0.929   8.584  0.00  0.00    +0.155 HD
BRANCH   7   9
ATOM      9  C   UNL     1       3.256  -0.218   9.712  0.00  0.00    +0.038 A 
ATOM     10  C   UNL     1       2.482  -0.390  10.852  0.00  0.00    +0.027 A 
ATOM     11  C   UNL     1       3.057  -0.869  12.013  0.00  0.00    +0.051 A 
ATOM     12  C   UNL     1       4.408  -1.178  12.044  0.00  0.00    +0.167 A 
ATOM     13  C   UNL     1       5.187  -1.006  10.902  0.00  0.00    +0.169 A 
ATOM     14  C   UNL     1       4.609  -0.532   9.737  0.00  0.00    +0.073 A 
ATOM     15  O   UNL     1       6.469  -1.377  11.189  0.00  0.00    -0.448 OA
ATOM     16  C   UNL     1       6.553  -1.389  12.627  0.00  0.00    +0.248 C 
ATOM     17  O   UNL     1       5.202  -1.657  13.047  0.00  0.00    -0.448 OA
ATOM     18  C   UNL     1       7.494  -2.499  13.101  0.00  0.00    +0.104 C 
ATOM     19  C   UNL     1       7.019  -0.029  13.149  0.00  0.00    +0.104 C 
ENDBRANCH   7   9
ENDBRANCH   2   5
BRANCH   1  20
ATOM     20  C   UNL     1       2.144   0.231   3.668  0.00  0.00    +0.086 C 
BRANCH  20  21
ATOM     21  C   UNL     1       2.812  -0.424   2.457  0.00  0.00    -0.060 C 
BRANCH  21  27
ATOM     22  C   UNL     1       0.005   1.557   0.008  0.00  0.00    +0.005 C 
ATOM     23  C   UNL     1       0.014   0.027  -0.003  0.00  0.00    -0.031 C 
ATOM     24  C   UNL     1       0.731  -0.471  -1.261  0.00  0.00    +0.003 C 
ATOM     25  C   UNL     1       2.191  -0.010  -1.221  0.00  0.00    -0.031 C 
ATOM     26  C   UNL     1       2.847  -0.524   0.062  0.00  0.00    -0.076 C 
ATOM     27  N   UNL     1       2.132   0.009   1.229  0.00  0.00    +0.381 N 
ATOM     28  C   UNL     1       0.750  -0.488   1.236  0.00  0.00    -0.076 C 
ATOM     29  C   UNL     1       2.936  -0.568  -2.435  0.00  0.00    +0.005 C 
ATOM     30  H   UNL     1       2.127   1.017   1.187  0.00  0.00    -0.082 HD
ENDBRANCH  21  27
ENDBRANCH  20  21
ENDBRANCH   1  20
TORSDOF 5
