REMARK  Name = ZINC35173894
REMARK  8 active torsions:
REMARK  status: ('A' for Active; 'I' for Inactive)
REMARK    1  A    between atoms: C_1  and  C_2
REMARK    2  A    between atoms: C_9  and  C_11
REMARK    3  A    between atoms: C_11  and  C_12
REMARK    4  A    between atoms: C_17  and  C_19
REMARK    5  A    between atoms: C_19  and  S_20
REMARK    6  A    between atoms: S_20  and  C_21
REMARK    7  A    between atoms: C_24  and  C_32
REMARK    8  A    between atoms: N_25  and  C_26
REMARK                            x       y       z     vdW  Elec       q    Type
REMARK                         _______ _______ _______ _____ _____    ______ ____
ROOT
ATOM      1  C   UNL     1      -3.760   0.683   2.819  0.00  0.00    +0.173 C 
ENDROOT
BRANCH   1  11
ATOM      2  C   UNL     1      -0.019   1.526   0.010  0.00  0.00    +0.029 C 
ATOM      3  C   UNL     1       0.002  -0.004   0.002  0.00  0.00    +0.090 C 
ATOM      4  C   UNL     1      -1.435  -0.538   0.021  0.00  0.00    +0.130 C 
ATOM      5  N   UNL     1      -2.019  -0.269   1.343  0.00  0.00    -0.298 N 
ATOM      6  C   UNL     1      -1.319  -0.760   2.539  0.00  0.00    +0.127 C 
ATOM      7  C   UNL     1       0.118  -0.225   2.520  0.00  0.00    +0.127 C 
ATOM      8  N   UNL     1       0.705  -0.494   1.196  0.00  0.00    -0.295 N 
ATOM      9  C   UNL     1       1.860  -1.179   1.079  0.00  0.00    +0.221 C 
ATOM     10  O   UNL     1       2.328  -1.395  -0.019  0.00  0.00    -0.275 OA
ATOM     11  C   UNL     1      -3.174   0.415   1.457  0.00  0.00    +0.226 C 
ATOM     12  O   UNL     1      -3.742   0.815   0.463  0.00  0.00    -0.275 OA
BRANCH   9  13
ATOM     13  C   UNL     1       2.570  -1.675   2.312  0.00  0.00    +0.138 C 
BRANCH  13  14
ATOM     14  C   UNL     1       3.826  -2.404   1.909  0.00  0.00    -0.001 A 
ATOM     15  C   UNL     1       5.079  -1.915   1.739  0.00  0.00    +0.011 A 
ATOM     16  C   UNL     1       6.090  -2.779   1.363  0.00  0.00    +0.008 A 
ATOM     17  C   UNL     1       5.799  -4.090   1.175  0.00  0.00    +0.045 A 
ATOM     18  S   UNL     1       4.052  -4.136   1.540  0.00  0.00    -0.101 S 
ENDBRANCH  13  14
ENDBRANCH   9  13
ENDBRANCH   1  11
BRANCH   1  19
ATOM     19  S   UNL     1      -5.304   1.618   2.640  0.00  0.00    -0.076 S 
BRANCH  19  20
ATOM     20  C   UNL     1      -5.858   1.849   4.296  0.00  0.00    +0.197 A 
ATOM     21  N   UNL     1      -5.255   1.429   5.385  0.00  0.00    -0.122 NA
ATOM     22  N   UNL     1      -5.929   1.768   6.425  0.00  0.00    -0.127 NA
ATOM     23  C   UNL     1      -7.009   2.427   6.066  0.00  0.00    +0.176 A 
ATOM     24  N   UNL     1      -6.994   2.506   4.689  0.00  0.00    -0.270 N 
BRANCH  24  25
ATOM     25  C   UNL     1      -7.944   3.124   3.865  0.00  0.00    +0.051 A 
ATOM     26  C   UNL     1      -8.120   4.500   3.917  0.00  0.00    +0.026 A 
ATOM     27  C   UNL     1      -9.057   5.107   3.103  0.00  0.00    +0.002 A 
ATOM     28  C   UNL     1      -9.819   4.345   2.237  0.00  0.00    +0.000 A 
ATOM     29  C   UNL     1      -9.646   2.974   2.182  0.00  0.00    +0.002 A 
ATOM     30  C   UNL     1      -8.707   2.362   2.990  0.00  0.00    +0.026 A 
ENDBRANCH  24  25
BRANCH  23  31
ATOM     31  C   UNL     1      -8.035   2.981   6.964  0.00  0.00    +0.057 A 
ATOM     32  C   UNL     1      -7.976   3.194   8.318  0.00  0.00    +0.019 A 
ATOM     33  C   UNL     1      -9.074   3.731   8.951  0.00  0.00    +0.008 A 
ATOM     34  C   UNL     1     -10.178   4.032   8.220  0.00  0.00    +0.046 A 
ATOM     35  S   UNL     1      -9.678   3.559   6.573  0.00  0.00    -0.094 S 
ENDBRANCH  23  31
ENDBRANCH  19  20
ENDBRANCH   1  19
TORSDOF 7
