REMARK  Name = ZINC09201923
REMARK  6 active torsions:
REMARK  status: ('A' for Active; 'I' for Inactive)
REMARK    1  A    between atoms: C_1  and  C_2
REMARK    2  A    between atoms: C_7  and  C_8
REMARK    3  A    between atoms: C_7  and  N_67
REMARK    4  A    between atoms: N_23  and  C_26
REMARK    5  A    between atoms: C_27  and  N_32
REMARK    6  A    between atoms: N_30  and  C_31
REMARK                            x       y       z     vdW  Elec       q    Type
REMARK                         _______ _______ _______ _____ _____    ______ ____
ROOT
ATOM      1  C   UNL     1       0.322   5.911  -2.697  0.00  0.00    +0.116 A 
ATOM      2  N   UNL     1       1.149   5.975  -3.725  0.00  0.00    -0.219 NA
ATOM      3  C   UNL     1       0.735   6.289  -4.943  0.00  0.00    +0.133 A 
ATOM      4  C   UNL     1      -0.641   6.580  -5.149  0.00  0.00    +0.051 A 
ATOM      5  C   UNL     1      -1.319   6.956  -6.401  0.00  0.00    -0.025 A 
ATOM      6  C   UNL     1      -2.641   7.179  -6.331  0.00  0.00    -0.004 A 
ATOM      7  S   UNL     1      -3.067   6.910  -4.626  0.00  0.00    -0.073 S 
ATOM      8  C   UNL     1      -1.458   6.496  -4.008  0.00  0.00    +0.114 A 
ATOM      9  N   UNL     1      -0.964   6.170  -2.829  0.00  0.00    -0.227 NA
ATOM     10  C   UNL     1      -3.226   7.551  -7.668  0.00  0.00    +0.043 C 
ATOM     11  C   UNL     1      -2.158   7.113  -8.693  0.00  0.00    +0.010 C 
ATOM     12  C   UNL     1      -0.870   7.172  -7.849  0.00  0.00    +0.037 C 
ATOM     13  N   UNL     1       1.630   6.340  -5.997  0.00  0.00    -0.312 N 
ATOM     14  C   UNL     1       2.292   5.042  -6.189  0.00  0.00    +0.125 C 
ATOM     15  C   UNL     1       3.211   5.116  -7.410  0.00  0.00    +0.125 C 
ATOM     16  N   UNL     1       4.200   6.184  -7.211  0.00  0.00    -0.310 N 
ATOM     17  C   UNL     1       3.538   7.482  -7.019  0.00  0.00    +0.125 C 
ATOM     18  C   UNL     1       2.619   7.408  -5.798  0.00  0.00    +0.125 C 
ENDROOT
BRANCH  16  19
ATOM     19  C   UNL     1       5.103   6.236  -8.275  0.00  0.00    +0.153 A 
ATOM     20  C   UNL     1       6.434   5.993  -8.217  0.00  0.00    +0.255 A 
ATOM     21  N   UNL     1       6.939   6.146  -9.452  0.00  0.00    -0.211 NA
ATOM     22  C   UNL     1       5.981   6.472 -10.274  0.00  0.00    +0.203 A 
ATOM     23  N   UNL     1       4.812   6.535  -9.580  0.00  0.00    -0.320 N 
ATOM     24  C   UNL     1       3.492   6.864 -10.124  0.00  0.00    +0.151 C 
BRANCH  20  25
ATOM     25  N   UNL     1       7.199   5.625  -7.005  0.00  0.00    +0.079 N 
ATOM     26  O   UNL     1       6.616   5.426  -5.954  0.00  0.00    -0.125 OA
ATOM     27  O   UNL     1       8.411   5.520  -7.057  0.00  0.00    -0.125 OA
ENDBRANCH  20  25
ENDBRANCH  16  19
BRANCH   1  28
ATOM     28  C   UNL     1       0.863   5.540  -1.340  0.00  0.00    -0.001 C 
BRANCH  28  35
ATOM     29  C   UNL     1       0.155   0.066   0.145  0.00  0.00    +0.007 C 
ATOM     30  C   UNL     1       0.129   1.596   0.138  0.00  0.00    -0.018 C 
ATOM     31  C   UNL     1      -0.624   2.089  -1.101  0.00  0.00    -0.016 C 
ATOM     32  C   UNL     1      -0.595   3.619  -1.134  0.00  0.00    -0.078 C 
ATOM     33  C   UNL     1       1.528   3.661   0.034  0.00  0.00    -0.078 C 
ATOM     34  C   UNL     1       1.562   2.133   0.102  0.00  0.00    -0.016 C 
ATOM     35  N   UNL     1       0.811   4.071  -1.192  0.00  0.00    +0.384 N 
ATOM     36  H   UNL     1       1.267   3.638  -2.004  0.00  0.00    -0.081 HD
ENDBRANCH  28  35
ENDBRANCH   1  28
TORSDOF 4
