REMARK  Name = ZINC09134767
REMARK  9 active torsions:
REMARK  status: ('A' for Active; 'I' for Inactive)
REMARK    1  A    between atoms: C_1  and  C_2
REMARK    2  A    between atoms: C_3  and  C_32
REMARK    3  A    between atoms: C_9  and  C_31
REMARK    4  A    between atoms: C_10  and  C_16
REMARK    5  A    between atoms: C_16  and  C_17
REMARK    6  A    between atoms: N_19  and  C_20
REMARK    7  A    between atoms: C_20  and  C_21
REMARK    8  A    between atoms: C_24  and  S_27
REMARK    9  A    between atoms: S_27  and  N_30
REMARK                            x       y       z     vdW  Elec       q    Type
REMARK                         _______ _______ _______ _____ _____    ______ ____
ROOT
ATOM      1  C   UNL     1       0.026   0.017   2.485  0.00  0.00    +0.138 C 
ENDROOT
BRANCH   1  11
ATOM      2  C   UNL     1      -0.091   0.922  -5.676  0.00  0.00    +0.048 C 
ATOM      3  C   UNL     1      -0.064  -0.465  -5.087  0.00  0.00    -0.002 A 
ATOM      4  C   UNL     1      -0.058  -1.623  -5.758  0.00  0.00    +0.106 A 
ATOM      5  O   UNL     1      -0.032  -2.659  -4.900  0.00  0.00    -0.460 OA
ATOM      6  C   UNL     1      -0.020  -2.227  -3.622  0.00  0.00    +0.139 A 
ATOM      7  C   UNL     1      -0.039  -0.818  -3.660  0.00  0.00    +0.024 A 
ATOM      8  C   UNL     1      -0.032  -0.081  -2.484  0.00  0.00    +0.023 A 
ATOM      9  C   UNL     1      -0.006  -0.750  -1.260  0.00  0.00    +0.022 A 
ATOM     10  C   UNL     1       0.002  -0.004   0.002  0.00  0.00    -0.029 A 
ATOM     11  C   UNL     1       0.023  -0.707   1.163  0.00  0.00    +0.049 A 
ATOM     12  C   UNL     1       0.041  -2.118   1.129  0.00  0.00    +0.341 A 
ATOM     13  O   UNL     1       0.059  -2.736   2.178  0.00  0.00    -0.245 OA
ATOM     14  O   UNL     1       0.039  -2.796  -0.029  0.00  0.00    -0.422 OA
ATOM     15  C   UNL     1       0.019  -2.160  -1.222  0.00  0.00    +0.143 A 
ATOM     16  C   UNL     1       0.017  -2.884  -2.401  0.00  0.00    +0.093 A 
ATOM     17  C   UNL     1      -0.018   1.503   0.010  0.00  0.00    +0.045 C 
ATOM     18  C   UNL     1      -0.077  -1.749  -7.259  0.00  0.00    +0.086 C 
ENDBRANCH   1  11
BRANCH   1  19
ATOM     19  C   UNL     1      -1.393   0.239   2.939  0.00  0.00    +0.218 C 
ATOM     20  O   UNL     1      -2.317  -0.151   2.257  0.00  0.00    -0.275 OA
ATOM     21  N   UNL     1      -1.636   0.873   4.104  0.00  0.00    -0.311 N 
ATOM     22  H   UNL     1      -0.897   1.185   4.649  0.00  0.00    +0.149 HD
BRANCH  21  23
ATOM     23  C   UNL     1      -3.016   1.089   4.546  0.00  0.00    +0.139 C 
BRANCH  23  24
ATOM     24  C   UNL     1      -3.012   1.813   5.868  0.00  0.00    -0.030 A 
ATOM     25  C   UNL     1      -2.997   1.095   7.049  0.00  0.00    +0.007 A 
ATOM     26  C   UNL     1      -2.989   1.759   8.261  0.00  0.00    +0.029 A 
ATOM     27  C   UNL     1      -3.006   3.141   8.293  0.00  0.00    +0.105 A 
ATOM     28  C   UNL     1      -3.026   3.859   7.112  0.00  0.00    +0.029 A 
ATOM     29  C   UNL     1      -3.030   3.195   5.899  0.00  0.00    +0.007 A 
BRANCH  27  30
ATOM     30  S   UNL     1      -3.000   3.987   9.838  0.00  0.00    +0.056 S 
ATOM     31  O   UNL     1      -2.429   3.096  10.787  0.00  0.00    -0.153 OA
ATOM     32  O   UNL     1      -2.467   5.281   9.591  0.00  0.00    -0.153 OA
BRANCH  30  33
ATOM     33  N   UNL     1      -4.580   4.203  10.284  0.00  0.00    -0.204 NA
ATOM     34  H   UNL     1      -4.820   4.235  11.223  0.00  0.00    +0.144 HD
ATOM     35  H   UNL     1      -5.267   4.299   9.605  0.00  0.00    +0.144 HD
ENDBRANCH  30  33
ENDBRANCH  27  30
ENDBRANCH  23  24
ENDBRANCH  21  23
ENDBRANCH   1  19
TORSDOF 6
