REMARK  Name = ZINC18264527
REMARK  8 active torsions:
REMARK  status: ('A' for Active; 'I' for Inactive)
REMARK    1  A    between atoms: C_1  and  N_2
REMARK    2  A    between atoms: N_2  and  C_3
REMARK    3  A    between atoms: N_2  and  S_4
REMARK    4  A    between atoms: S_4  and  C_7
REMARK    5  A    between atoms: C_11  and  C_13
REMARK    6  A    between atoms: C_13  and  O_15
REMARK    7  A    between atoms: O_15  and  C_16
REMARK    8  A    between atoms: C_16  and  C_17
REMARK                            x       y       z     vdW  Elec       q    Type
REMARK                         _______ _______ _______ _____ _____    ______ ____
ROOT
ATOM      1  C   UNL     1      -3.380  -0.983   0.026  0.00  0.00    +0.308 C 
ENDROOT
BRANCH   1   2
ATOM      2  C   UNL     1      -3.379  -2.489   0.009  0.00  0.00    +0.170 A 
ATOM      3  N   UNL     1      -3.305  -3.123  -1.148  0.00  0.00    -0.214 NA
ATOM      4  C   UNL     1      -3.294  -4.443  -1.229  0.00  0.00    +0.128 A 
ATOM      5  C   UNL     1      -3.375  -5.211  -0.034  0.00  0.00    +0.051 A 
ATOM      6  C   UNL     1      -3.385  -6.666   0.122  0.00  0.00    -0.025 A 
ATOM      7  C   UNL     1      -3.470  -7.147   1.379  0.00  0.00    -0.004 A 
ATOM      8  S   UNL     1      -3.543  -5.712   2.418  0.00  0.00    -0.073 S 
ATOM      9  C   UNL     1      -3.457  -4.466   1.160  0.00  0.00    +0.114 A 
ATOM     10  N   UNL     1      -3.457  -3.147   1.150  0.00  0.00    -0.221 NA
ATOM     11  C   UNL     1      -3.498  -8.584   1.801  0.00  0.00    +0.043 C 
ATOM     12  C   UNL     1      -3.787  -9.447   0.565  0.00  0.00    +0.005 C 
ATOM     13  C   UNL     1      -2.870  -8.995  -0.576  0.00  0.00    +0.005 C 
ATOM     14  C   UNL     1      -3.302  -7.614  -1.071  0.00  0.00    +0.037 C 
ATOM     15  N   UNL     1      -3.209  -5.069  -2.459  0.00  0.00    -0.343 N 
ATOM     16  H   UNL     1      -3.435  -6.009  -2.542  0.00  0.00    +0.144 HD
ATOM     17  H   UNL     1      -2.925  -4.569  -3.240  0.00  0.00    +0.144 HD
ENDBRANCH   1   2
BRANCH   1  18
ATOM     18  O   UNL     1      -2.015  -0.498   0.124  0.00  0.00    -0.453 OA
BRANCH  18  19
ATOM     19  C   UNL     1      -1.840   0.837   0.151  0.00  0.00    +0.340 C 
ATOM     20  O   UNL     1      -2.801   1.577   0.093  0.00  0.00    -0.245 OA
BRANCH  19  25
ATOM     21  C   UNL     1       0.980   3.306   0.370  0.00  0.00    +0.106 A 
ATOM     22  C   UNL     1       2.074   2.461   0.430  0.00  0.00    +0.028 A 
ATOM     23  C   UNL     1       1.898   1.089   0.404  0.00  0.00    +0.003 A 
ATOM     24  C   UNL     1       0.629   0.554   0.317  0.00  0.00    +0.015 A 
ATOM     25  C   UNL     1      -0.478   1.402   0.251  0.00  0.00    +0.061 A 
ATOM     26  C   UNL     1      -0.294   2.786   0.284  0.00  0.00    +0.043 A 
BRANCH  21  27
ATOM     27  S   UNL     1       1.216   5.052   0.404  0.00  0.00    +0.060 S 
ATOM     28  O   UNL     1       0.004   5.616   0.886  0.00  0.00    -0.153 OA
ATOM     29  O   UNL     1       2.467   5.281   1.038  0.00  0.00    -0.153 OA
BRANCH  27  31
ATOM     30  C   UNL     1       0.200   5.949  -1.936  0.00  0.00    +0.131 C 
ATOM     31  N   UNL     1       1.382   5.555  -1.165  0.00  0.00    -0.183 NA
ATOM     32  C   UNL     1       2.710   5.607  -1.781  0.00  0.00    +0.131 C 
ENDBRANCH  27  31
ENDBRANCH  21  27
ENDBRANCH  19  25
ENDBRANCH  18  19
ENDBRANCH   1  18
TORSDOF 6
