REMARK  Name = ZINC08845379
REMARK  10 active torsions:
REMARK  status: ('A' for Active; 'I' for Inactive)
REMARK    1  A    between atoms: C_1  and  C_2
REMARK    2  A    between atoms: C_2  and  O_3
REMARK    3  A    between atoms: O_3  and  C_4
REMARK    4  A    between atoms: C_7  and  C_10
REMARK    5  A    between atoms: C_13  and  C_24
REMARK    6  A    between atoms: N_20  and  C_21
REMARK    7  A    between atoms: C_21  and  C_22
REMARK    8  A    between atoms: C_22  and  O_23
REMARK    9  A    between atoms: C_27  and  C_31
REMARK   10  A    between atoms: C_29  and  O_30
REMARK                            x       y       z     vdW  Elec       q    Type
REMARK                         _______ _______ _______ _____ _____    ______ ____
ROOT
ATOM      1  C   UNL     1      -2.222  -5.663   0.165  0.00  0.00    +0.141 C 
ATOM      2  C   UNL     1      -2.295  -6.412   1.468  0.00  0.00    +0.035 A 
ATOM      3  C   UNL     1      -1.679  -6.725   2.684  0.00  0.00    +0.102 A 
ATOM      4  N   UNL     1      -2.487  -7.536   3.338  0.00  0.00    -0.173 NA
ATOM      5  N   UNL     1      -3.552  -7.765   2.656  0.00  0.00    -0.272 N 
ATOM      6  H   UNL     1      -4.285  -8.333   2.941  0.00  0.00    +0.189 HD
ATOM      7  C   UNL     1      -3.498  -7.091   1.469  0.00  0.00    +0.126 A 
ATOM      8  C   UNL     1      -4.198  -6.803   0.212  0.00  0.00    +0.266 C 
ATOM      9  O   UNL     1      -5.287  -7.250  -0.094  0.00  0.00    -0.268 OA
ATOM     10  N   UNL     1      -3.464  -5.974  -0.554  0.00  0.00    -0.283 N 
ENDROOT
BRANCH   3  11
ATOM     11  C   UNL     1      -0.358  -6.236   3.151  0.00  0.00    +0.045 A 
ATOM     12  C   UNL     1       0.448  -5.481   2.304  0.00  0.00    +0.034 A 
ATOM     13  C   UNL     1       1.677  -5.027   2.743  0.00  0.00    +0.045 A 
ATOM     14  C   UNL     1       2.110  -5.322   4.025  0.00  0.00    -0.029 A 
ATOM     15  C   UNL     1       1.317  -6.072   4.873  0.00  0.00    +0.050 A 
ATOM     16  C   UNL     1       0.080  -6.527   4.446  0.00  0.00    +0.126 A 
ATOM     17  C   UNL     1       3.451  -4.824   4.497  0.00  0.00    +0.045 C 
ATOM     18 CL   UNL     1       2.681  -4.086   1.685  0.00  0.00    -0.083 Cl
BRANCH  16  19
ATOM     19  O   UNL     1      -0.703  -7.259   5.282  0.00  0.00    -0.506 OA
ATOM     20  H   UNL     1      -0.550  -8.212   5.229  0.00  0.00    +0.292 HD
ENDBRANCH  16  19
ENDBRANCH   3  11
BRANCH   1  24
ATOM     21  C   UNL     1      -1.956  -1.461   0.896  0.00  0.00    +0.121 A 
ATOM     22  C   UNL     1      -3.127  -2.145   1.189  0.00  0.00    +0.046 A 
ATOM     23  C   UNL     1      -3.211  -3.503   0.951  0.00  0.00    +0.009 A 
ATOM     24  C   UNL     1      -2.128  -4.182   0.423  0.00  0.00    -0.022 A 
ATOM     25  C   UNL     1      -0.960  -3.503   0.130  0.00  0.00    +0.009 A 
ATOM     26  C   UNL     1      -0.873  -2.143   0.360  0.00  0.00    +0.046 A 
BRANCH  21  27
ATOM     27  O   UNL     1      -1.871  -0.125   1.128  0.00  0.00    -0.492 OA
BRANCH  27  29
ATOM     28  C   UNL     1      -2.743   2.003   1.871  0.00  0.00    +0.048 C 
ATOM     29  C   UNL     1      -3.025   0.511   1.681  0.00  0.00    +0.225 C 
ENDBRANCH  27  29
ENDBRANCH  21  27
ENDBRANCH   1  24
BRANCH  10  30
ATOM     30  C   UNL     1      -3.839  -5.468  -1.877  0.00  0.00    +0.137 C 
BRANCH  30  31
ATOM     31  C   UNL     1      -3.329  -6.428  -2.954  0.00  0.00    +0.175 C 
BRANCH  31  32
ATOM     32  O   UNL     1      -3.997  -7.685  -2.827  0.00  0.00    -0.393 OA
ATOM     33  H   UNL     1      -3.722  -8.344  -3.479  0.00  0.00    +0.209 HD
ENDBRANCH  31  32
ENDBRANCH  30  31
ENDBRANCH  10  30
TORSDOF 8
