REMARK  Name = ZINC67379098
REMARK  9 active torsions:
REMARK  status: ('A' for Active; 'I' for Inactive)
REMARK    1  A    between atoms: C_1  and  C_2
REMARK    2  A    between atoms: C_5  and  C_7
REMARK    3  A    between atoms: N_12  and  C_15
REMARK    4  A    between atoms: C_15  and  C_16
REMARK    5  A    between atoms: C_23  and  O_25
REMARK    6  A    between atoms: O_25  and  C_26
REMARK    7  A    between atoms: C_26  and  C_27
REMARK    8  A    between atoms: C_26  and  C_28
REMARK    9  A    between atoms: C_26  and  C_29
REMARK                            x       y       z     vdW  Elec       q    Type
REMARK                         _______ _______ _______ _____ _____    ______ ____
ROOT
ATOM      1  C   UNL     1       3.440  -1.012   2.139  0.00  0.00    +0.282 C 
ATOM      2  O   UNL     1       2.414  -0.396   1.917  0.00  0.00    -0.267 OA
ATOM      3  N   UNL     1       4.036  -1.708   1.151  0.00  0.00    -0.299 N 
ATOM      4  C   UNL     1       5.226  -2.531   1.417  0.00  0.00    +0.089 C 
ATOM      5  C   UNL     1       6.304  -2.172   0.390  0.00  0.00    -0.060 C 
ATOM      6  N   UNL     1       5.756  -2.318  -0.965  0.00  0.00    +0.382 N 
ATOM      7  C   UNL     1       4.673  -1.349  -1.174  0.00  0.00    -0.060 C 
ATOM      8  C   UNL     1       3.510  -1.673  -0.222  0.00  0.00    +0.089 C 
ATOM      9  H   UNL     1       5.396  -3.254  -1.081  0.00  0.00    -0.082 HD
ENDROOT
BRANCH   1  14
ATOM     10  C   UNL     1       6.429  -2.081   6.012  0.00  0.00    +0.086 C 
ATOM     11  C   UNL     1       5.334  -1.460   5.183  0.00  0.00    +0.103 A 
ATOM     12  C   UNL     1       4.451  -0.533   5.614  0.00  0.00    +0.045 A 
ATOM     13  C   UNL     1       3.610  -0.229   4.532  0.00  0.00    +0.055 A 
ATOM     14  C   UNL     1       4.028  -0.996   3.483  0.00  0.00    +0.190 A 
ATOM     15  O   UNL     1       5.079  -1.733   3.897  0.00  0.00    -0.455 OA
ENDBRANCH   1  14
BRANCH   6  16
ATOM     16  C   UNL     1       6.820  -2.081  -1.950  0.00  0.00    -0.074 C 
BRANCH  16  17
ATOM     17  C   UNL     1       7.877  -3.180  -1.834  0.00  0.00    -0.010 C 
ATOM     18  C   UNL     1       9.010  -2.907  -2.826  0.00  0.00    +0.005 C 
ATOM     19  C   UNL     1      10.084  -3.988  -2.688  0.00  0.00    +0.019 C 
ATOM     20  C   UNL     1       9.473  -5.354  -3.017  0.00  0.00    +0.111 C 
ATOM     21  N   UNL     1       8.294  -5.562  -2.165  0.00  0.00    -0.267 N 
ATOM     22  C   UNL     1       7.241  -4.537  -2.152  0.00  0.00    +0.112 C 
ATOM     23  C   UNL     1       8.180  -6.672  -1.409  0.00  0.00    +0.403 C 
ATOM     24  O   UNL     1       7.200  -6.832  -0.709  0.00  0.00    -0.226 OA
BRANCH  23  25
ATOM     25  O   UNL     1       9.152  -7.603  -1.430  0.00  0.00    -0.445 OA
BRANCH  25  26
ATOM     26  C   UNL     1       8.965  -8.755  -0.604  0.00  0.00    +0.107 C 
ATOM     27  C   UNL     1       7.688  -9.484  -1.027  0.00  0.00    +0.055 C 
ATOM     28  C   UNL     1      10.164  -9.693  -0.760  0.00  0.00    +0.055 C 
ATOM     29  C   UNL     1       8.844  -8.319   0.857  0.00  0.00    +0.055 C 
ENDBRANCH  25  26
ENDBRANCH  23  25
ENDBRANCH  16  17
ENDBRANCH   6  16
TORSDOF 5
