REMARK  Name = ZINC25260803
REMARK  5 active torsions:
REMARK  status: ('A' for Active; 'I' for Inactive)
REMARK    1  A    between atoms: C_1  and  C_2
REMARK    2  A    between atoms: C_2  and  C_4
REMARK    3  A    between atoms: C_2  and  N_9
REMARK    4  A    between atoms: C_10  and  C_12
REMARK    5  A    between atoms: C_12  and  N_13
REMARK                            x       y       z     vdW  Elec       q    Type
REMARK                         _______ _______ _______ _____ _____    ______ ____
ROOT
ATOM      1  N   UNL     1       0.002  -0.004   0.002  0.00  0.00    -0.304 N 
ATOM      2  C   UNL     1      -0.016   1.344   0.009  0.00  0.00    +0.233 C 
ATOM      3  O   UNL     1      -1.075   1.936   0.018  0.00  0.00    -0.274 OA
ATOM      4  H   UNL     1       0.962  -0.541  -0.010  0.00  0.00    +0.149 HD
ENDROOT
BRANCH   1   6
ATOM      5  C   UNL     1      -1.745  -0.914   1.451  0.00  0.00    +0.036 C 
ATOM      6  C   UNL     1      -1.256  -0.754   0.010  0.00  0.00    +0.136 C 
BRANCH   6   7
ATOM      7  C   UNL     1      -1.035  -2.114  -0.600  0.00  0.00    +0.125 A 
ATOM      8  C   UNL     1      -1.882  -2.753  -1.427  0.00  0.00    +0.046 A 
ATOM      9  C   UNL     1      -1.280  -3.990  -1.754  0.00  0.00    +0.041 A 
ATOM     10  C   UNL     1      -0.102  -4.032  -1.108  0.00  0.00    +0.195 A 
ATOM     11  O   UNL     1       0.044  -2.891  -0.415  0.00  0.00    -0.466 OA
ENDBRANCH   6   7
ENDBRANCH   1   6
BRANCH   2  12
ATOM     12  C   UNL     1       1.278   2.115   0.001  0.00  0.00    +0.221 C 
BRANCH  12  13
ATOM     13  N   UNL     1       0.991   3.551   0.012  0.00  0.00    -0.292 N 
ATOM     14  C   UNL     1       0.853   4.223  -1.172  0.00  0.00    +0.096 A 
ATOM     15  C   UNL     1       0.583   5.546  -1.162  0.00  0.00    +0.088 A 
ATOM     16  C   UNL     1       0.460   6.215   0.079  0.00  0.00    +0.254 A 
ATOM     17  O   UNL     1       0.222   7.409   0.114  0.00  0.00    -0.268 OA
ATOM     18  N   UNL     1       0.609   5.518   1.224  0.00  0.00    -0.275 N 
ATOM     19  H   UNL     1       0.516   6.028   2.194  0.00  0.00    +0.173 HD
ATOM     20  C   UNL     1       0.872   4.198   1.185  0.00  0.00    +0.330 A 
ATOM     21  O   UNL     1       1.003   3.583   2.225  0.00  0.00    -0.246 OA
ENDBRANCH  12  13
ENDBRANCH   2  12
TORSDOF 4
