REMARK  Name = ZINC12524137
REMARK  7 active torsions:
REMARK  status: ('A' for Active; 'I' for Inactive)
REMARK    1  A    between atoms: C_1  and  C_2
REMARK    2  A    between atoms: C_2  and  C_24
REMARK    3  A    between atoms: N_9  and  C_23
REMARK    4  A    between atoms: C_11  and  C_12
REMARK    5  A    between atoms: N_13  and  N_14
REMARK    6  A    between atoms: C_15  and  C_17
REMARK    7  A    between atoms: C_17  and  N_18
REMARK                            x       y       z     vdW  Elec       q    Type
REMARK                         _______ _______ _______ _____ _____    ______ ____
ROOT
ATOM      1  C   UNL     1       0.162   1.475   0.103  0.00  0.00    +0.022 C 
ATOM      2  C   UNL     1       0.115  -0.049  -0.023  0.00  0.00    +0.030 C 
ATOM      3  C   UNL     1       0.758  -0.492  -1.317  0.00  0.00    -0.015 A 
ATOM      4  C   UNL     1       0.458  -0.240  -2.638  0.00  0.00    +0.006 A 
ATOM      5  C   UNL     1       1.236  -0.790  -3.641  0.00  0.00    +0.000 A 
ATOM      6  C   UNL     1       2.314  -1.593  -3.314  0.00  0.00    +0.002 A 
ATOM      7  C   UNL     1       2.618  -1.847  -1.993  0.00  0.00    +0.024 A 
ATOM      8  C   UNL     1       1.838  -1.296  -0.976  0.00  0.00    +0.038 A 
ATOM      9  N   UNL     1       1.946  -1.407   0.408  0.00  0.00    -0.306 N 
ATOM     10  C   UNL     1       0.960  -0.696   1.054  0.00  0.00    +0.022 C 
ATOM     11  C   UNL     1       0.781  -0.595   2.382  0.00  0.00    +0.041 C 
ATOM     12  C   UNL     1       2.981  -2.186   1.093  0.00  0.00    +0.135 C 
ATOM     13  C   UNL     1      -1.329  -0.546   0.058  0.00  0.00    +0.022 C 
ENDROOT
BRANCH  11  14
ATOM     14  C   UNL     1       1.771  -1.160   3.297  0.00  0.00    +0.132 C 
ATOM     15  N   UNL     1       1.547  -1.160   4.580  0.00  0.00    -0.188 NA
BRANCH  15  16
ATOM     16  N   UNL     1       2.495  -1.701   5.457  0.00  0.00    -0.205 N 
ATOM     17  C   UNL     1       2.263  -1.701   6.785  0.00  0.00    +0.254 C 
ATOM     18  O   UNL     1       1.232  -1.232   7.220  0.00  0.00    -0.272 OA
ATOM     19  H   UNL     1       3.319  -2.076   5.109  0.00  0.00    +0.177 HD
BRANCH  17  20
ATOM     20  C   UNL     1       3.283  -2.284   7.728  0.00  0.00    +0.242 C 
BRANCH  20  21
ATOM     21  N   UNL     1       2.799  -2.164   9.106  0.00  0.00    -0.243 N 
ATOM     22  C   UNL     1       2.666  -3.156  10.002  0.00  0.00    +0.219 A 
ATOM     23  N   UNL     1       2.205  -2.641  11.113  0.00  0.00    -0.223 NA
ATOM     24  C   UNL     1       2.033  -1.328  10.965  0.00  0.00    +0.245 A 
ATOM     25  N   UNL     1       2.388  -0.988   9.754  0.00  0.00    -0.158 NA
ENDBRANCH  20  21
ENDBRANCH  17  20
ENDBRANCH  15  16
ENDBRANCH  11  14
TORSDOF 4
