REMARK  Name = ZINC13417834
REMARK  7 active torsions:
REMARK  status: ('A' for Active; 'I' for Inactive)
REMARK    1  A    between atoms: C_1  and  C_2
REMARK    2  A    between atoms: C_4  and  C_16
REMARK    3  A    between atoms: C_12  and  C_13
REMARK    4  A    between atoms: C_16  and  S_17
REMARK    5  A    between atoms: S_17  and  C_18
REMARK    6  A    between atoms: C_21  and  C_24
REMARK    7  A    between atoms: N_22  and  C_23
REMARK                            x       y       z     vdW  Elec       q    Type
REMARK                         _______ _______ _______ _____ _____    ______ ____
ROOT
ATOM      1  S   UNL     1      -1.835   1.939  -2.123  0.00  0.00    -0.081 S 
ENDROOT
BRANCH   1   2
ATOM      2  C   UNL     1      -1.732   3.666  -2.460  0.00  0.00    +0.192 A 
ATOM      3  N   UNL     1      -0.735   4.288  -3.044  0.00  0.00    -0.122 NA
ATOM      4  N   UNL     1      -0.994   5.544  -3.129  0.00  0.00    -0.130 NA
ATOM      5  C   UNL     1      -2.162   5.796  -2.609  0.00  0.00    +0.178 A 
ATOM      6  N   UNL     1      -2.677   4.607  -2.170  0.00  0.00    -0.306 N 
ATOM      7  C   UNL     1      -3.972   4.391  -1.519  0.00  0.00    +0.153 C 
BRANCH   5   8
ATOM      8  C   UNL     1      -2.826   7.146  -2.515  0.00  0.00    +0.278 C 
ATOM      9  C   UNL     1      -3.345   7.564  -3.897  0.00  0.00    +0.281 C 
ATOM     10  O   UNL     1      -3.955   8.854  -3.775  0.00  0.00    -0.484 OA
ATOM     11  C   UNL     1      -3.263   9.794  -3.076  0.00  0.00    +0.162 A 
ATOM     12  C   UNL     1      -3.600  11.132  -3.218  0.00  0.00    +0.049 A 
ATOM     13  C   UNL     1      -2.908  12.099  -2.512  0.00  0.00    +0.004 A 
ATOM     14  C   UNL     1      -1.879  11.735  -1.663  0.00  0.00    +0.004 A 
ATOM     15  C   UNL     1      -1.538  10.403  -1.519  0.00  0.00    +0.049 A 
ATOM     16  C   UNL     1      -2.227   9.428  -2.225  0.00  0.00    +0.163 A 
ATOM     17  O   UNL     1      -1.875   8.122  -2.078  0.00  0.00    -0.474 OA
ENDBRANCH   5   8
ENDBRANCH   1   2
BRANCH   1  18
ATOM     18  C   UNL     1      -0.270   1.274  -2.754  0.00  0.00    +0.113 C 
BRANCH  18  22
ATOM     19  C   UNL     1       0.677   1.499  -0.145  0.00  0.00    +0.046 C 
ATOM     20  C   UNL     1       0.638  -0.008  -0.140  0.00  0.00    -0.020 A 
ATOM     21  C   UNL     1       0.212  -0.733  -1.264  0.00  0.00    +0.014 A 
ATOM     22  C   UNL     1      -0.228  -0.215  -2.524  0.00  0.00    -0.022 A 
ATOM     23  C   UNL     1      -0.607  -1.061  -3.509  0.00  0.00    +0.075 A 
ATOM     24  C   UNL     1      -0.574  -2.454  -3.312  0.00  0.00    +0.250 A 
ATOM     25  O   UNL     1      -0.919  -3.206  -4.209  0.00  0.00    -0.268 OA
ATOM     26  N   UNL     1      -0.162  -2.957  -2.132  0.00  0.00    -0.317 N 
ATOM     27  H   UNL     1      -0.141  -3.917  -1.999  0.00  0.00    +0.169 HD
ATOM     28  C   UNL     1       0.224  -2.130  -1.126  0.00  0.00    +0.089 A 
ATOM     29  S   UNL     1       0.777  -2.410   0.428  0.00  0.00    -0.064 S 
ATOM     30  C   UNL     1       1.020  -0.727   0.957  0.00  0.00    +0.106 A 
BRANCH  30  31
ATOM     31  C   UNL     1       1.492  -0.251   2.207  0.00  0.00    +0.393 C 
ATOM     32  O   UNL     1       1.597   0.954   2.403  0.00  0.00    -0.240 OA
ATOM     33  O   UNL     1       1.794  -1.044   3.090  0.00  0.00    -0.240 OA
ENDBRANCH  30  31
ENDBRANCH  18  22
ENDBRANCH   1  18
TORSDOF 5
