REMARK  Name = ZINC01853025
REMARK  6 active torsions:
REMARK  status: ('A' for Active; 'I' for Inactive)
REMARK    1  A    between atoms: C_4  and  C_7
REMARK    2  A    between atoms: C_7  and  S_8
REMARK    3  A    between atoms: S_8  and  C_9
REMARK    4  A    between atoms: C_15  and  C_16
REMARK    5  A    between atoms: C_19  and  C_21
REMARK    6  A    between atoms: C_24  and  N_27
REMARK                            x       y       z     vdW  Elec       q    Type
REMARK                         _______ _______ _______ _____ _____    ______ ____
ROOT
ATOM      1  C   UNL     1       4.524  -3.842   1.122  0.00  0.00    +0.156 C 
ATOM      2  N   UNL     1       5.415  -3.731   0.129  0.00  0.00    -0.158 NA
ATOM      3  N   UNL     1       6.642  -4.007   0.275  0.00  0.00    -0.151 N 
ATOM      4  C   UNL     1       7.640  -3.807  -0.715  0.00  0.00    +0.153 C 
ATOM      5  N   UNL     1       7.516  -2.956  -1.693  0.00  0.00    -0.283 NA
ATOM      6  C   UNL     1       8.844  -4.667  -0.523  0.00  0.00    +0.084 C 
ATOM      7  C   UNL     1       9.576  -5.156  -1.606  0.00  0.00    +0.063 C 
ATOM      8  C   UNL     1       9.220  -4.974   0.873  0.00  0.00    +0.273 C 
ATOM      9  O   UNL     1      10.372  -5.254   1.166  0.00  0.00    -0.268 OA
ATOM     10  N   UNL     1       8.253  -4.935   1.815  0.00  0.00    -0.152 NA
ATOM     11  C   UNL     1       7.065  -4.512   1.494  0.00  0.00    +0.181 C 
ATOM     12  S   UNL     1       5.570  -4.432   2.450  0.00  0.00    -0.027 S 
ATOM     13  H   UNL     1       6.712  -2.420  -1.772  0.00  0.00    +0.188 HD
ENDROOT
BRANCH   7  14
ATOM     14  C   UNL     1      10.543  -6.144  -1.405  0.00  0.00    +0.129 A 
ATOM     15  C   UNL     1      11.450  -6.618  -2.369  0.00  0.00    +0.050 A 
ATOM     16  C   UNL     1      12.220  -7.585  -1.752  0.00  0.00    +0.050 A 
ATOM     17  C   UNL     1      11.773  -7.684  -0.432  0.00  0.00    +0.136 A 
ATOM     18  O   UNL     1      10.772  -6.806  -0.251  0.00  0.00    -0.455 OA
BRANCH  17  19
ATOM     19  C   UNL     1      12.312  -8.593   0.589  0.00  0.00    +0.017 A 
ATOM     20  C   UNL     1      13.370  -9.458   0.275  0.00  0.00    +0.014 A 
ATOM     21  C   UNL     1      13.869 -10.306   1.239  0.00  0.00    +0.033 A 
ATOM     22  C   UNL     1      13.328 -10.307   2.514  0.00  0.00    +0.126 A 
ATOM     23  C   UNL     1      12.282  -9.457   2.833  0.00  0.00    +0.033 A 
ATOM     24  C   UNL     1      11.774  -8.597   1.884  0.00  0.00    +0.014 A 
BRANCH  22  25
ATOM     25  N   UNL     1      13.872 -11.224   3.544  0.00  0.00    +0.056 N 
ATOM     26  O   UNL     1      14.866 -12.035   3.246  0.00  0.00    -0.126 OA
ATOM     27  O   UNL     1      13.360 -11.228   4.758  0.00  0.00    -0.126 OA
ENDBRANCH  22  25
ENDBRANCH  17  19
ENDBRANCH   7  14
BRANCH   1  28
ATOM     28  S   UNL     1       2.796  -3.494   1.123  0.00  0.00    -0.092 S 
BRANCH  28  29
ATOM     29  C   UNL     1       2.458  -2.941  -0.571  0.00  0.00    +0.111 C 
BRANCH  29  33
ATOM     30  C   UNL     1      -1.690  -1.995  -0.960  0.00  0.00    +0.000 A 
ATOM     31  C   UNL     1      -0.791  -1.018  -0.573  0.00  0.00    +0.000 A 
ATOM     32  C   UNL     1       0.551  -1.325  -0.446  0.00  0.00    +0.004 A 
ATOM     33  C   UNL     1       0.994  -2.608  -0.707  0.00  0.00    -0.037 A 
ATOM     34  C   UNL     1       0.096  -3.584  -1.094  0.00  0.00    +0.004 A 
ATOM     35  C   UNL     1      -1.246  -3.278  -1.222  0.00  0.00    +0.000 A 
ENDBRANCH  29  33
ENDBRANCH  28  29
ENDBRANCH   1  28
TORSDOF 6
