REMARK  Name = ZINC61538319
REMARK  2 active torsions:
REMARK  status: ('A' for Active; 'I' for Inactive)
REMARK    1  A    between atoms: N_13  and  C_14
REMARK    2  A    between atoms: C_14  and  C_15
REMARK                            x       y       z     vdW  Elec       q    Type
REMARK                         _______ _______ _______ _____ _____    ______ ____
ROOT
ATOM      1  C   UNL     1      -0.019   1.539   0.011  0.00  0.00    +0.020 C 
ATOM      2  C   UNL     1       1.488   1.907  -0.002  0.00  0.00    +0.020 C 
ATOM      3  C   UNL     1       2.092   0.776   0.868  0.00  0.00    +0.108 C 
ATOM      4  N   UNL     1       1.313  -0.426   0.518  0.00  0.00    -0.299 N 
ATOM      5  C   UNL     1       0.002  -0.004   0.002  0.00  0.00    +0.108 C 
ATOM      6  C   UNL     1       1.743  -1.730   0.651  0.00  0.00    +0.223 A 
ATOM      7  N   UNL     1       0.947  -2.733   0.294  0.00  0.00    -0.181 NA
ATOM      8  C   UNL     1       1.365  -3.987   0.424  0.00  0.00    +0.221 A 
ATOM      9  N   UNL     1       2.578  -4.236   0.910  0.00  0.00    -0.184 NA
ATOM     10  C   UNL     1       3.368  -3.236   1.264  0.00  0.00    +0.229 A 
ATOM     11  N   UNL     1       2.957  -1.985   1.132  0.00  0.00    -0.184 NA
ATOM     12 CL   UNL     1       4.950  -3.565   1.899  0.00  0.00    -0.041 Cl
ATOM     13  N   UNL     1       0.541  -5.031   0.055  0.00  0.00    -0.311 N 
ATOM     14  H   UNL     1      -0.344  -4.849  -0.299  0.00  0.00    +0.149 HD
ENDROOT
BRANCH  13  15
ATOM     15  C   UNL     1       1.003  -6.414   0.198  0.00  0.00    +0.138 C 
BRANCH  15  16
ATOM     16  C   UNL     1      -0.093  -7.369  -0.279  0.00  0.00    +0.161 C 
ATOM     17  C   UNL     1       0.387  -8.816  -0.127  0.00  0.00    +0.193 C 
ATOM     18  O   UNL     1      -0.682  -9.703  -0.468  0.00  0.00    -0.375 OA
ATOM     19  C   UNL     1      -1.859  -9.514   0.323  0.00  0.00    +0.188 C 
ATOM     20  C   UNL     1      -2.339  -8.067   0.170  0.00  0.00    +0.188 C 
ATOM     21  O   UNL     1      -1.271  -7.179   0.511  0.00  0.00    -0.370 OA
ENDBRANCH  15  16
ENDBRANCH  13  15
TORSDOF 2
