REMARK  Name = ZINC49211536
REMARK  4 active torsions:
REMARK  status: ('A' for Active; 'I' for Inactive)
REMARK    1  A    between atoms: C_1  and  C_2
REMARK    2  A    between atoms: N_7  and  C_8
REMARK    3  A    between atoms: N_10  and  C_11
REMARK    4  A    between atoms: C_14  and  C_16
REMARK                            x       y       z     vdW  Elec       q    Type
REMARK                         _______ _______ _______ _____ _____    ______ ____
ROOT
ATOM      1  C   UNL     1       0.256  -4.858  -0.027  0.00  0.00    +0.326 C 
ATOM      2  O   UNL     1      -0.952  -4.691  -0.021  0.00  0.00    -0.251 OA
ATOM      3  N   UNL     1       0.763  -6.107  -0.036  0.00  0.00    -0.294 N 
ATOM      4  H   UNL     1       1.724  -6.240  -0.041  0.00  0.00    +0.151 HD
ENDROOT
BRANCH   1  11
ATOM      5  C   UNL     1      -0.018   1.503   0.010  0.00  0.00    +0.053 C 
ATOM      6  C   UNL     1       0.002  -0.004   0.002  0.00  0.00    +0.006 A 
ATOM      7  C   UNL     1      -1.025  -0.859   0.002  0.00  0.00    +0.095 A 
ATOM      8  N   UNL     1      -0.732  -2.188  -0.007  0.00  0.00    -0.342 N 
ATOM      9  H   UNL     1      -1.440  -2.851  -0.008  0.00  0.00    +0.167 HD
ATOM     10  C   UNL     1       0.575  -2.571  -0.014  0.00  0.00    +0.165 A 
ATOM     11  N   UNL     1       1.076  -3.804  -0.024  0.00  0.00    -0.139 NA
ATOM     12  S   UNL     1       1.403  -1.107  -0.018  0.00  0.00    -0.058 S 
ENDBRANCH   1  11
BRANCH   3  13
ATOM     13  C   UNL     1      -0.137  -7.263  -0.040  0.00  0.00    +0.083 C 
ATOM     14  C   UNL     1       0.206  -8.428   0.890  0.00  0.00    +0.033 C 
ATOM     15  C   UNL     1       0.398  -8.573  -0.621  0.00  0.00    +0.041 C 
BRANCH  15  16
ATOM     16  C   UNL     1       1.810  -8.575  -1.147  0.00  0.00    -0.042 A 
ATOM     17  C   UNL     1       2.863  -8.279  -0.302  0.00  0.00    +0.004 A 
ATOM     18  C   UNL     1       4.158  -8.281  -0.784  0.00  0.00    +0.000 A 
ATOM     19  C   UNL     1       4.401  -8.580  -2.112  0.00  0.00    +0.000 A 
ATOM     20  C   UNL     1       3.348  -8.878  -2.957  0.00  0.00    +0.000 A 
ATOM     21  C   UNL     1       2.053  -8.880  -2.474  0.00  0.00    +0.004 A 
ENDBRANCH  15  16
ENDBRANCH   3  13
TORSDOF 3
