REMARK  Name = ZINC05292079
REMARK  6 active torsions:
REMARK  status: ('A' for Active; 'I' for Inactive)
REMARK    1  A    between atoms: C_1  and  C_2
REMARK    2  A    between atoms: C_2  and  C_3
REMARK    3  A    between atoms: C_2  and  C_5
REMARK    4  A    between atoms: C_2  and  N_8
REMARK    5  A    between atoms: C_9  and  C_11
REMARK    6  A    between atoms: C_11  and  N_12
REMARK                            x       y       z     vdW  Elec       q    Type
REMARK                         _______ _______ _______ _____ _____    ______ ____
ROOT
ATOM      1  N   UNL     1      -4.296  -0.252   2.249  0.00  0.00    -0.215 N 
ATOM      2  C   UNL     1      -4.307  -0.914   3.424  0.00  0.00    +0.247 C 
ATOM      3  O   UNL     1      -3.772  -1.973   3.675  0.00  0.00    -0.273 OA
ATOM      4  C   UNL     1      -5.126  -0.058   4.363  0.00  0.00    +0.113 C 
ATOM      5  C   UNL     1      -4.278   0.395   5.546  0.00  0.00    +0.035 C 
ATOM      6  C   UNL     1      -5.117   1.285   6.467  0.00  0.00    +0.003 C 
ATOM      7  C   UNL     1      -6.335   0.500   6.961  0.00  0.00    +0.000 C 
ATOM      8  C   UNL     1      -7.187   0.073   5.765  0.00  0.00    +0.003 C 
ATOM      9  C   UNL     1      -6.357  -0.821   4.841  0.00  0.00    +0.035 C 
ATOM     10  N   UNL     1      -5.522   1.093   3.542  0.00  0.00    -0.285 N 
ATOM     11  C   UNL     1      -4.985   0.894   2.322  0.00  0.00    +0.310 C 
ATOM     12  O   UNL     1      -5.115   1.666   1.392  0.00  0.00    -0.252 OA
ATOM     13  H   UNL     1      -6.060   1.850   3.823  0.00  0.00    +0.151 HD
ENDROOT
BRANCH   1  14
ATOM     14  C   UNL     1      -3.611  -0.724   1.044  0.00  0.00    +0.213 C 
BRANCH  14  16
ATOM     15  N   UNL     1      -1.372  -0.511   0.012  0.00  0.00    -0.296 N 
ATOM     16  C   UNL     1      -2.197  -0.202   1.033  0.00  0.00    +0.232 C 
ATOM     17  O   UNL     1      -1.801   0.495   1.942  0.00  0.00    -0.274 OA
ATOM     18  H   UNL     1      -1.689  -1.069  -0.715  0.00  0.00    +0.150 HD
BRANCH  15  20
ATOM     19  C   UNL     1      -0.019   1.526   0.010  0.00  0.00    +0.048 C 
ATOM     20  C   UNL     1       0.002  -0.004   0.002  0.00  0.00    +0.121 C 
BRANCH  20  21
ATOM     21  C   UNL     1       0.718  -0.497  -1.257  0.00  0.00    +0.026 C 
ATOM     22  C   UNL     1       1.919  -1.426  -1.068  0.00  0.00    +0.007 C 
ATOM     23  C   UNL     1       2.134   0.022  -1.513  0.00  0.00    +0.007 C 
ENDBRANCH  20  21
BRANCH  20  24
ATOM     24  C   UNL     1       0.714  -0.492   1.195  0.00  0.00    +0.088 C 
ATOM     25  N   UNL     1       1.263  -0.868   2.115  0.00  0.00    -0.194 NA
ENDBRANCH  20  24
ENDBRANCH  15  20
ENDBRANCH  14  16
ENDBRANCH   1  14
TORSDOF 5
