REMARK  Name = ZINC39711467
REMARK  12 active torsions:
REMARK  status: ('A' for Active; 'I' for Inactive)
REMARK    1  A    between atoms: C_1  and  C_2
REMARK    2  A    between atoms: C_2  and  N_3
REMARK    3  A    between atoms: N_6  and  C_9
REMARK    4  A    between atoms: C_9  and  C_11
REMARK    5  A    between atoms: C_9  and  C_20
REMARK    6  A    between atoms: N_15  and  C_16
REMARK    7  A    between atoms: C_16  and  C_17
REMARK    8  A    between atoms: C_17  and  O_18
REMARK    9  A    between atoms: O_18  and  C_19
REMARK   10  A    between atoms: C_25  and  O_32
REMARK   11  A    between atoms: O_32  and  C_33
REMARK   12  A    between atoms: C_33  and  C_34
REMARK                            x       y       z     vdW  Elec       q    Type
REMARK                         _______ _______ _______ _____ _____    ______ ____
ROOT
ATOM      1  C   UNL     1       1.560  -2.604   4.811  0.00  0.00    +0.142 C 
ENDROOT
BRANCH   1   2
ATOM      2  C   UNL     1       1.439  -3.911   5.597  0.00  0.00    +0.123 C 
ATOM      3  C   UNL     1       1.792  -3.618   7.042  0.00  0.00    -0.003 C 
ATOM      4  C   UNL     1       0.851  -3.902   7.986  0.00  0.00    -0.003 A 
ATOM      5  C   UNL     1       1.110  -3.651   9.404  0.00  0.00    +0.055 A 
ATOM      6  C   UNL     1       0.141  -3.951  10.312  0.00  0.00    +0.121 A 
ATOM      7  C   UNL     1      -1.088  -4.491   9.912  0.00  0.00    +0.047 A 
ATOM      8  C   UNL     1      -1.386  -4.745   8.612  0.00  0.00    +0.027 A 
ATOM      9  C   UNL     1      -0.452  -4.471   7.596  0.00  0.00    +0.041 A 
ATOM     10  N   UNL     1      -0.758  -4.725   6.324  0.00  0.00    -0.284 N 
ATOM     11  C   UNL     1       0.071  -4.493   5.321  0.00  0.00    +0.226 C 
ATOM     12  O   UNL     1      -0.266  -4.747   4.180  0.00  0.00    -0.275 OA
ATOM     13  H   UNL     1      -1.631  -5.099   6.125  0.00  0.00    +0.155 HD
BRANCH   6  14
ATOM     14  O   UNL     1       0.370  -3.722  11.632  0.00  0.00    -0.492 OA
BRANCH  14  15
ATOM     15  C   UNL     1      -0.682  -4.055  12.540  0.00  0.00    +0.225 C 
ATOM     16  C   UNL     1      -0.243  -3.730  13.970  0.00  0.00    +0.048 C 
ENDBRANCH  14  15
ENDBRANCH   6  14
ENDBRANCH   1   2
BRANCH   1  20
ATOM     17  N   UNL     1       2.071  -2.845   0.621  0.00  0.00    +0.381 N 
ATOM     18  C   UNL     1       1.041  -1.935   1.140  0.00  0.00    -0.063 C 
ATOM     19  C   UNL     1       1.331  -1.620   2.609  0.00  0.00    +0.066 C 
ATOM     20  N   UNL     1       1.340  -2.870   3.383  0.00  0.00    -0.295 NA
ATOM     21  C   UNL     1       2.349  -3.801   2.859  0.00  0.00    +0.066 C 
ATOM     22  C   UNL     1       2.051  -4.098   1.388  0.00  0.00    -0.063 C 
ATOM     23  H   UNL     1       2.978  -2.411   0.710  0.00  0.00    -0.082 HD
BRANCH  17  25
ATOM     24  C   UNL     1       1.945  -1.847  -1.612  0.00  0.00    -0.017 C 
ATOM     25  C   UNL     1       1.802  -3.132  -0.794  0.00  0.00    -0.082 C 
ENDBRANCH  17  25
ENDBRANCH   1  20
BRANCH   1  26
ATOM     26  C   UNL     1       2.937  -2.025   5.007  0.00  0.00    +0.170 A 
ATOM     27  N   UNL     1       4.077  -2.591   4.692  0.00  0.00    -0.112 NA
ATOM     28  N   UNL     1       5.026  -1.782   5.015  0.00  0.00    -0.023 NA
ATOM     29  N   UNL     1       4.522  -0.715   5.528  0.00  0.00    -0.044 NA
ATOM     30  N   UNL     1       3.236  -0.824   5.536  0.00  0.00    -0.225 N 
BRANCH  30  31
ATOM     31  C   UNL     1       2.281   0.171   6.030  0.00  0.00    +0.175 C 
BRANCH  31  32
ATOM     32  C   UNL     1       2.089  -0.011   7.537  0.00  0.00    +0.183 C 
BRANCH  32  33
ATOM     33  O   UNL     1       1.254   1.034   8.040  0.00  0.00    -0.381 OA
ATOM     34  C   UNL     1       1.009   0.956   9.446  0.00  0.00    +0.194 C 
ENDBRANCH  32  33
ENDBRANCH  31  32
ENDBRANCH  30  31
ENDBRANCH   1  26
TORSDOF 9
