REMARK  Name = ZINC13838121
REMARK  7 active torsions:
REMARK  status: ('A' for Active; 'I' for Inactive)
REMARK    1  A    between atoms: C_1  and  C_2
REMARK    2  A    between atoms: C_2  and  C_4
REMARK    3  A    between atoms: C_2  and  S_14
REMARK    4  A    between atoms: N_6  and  C_7
REMARK    5  A    between atoms: S_14  and  C_15
REMARK    6  A    between atoms: C_19  and  N_24
REMARK    7  A    between atoms: C_25  and  C_27
REMARK                            x       y       z     vdW  Elec       q    Type
REMARK                         _______ _______ _______ _____ _____    ______ ____
ROOT
ATOM      1  C   UNL     1      -0.248  -1.502  -1.655  0.00  0.00    +0.150 A 
ATOM      2  N   UNL     1       0.205  -2.140  -2.734  0.00  0.00    -0.302 N 
ATOM      3  C   UNL     1      -0.108  -3.432  -2.952  0.00  0.00    +0.277 A 
ATOM      4  O   UNL     1       0.351  -4.068  -4.040  0.00  0.00    -0.266 OA
ATOM      5  C   UNL     1      -0.916  -4.101  -2.033  0.00  0.00    +0.164 A 
ATOM      6  H   UNL     1       0.767  -1.669  -3.369  0.00  0.00    +0.171 HD
ATOM      7  C   UNL     1      -1.372  -3.404  -0.914  0.00  0.00    +0.277 A 
ATOM      8  O   UNL     1      -2.151  -4.011  -0.006  0.00  0.00    -0.266 OA
ATOM      9  N   UNL     1      -1.017  -2.114  -0.754  0.00  0.00    -0.302 N 
ATOM     10  H   UNL     1      -1.328  -1.624   0.024  0.00  0.00    +0.171 HD
ENDROOT
BRANCH   5  11
ATOM     11  N   UNL     1      -1.264  -5.452  -2.229  0.00  0.00    -0.277 N 
ATOM     12  C   UNL     1      -0.952  -6.372  -1.294  0.00  0.00    +0.214 C 
ATOM     13  O   UNL     1      -0.453  -6.024  -0.245  0.00  0.00    -0.276 OA
ATOM     14  C   UNL     1      -1.224  -7.831  -1.553  0.00  0.00    +0.109 C 
ATOM     15  H   UNL     1      -1.728  -5.721  -3.038  0.00  0.00    +0.155 HD
ENDBRANCH   5  11
BRANCH   1  16
ATOM     16  S   UNL     1       0.186   0.188  -1.409  0.00  0.00    -0.077 S 
BRANCH  16  18
ATOM     17  C   UNL     1      -0.194   2.029   0.578  0.00  0.00    +0.029 C 
ATOM     18  C   UNL     1      -0.646   0.634   0.140  0.00  0.00    +0.137 C 
BRANCH  18  19
ATOM     19  C   UNL     1      -2.138   0.633  -0.073  0.00  0.00    +0.230 C 
ATOM     20  O   UNL     1      -2.590   0.722  -1.195  0.00  0.00    -0.274 OA
ATOM     21  N   UNL     1      -2.969   0.534   0.983  0.00  0.00    -0.285 N 
ATOM     22  H   UNL     1      -2.610   0.530   1.884  0.00  0.00    +0.155 HD
BRANCH  21  23
ATOM     23  C   UNL     1      -4.350   0.436   0.780  0.00  0.00    +0.035 A 
ATOM     24  C   UNL     1      -5.229   1.018   1.684  0.00  0.00    +0.023 A 
ATOM     25  C   UNL     1      -6.592   0.920   1.481  0.00  0.00    +0.003 A 
ATOM     26  C   UNL     1      -7.082   0.244   0.378  0.00  0.00    +0.020 A 
ATOM     27  C   UNL     1      -6.209  -0.337  -0.524  0.00  0.00    +0.043 A 
ATOM     28  C   UNL     1      -4.844  -0.238  -0.329  0.00  0.00    +0.043 A 
ATOM     29 CL   UNL     1      -6.828  -1.186  -1.907  0.00  0.00    -0.083 Cl
ENDBRANCH  21  23
ENDBRANCH  18  19
ENDBRANCH  16  18
ENDBRANCH   1  16
TORSDOF 5
