REMARK  Name = ZINC48115523
REMARK  9 active torsions:
REMARK  status: ('A' for Active; 'I' for Inactive)
REMARK    1  A    between atoms: C_1  and  C_2
REMARK    2  A    between atoms: C_2  and  N_3
REMARK    3  A    between atoms: C_7  and  C_9
REMARK    4  A    between atoms: C_7  and  C_10
REMARK    5  A    between atoms: C_15  and  N_18
REMARK    6  A    between atoms: C_20  and  C_23
REMARK    7  A    between atoms: C_23  and  C_24
REMARK    8  A    between atoms: C_23  and  C_25
REMARK    9  A    between atoms: C_23  and  O_26
REMARK                            x       y       z     vdW  Elec       q    Type
REMARK                         _______ _______ _______ _____ _____    ______ ____
ROOT
ATOM      1  C   UNL     1      -3.682  -1.979   1.265  0.00  0.00    +0.220 C 
ATOM      2  O   UNL     1      -3.284  -1.138   2.043  0.00  0.00    -0.275 OA
ATOM      3  N   UNL     1      -4.941  -2.447   1.365  0.00  0.00    -0.301 N 
ATOM      4  C   UNL     1      -5.397  -3.557   0.517  0.00  0.00    +0.110 C 
ATOM      5  C   UNL     1      -5.978  -4.656   1.412  0.00  0.00    +0.046 C 
ATOM      6  C   UNL     1      -7.068  -4.058   2.304  0.00  0.00    +0.112 C 
ATOM      7  C   UNL     1      -6.461  -2.976   3.200  0.00  0.00    +0.046 C 
ATOM      8  C   UNL     1      -5.883  -1.862   2.329  0.00  0.00    +0.110 C 
ENDROOT
BRANCH   1  13
ATOM      9  N   UNL     1      -1.745  -0.285  -0.050  0.00  0.00    +0.380 N 
ATOM     10  C   UNL     1      -2.329  -0.118  -1.386  0.00  0.00    -0.079 C 
ATOM     11  C   UNL     1      -3.670  -0.853  -1.456  0.00  0.00    -0.018 C 
ATOM     12  C   UNL     1      -3.445  -2.342  -1.178  0.00  0.00    +0.012 C 
ATOM     13  C   UNL     1      -2.767  -2.500   0.186  0.00  0.00    +0.030 C 
ATOM     14  C   UNL     1      -1.460  -1.704   0.196  0.00  0.00    -0.063 C 
ATOM     15  C   UNL     1      -2.467  -3.978   0.439  0.00  0.00    +0.019 C 
ATOM     16  H   UNL     1      -2.396   0.051   0.644  0.00  0.00    -0.082 HD
BRANCH   9  18
ATOM     17  C   UNL     1      -0.810   1.978  -0.094  0.00  0.00    -0.017 C 
ATOM     18  C   UNL     1      -0.498   0.485   0.037  0.00  0.00    -0.082 C 
ENDBRANCH   9  18
ENDBRANCH   1  13
BRANCH   6  19
ATOM     19  N   UNL     1      -7.649  -5.113   3.139  0.00  0.00    -0.248 N 
ATOM     20  C   UNL     1      -7.164  -5.541   4.327  0.00  0.00    +0.136 A 
ATOM     21  C   UNL     1      -8.002  -6.518   4.746  0.00  0.00    +0.114 A 
ATOM     22  N   UNL     1      -8.947  -6.637   3.807  0.00  0.00    -0.132 NA
ATOM     23  N   UNL     1      -8.712  -5.787   2.870  0.00  0.00    -0.065 NA
BRANCH  21  24
ATOM     24  C   UNL     1      -7.892  -7.314   6.021  0.00  0.00    +0.105 C 
ATOM     25  C   UNL     1      -9.048  -8.313   6.099  0.00  0.00    +0.048 C 
ATOM     26  C   UNL     1      -6.562  -8.070   6.037  0.00  0.00    +0.048 C 
BRANCH  24  27
ATOM     27  O   UNL     1      -7.951  -6.429   7.142  0.00  0.00    -0.383 OA
ATOM     28  H   UNL     1      -8.768  -5.916   7.196  0.00  0.00    +0.211 HD
ENDBRANCH  24  27
ENDBRANCH  21  24
ENDBRANCH   6  19
TORSDOF 5
