REMARK  Name = ZINC37091403
REMARK  7 active torsions:
REMARK  status: ('A' for Active; 'I' for Inactive)
REMARK    1  A    between atoms: C_1  and  C_2
REMARK    2  A    between atoms: C_7  and  N_8
REMARK    3  A    between atoms: N_8  and  C_9
REMARK    4  A    between atoms: C_9  and  C_11
REMARK    5  A    between atoms: C_9  and  C_12
REMARK    6  A    between atoms: C_15  and  O_19
REMARK    7  A    between atoms: C_17  and  O_18
REMARK                            x       y       z     vdW  Elec       q    Type
REMARK                         _______ _______ _______ _____ _____    ______ ____
ROOT
ATOM      1  C   UNL     1       0.047  -0.757   3.679  0.00  0.00    +0.101 C 
ATOM      2  C   UNL     1       1.556  -0.967   3.818  0.00  0.00    +0.033 C 
ENDROOT
BRANCH   1   3
ATOM      3  C   UNL     1      -0.441   0.133   4.792  0.00  0.00    +0.014 A 
ATOM      4  C   UNL     1      -0.526   1.499   4.598  0.00  0.00    +0.012 A 
ATOM      5  C   UNL     1      -0.973   2.318   5.617  0.00  0.00    +0.046 A 
ATOM      6  C   UNL     1      -1.339   1.770   6.838  0.00  0.00    +0.120 A 
ATOM      7  C   UNL     1      -1.255   0.401   7.036  0.00  0.00    +0.091 A 
ATOM      8  C   UNL     1      -0.811  -0.419   6.010  0.00  0.00    +0.125 A 
BRANCH   8   9
ATOM      9  O   UNL     1      -0.734  -1.763   6.199  0.00  0.00    -0.506 OA
ATOM     10  H   UNL     1       0.117  -2.063   6.545  0.00  0.00    +0.292 HD
ENDBRANCH   8   9
BRANCH   6  11
ATOM     11  O   UNL     1      -1.778   2.577   7.840  0.00  0.00    -0.507 OA
ATOM     12  H   UNL     1      -2.735   2.718   7.841  0.00  0.00    +0.292 HD
ENDBRANCH   6  11
ENDBRANCH   1   3
BRANCH   1  13
ATOM     13  N   UNL     1      -0.241  -0.127   2.388  0.00  0.00    -0.337 N 
ATOM     14  H   UNL     1      -0.330   0.837   2.327  0.00  0.00    +0.147 HD
BRANCH  13  21
ATOM     15  C   UNL     1      -0.799   1.179  -0.077  0.00  0.00    +0.045 C 
ATOM     16  C   UNL     1      -0.662  -0.319   0.019  0.00  0.00    -0.030 A 
ATOM     17  C   UNL     1      -0.803  -1.100  -1.111  0.00  0.00    +0.006 A 
ATOM     18  C   UNL     1      -0.677  -2.474  -1.025  0.00  0.00    +0.015 A 
ATOM     19  C   UNL     1      -0.411  -3.072   0.195  0.00  0.00    +0.020 A 
ATOM     20  C   UNL     1      -0.270  -2.296   1.330  0.00  0.00    +0.038 A 
ATOM     21  C   UNL     1      -0.389  -0.915   1.244  0.00  0.00    +0.032 A 
ATOM     22 BR   UNL     1      -0.240  -4.952   0.308  0.00  0.00    -0.050 Br
ENDBRANCH  13  21
ENDBRANCH   1  13
TORSDOF 5
