REMARK  Name = ZINC03904685
REMARK  9 active torsions:
REMARK  status: ('A' for Active; 'I' for Inactive)
REMARK    1  A    between atoms: C_1  and  C_2
REMARK    2  A    between atoms: C_2  and  C_22
REMARK    3  A    between atoms: C_4  and  N_9
REMARK    4  A    between atoms: C_6  and  C_7
REMARK    5  A    between atoms: C_6  and  C_8
REMARK    6  A    between atoms: N_9  and  C_10
REMARK    7  A    between atoms: C_10  and  N_12
REMARK    8  A    between atoms: N_12  and  C_13
REMARK    9  A    between atoms: C_16  and  N_19
REMARK                            x       y       z     vdW  Elec       q    Type
REMARK                         _______ _______ _______ _____ _____    ______ ____
ROOT
ATOM      1  N   UNL     1       1.545   3.282  -3.372  0.00  0.00    -0.324 N 
ATOM      2  H   UNL     1       1.969   2.550  -3.847  0.00  0.00    +0.148 HD
ENDROOT
BRANCH   1   6
ATOM      3  C   UNL     1      -1.382   1.657   0.217  0.00  0.00    -0.010 C 
ATOM      4  C   UNL     1      -0.136   2.531  -0.051  0.00  0.00    -0.072 C 
ATOM      5  C   UNL     1       0.033   2.636  -1.565  0.00  0.00    +0.009 C 
ATOM      6  C   UNL     1       1.400   3.224  -1.913  0.00  0.00    +0.069 C 
ATOM      7  C   UNL     1       2.479   2.306  -1.336  0.00  0.00    +0.009 C 
ATOM      8  C   UNL     1       2.346   2.237   0.185  0.00  0.00    -0.072 C 
ATOM      9  C   UNL     1       2.827   3.552   0.806  0.00  0.00    -0.010 C 
ATOM     10  C   UNL     1       3.288   1.120   0.684  0.00  0.00    -0.010 C 
ATOM     11  C   UNL     1      -0.425   3.921   0.529  0.00  0.00    -0.010 C 
ATOM     12  N   UNL     1       0.986   1.865   0.662  0.00  0.00    +0.386 N 
ATOM     13  H   UNL     1       0.876   0.850   0.551  0.00  0.00    -0.084 HD
ATOM     14  H   UNL     1       0.920   2.110   1.657  0.00  0.00    -0.084 HD
ENDBRANCH   1   6
BRANCH   1  15
ATOM     15  C   UNL     1       1.089   4.352  -4.053  0.00  0.00    +0.135 C 
ATOM     16  S   UNL     1       0.341   5.644  -3.216  0.00  0.00    -0.019 S 
BRANCH  15  17
ATOM     17  N   UNL     1       1.222   4.405  -5.393  0.00  0.00    -0.297 N 
ATOM     18  H   UNL     1       1.700   3.702  -5.861  0.00  0.00    +0.154 HD
BRANCH  17  19
ATOM     19  C   UNL     1       0.671   5.473  -6.109  0.00  0.00    +0.033 A 
ATOM     20  C   UNL     1      -0.041   5.234  -7.277  0.00  0.00    +0.025 A 
ATOM     21  C   UNL     1      -0.590   6.290  -7.979  0.00  0.00    +0.034 A 
ATOM     22  C   UNL     1      -0.419   7.585  -7.526  0.00  0.00    +0.126 A 
ATOM     23  C   UNL     1       0.295   7.827  -6.367  0.00  0.00    +0.034 A 
ATOM     24  C   UNL     1       0.840   6.775  -5.657  0.00  0.00    +0.025 A 
BRANCH  22  25
ATOM     25  N   UNL     1      -1.002   8.715  -8.284  0.00  0.00    +0.056 N 
ATOM     26  O   UNL     1      -0.853   9.856  -7.886  0.00  0.00    -0.126 OA
ATOM     27  O   UNL     1      -1.631   8.503  -9.305  0.00  0.00    -0.126 OA
ENDBRANCH  22  25
ENDBRANCH  17  19
ENDBRANCH  15  17
ENDBRANCH   1  15
TORSDOF 5
