REMARK  Name = ZINC63384679
REMARK  9 active torsions:
REMARK  status: ('A' for Active; 'I' for Inactive)
REMARK    1  A    between atoms: C_1  and  C_2
REMARK    2  A    between atoms: C_2  and  C_3
REMARK    3  A    between atoms: C_2  and  C_4
REMARK    4  A    between atoms: C_4  and  C_5
REMARK    5  A    between atoms: C_5  and  C_6
REMARK    6  A    between atoms: C_6  and  N_7
REMARK    7  A    between atoms: C_8  and  O_33
REMARK    8  A    between atoms: C_10  and  C_17
REMARK    9  A    between atoms: N_31  and  C_32
REMARK                            x       y       z     vdW  Elec       q    Type
REMARK                         _______ _______ _______ _____ _____    ______ ____
ROOT
ATOM      1  N   UNL     1      -2.850  -3.974  -0.482  0.00  0.00    -0.259 N 
ATOM      2  C   UNL     1      -2.795  -4.554  -1.825  0.00  0.00    +0.219 C 
ATOM      3  C   UNL     1      -1.938  -5.821  -1.800  0.00  0.00    +0.142 C 
ATOM      4  C   UNL     1      -2.347  -6.673  -0.625  0.00  0.00    +0.229 C 
ATOM      5  O   UNL     1      -2.312  -7.882  -0.711  0.00  0.00    -0.275 OA
ATOM      6  N   UNL     1      -2.751  -6.091   0.519  0.00  0.00    -0.240 N 
ATOM      7  C   UNL     1      -2.876  -4.757   0.608  0.00  0.00    +0.310 C 
ATOM      8  O   UNL     1      -3.022  -4.248   1.701  0.00  0.00    -0.252 OA
ATOM      9  H   UNL     1      -2.951  -6.644   1.291  0.00  0.00    +0.159 HD
ENDROOT
BRANCH   3  10
ATOM     10  C   UNL     1      -0.463  -5.438  -1.666  0.00  0.00    +0.099 C 
ATOM     11  C   UNL     1      -0.212  -4.830  -0.283  0.00  0.00    +0.124 C 
ATOM     12  C   UNL     1       1.226  -4.323  -0.295  0.00  0.00    -0.036 C 
ATOM     13  C   UNL     1       1.827  -4.876   0.749  0.00  0.00    -0.001 A 
ATOM     14  C   UNL     1       3.179  -4.707   1.307  0.00  0.00    +0.010 A 
ATOM     15  C   UNL     1       3.474  -5.457   2.401  0.00  0.00    +0.001 A 
ATOM     16  C   UNL     1       2.571  -6.348   2.989  0.00  0.00    +0.002 A 
ATOM     17  C   UNL     1       1.307  -6.563   2.546  0.00  0.00    +0.026 A 
ATOM     18  C   UNL     1       0.878  -5.827   1.404  0.00  0.00    +0.043 A 
ATOM     19  N   UNL     1      -0.289  -5.821   0.789  0.00  0.00    -0.376 N 
ATOM     20  C   UNL     1       1.747  -3.446  -1.408  0.00  0.00    +0.049 C 
ATOM     21  C   UNL     1       1.314  -4.118  -2.724  0.00  0.00    +0.089 C 
ATOM     22  N   UNL     1      -0.117  -4.432  -2.683  0.00  0.00    -0.299 NA
ATOM     23  C   UNL     1      -0.605  -4.836  -4.009  0.00  0.00    +0.105 C 
ATOM     24  H   UNL     1      -1.060  -6.371   0.999  0.00  0.00    +0.160 HD
ENDBRANCH   3  10
BRANCH   2  25
ATOM     25  O   UNL     1      -4.117  -4.883  -2.256  0.00  0.00    -0.373 OA
ATOM     26  H   UNL     1      -4.718  -4.126  -2.297  0.00  0.00    +0.212 HD
ENDBRANCH   2  25
BRANCH   1  27
ATOM     27  C   UNL     1      -2.870  -2.517  -0.325  0.00  0.00    +0.112 C 
BRANCH  27  28
ATOM     28  C   UNL     1      -1.438  -1.980  -0.363  0.00  0.00    +0.019 C 
BRANCH  28  29
ATOM     29  C   UNL     1      -1.467  -0.451  -0.342  0.00  0.00    +0.004 C 
BRANCH  29  31
ATOM     30  C   UNL     1      -0.065   1.613  -0.483  0.00  0.00    +0.007 C 
ATOM     31  C   UNL     1      -0.034   0.087  -0.379  0.00  0.00    -0.017 C 
ATOM     32  C   UNL     1       0.698  -0.323   0.900  0.00  0.00    +0.007 C 
ENDBRANCH  29  31
ENDBRANCH  28  29
ENDBRANCH  27  28
ENDBRANCH   1  27
TORSDOF 6
