REMARK  Name = ZINC06442461
REMARK  7 active torsions:
REMARK  status: ('A' for Active; 'I' for Inactive)
REMARK    1  A    between atoms: C_1  and  C_2
REMARK    2  A    between atoms: C_7  and  C_15
REMARK    3  A    between atoms: C_13  and  C_14
REMARK    4  A    between atoms: C_15  and  C_17
REMARK    5  A    between atoms: C_15  and  N_66
REMARK    6  A    between atoms: N_21  and  C_22
REMARK    7  A    between atoms: C_31  and  C_34
REMARK                            x       y       z     vdW  Elec       q    Type
REMARK                         _______ _______ _______ _____ _____    ______ ____
ROOT
ATOM      1  C   UNL     1       3.526   1.533  -1.198  0.00  0.00    +0.039 C 
ENDROOT
BRANCH   1   8
ATOM      2  C   UNL     1       7.026   1.085  -8.351  0.00  0.00    +0.044 C 
ATOM      3  C   UNL     1       6.433   1.393  -7.001  0.00  0.00    -0.046 A 
ATOM      4  C   UNL     1       6.551   2.672  -6.474  0.00  0.00    +0.004 A 
ATOM      5  C   UNL     1       6.021   2.973  -5.252  0.00  0.00    +0.010 A 
ATOM      6  C   UNL     1       5.352   1.983  -4.524  0.00  0.00    -0.001 A 
ATOM      7  C   UNL     1       4.768   2.271  -3.213  0.00  0.00    +0.017 A 
ATOM      8  C   UNL     1       4.135   1.270  -2.551  0.00  0.00    +0.011 A 
ATOM      9  C   UNL     1       4.040  -0.014  -3.128  0.00  0.00    +0.251 A 
ATOM     10  O   UNL     1       3.464  -0.898  -2.518  0.00  0.00    -0.268 OA
ATOM     11  N   UNL     1       4.570  -0.287  -4.333  0.00  0.00    -0.322 N 
ATOM     12  H   UNL     1       4.487  -1.181  -4.701  0.00  0.00    +0.169 HD
ATOM     13  C   UNL     1       5.230   0.685  -5.055  0.00  0.00    +0.052 A 
ATOM     14  C   UNL     1       5.778   0.403  -6.302  0.00  0.00    -0.024 A 
ATOM     15  C   UNL     1       5.657  -0.982  -6.886  0.00  0.00    +0.046 C 
ENDBRANCH   1   8
BRANCH   1  22
ATOM     16  C   UNL     1       1.444   1.674  -2.425  0.00  0.00    -0.077 C 
ATOM     17  C   UNL     1       0.009   1.145  -2.487  0.00  0.00    -0.018 C 
ATOM     18  C   UNL     1      -0.749   1.594  -1.235  0.00  0.00    -0.001 C 
ATOM     19  C   UNL     1      -0.013   1.086   0.008  0.00  0.00    -0.031 C 
ATOM     20  C   UNL     1       1.423   1.616  -0.003  0.00  0.00    -0.074 C 
ATOM     21  C   UNL     1      -0.730   1.580   1.266  0.00  0.00    +0.005 C 
ATOM     22  N   UNL     1       2.105   1.129  -1.220  0.00  0.00    +0.389 N 
ATOM     23  H   UNL     1       2.050   0.104  -1.245  0.00  0.00    -0.080 HD
ENDBRANCH   1  22
BRANCH   1  24
ATOM     24  C   UNL     1       4.245   0.715  -0.157  0.00  0.00    +0.143 A 
ATOM     25  N   UNL     1       4.122  -0.574   0.048  0.00  0.00    -0.115 NA
ATOM     26  N   UNL     1       4.901  -0.898   1.022  0.00  0.00    -0.023 NA
ATOM     27  N   UNL     1       5.512   0.152   1.449  0.00  0.00    -0.044 NA
ATOM     28  N   UNL     1       5.134   1.167   0.748  0.00  0.00    -0.227 N 
BRANCH  28  29
ATOM     29  C   UNL     1       5.587   2.551   0.906  0.00  0.00    +0.111 C 
ATOM     30  C   UNL     1       7.101   2.619   0.698  0.00  0.00    +0.027 C 
ATOM     31  C   UNL     1       7.575   4.064   0.863  0.00  0.00    +0.002 C 
ATOM     32  C   UNL     1       7.230   4.556   2.270  0.00  0.00    +0.000 C 
ATOM     33  C   UNL     1       5.716   4.488   2.478  0.00  0.00    +0.002 C 
ATOM     34  C   UNL     1       5.243   3.042   2.313  0.00  0.00    +0.027 C 
ENDBRANCH  28  29
ENDBRANCH   1  24
TORSDOF 4
