REMARK  Name = ZINC25602409
REMARK  5 active torsions:
REMARK  status: ('A' for Active; 'I' for Inactive)
REMARK    1  A    between atoms: C_11  and  C_14
REMARK    2  A    between atoms: C_14  and  C_15
REMARK    3  A    between atoms: N_17  and  C_18
REMARK    4  A    between atoms: N_21  and  C_24
REMARK    5  A    between atoms: C_24  and  C_25
REMARK                            x       y       z     vdW  Elec       q    Type
REMARK                         _______ _______ _______ _____ _____    ______ ____
ROOT
ATOM      1  C   UNL     1       0.054   1.444  -0.270  0.00  0.00    +0.218 C 
ATOM      2  O   UNL     1       1.073   2.055  -0.513  0.00  0.00    -0.275 OA
ATOM      3  N   UNL     1       0.098   0.112  -0.070  0.00  0.00    -0.312 N 
ATOM      4  H   UNL     1      -0.827  -0.442   0.150  0.00  0.00    +0.149 HD
ENDROOT
BRANCH   3   5
ATOM      5  C   UNL     1       1.377  -0.598  -0.147  0.00  0.00    +0.069 C 
ATOM      6  C   UNL     1       1.673  -0.962  -1.605  0.00  0.00    +0.003 C 
ATOM      7  C   UNL     1       2.979  -1.757  -1.671  0.00  0.00    -0.076 C 
ATOM      8  N   UNL     1       2.855  -2.974  -0.859  0.00  0.00    +0.385 N 
ATOM      9  C   UNL     1       2.617  -2.649   0.553  0.00  0.00    -0.076 C 
ATOM     10  C   UNL     1       1.300  -1.881   0.686  0.00  0.00    +0.003 C 
ATOM     11  H   UNL     1       1.982  -3.534  -1.226  0.00  0.00    -0.081 HD
BRANCH   8  12
ATOM     12  C   UNL     1       4.039  -3.831  -1.010  0.00  0.00    +0.018 C 
BRANCH  12  13
ATOM     13  C   UNL     1       3.771  -5.173  -0.380  0.00  0.00    +0.194 C 
ATOM     14  O   UNL     1       2.665  -5.436   0.041  0.00  0.00    -0.278 OA
ATOM     15  N   UNL     1       4.762  -6.082  -0.285  0.00  0.00    -0.331 N 
ATOM     16  H   UNL     1       4.566  -7.063   0.175  0.00  0.00    +0.145 HD
ATOM     17  H   UNL     1       5.765  -5.845  -0.667  0.00  0.00    +0.145 HD
ENDBRANCH  12  13
ENDBRANCH   8  12
ENDBRANCH   3   5
BRANCH   1  18
ATOM     18  C   UNL     1      -1.263   2.174  -0.197  0.00  0.00    +0.134 C 
BRANCH  18  29
ATOM     19  C   UNL     1      -1.263   3.101  -5.799  0.00  0.00    +0.001 A 
ATOM     20  C   UNL     1      -1.385   2.156  -4.785  0.00  0.00    +0.001 A 
ATOM     21  C   UNL     1      -1.293   2.521  -3.474  0.00  0.00    +0.009 A 
ATOM     22  C   UNL     1      -1.074   3.862  -3.141  0.00  0.00    -0.007 A 
ATOM     23  C   UNL     1      -0.950   4.826  -4.171  0.00  0.00    -0.017 A 
ATOM     24  C   UNL     1      -1.049   4.415  -5.510  0.00  0.00    +0.008 A 
ATOM     25  C   UNL     1      -0.729   6.175  -3.835  0.00  0.00    +0.012 A 
ATOM     26  C   UNL     1      -0.634   6.569  -2.541  0.00  0.00    +0.047 A 
ATOM     27  C   UNL     1      -0.749   5.658  -1.485  0.00  0.00    +0.136 A 
ATOM     28  C   UNL     1      -0.969   4.304  -1.757  0.00  0.00    +0.031 A 
ATOM     29  C   UNL     1      -1.038   3.642  -0.456  0.00  0.00    +0.007 A 
ATOM     30  C   UNL     1      -0.868   4.607   0.464  0.00  0.00    +0.200 A 
ATOM     31  O   UNL     1      -0.692   5.792  -0.144  0.00  0.00    -0.463 OA
ENDBRANCH  18  29
ENDBRANCH   1  18
TORSDOF 5
