REMARK  Name = ZINC13316677
REMARK  6 active torsions:
REMARK  status: ('A' for Active; 'I' for Inactive)
REMARK    1  A    between atoms: C_1  and  C_2
REMARK    2  A    between atoms: C_5  and  N_9
REMARK    3  A    between atoms: C_10  and  C_12
REMARK    4  A    between atoms: C_12  and  N_13
REMARK    5  A    between atoms: C_15  and  N_22
REMARK    6  A    between atoms: C_17  and  C_20
REMARK                            x       y       z     vdW  Elec       q    Type
REMARK                         _______ _______ _______ _____ _____    ______ ____
ROOT
ATOM      1  C   UNL     1      -2.444   5.298   0.223  0.00  0.00    +0.220 C 
ENDROOT
BRANCH   1   2
ATOM      2  N   UNL     1      -2.833   3.909   0.482  0.00  0.00    -0.304 N 
ATOM      3  C   UNL     1      -1.992   2.906   0.134  0.00  0.00    +0.122 A 
ATOM      4  C   UNL     1      -2.316   1.606   0.356  0.00  0.00    +0.143 A 
ATOM      5  C   UNL     1      -3.533   1.281   0.954  0.00  0.00    +0.054 A 
ATOM      6  C   UNL     1      -4.404   2.308   1.315  0.00  0.00    +0.130 A 
ATOM      7  C   UNL     1      -4.023   3.651   1.056  0.00  0.00    +0.266 A 
ATOM      8  O   UNL     1      -4.768   4.567   1.358  0.00  0.00    -0.267 OA
BRANCH   6   9
ATOM      9  C   UNL     1      -5.695   2.006   1.947  0.00  0.00    +0.392 C 
ATOM     10  O   UNL     1      -6.013   0.852   2.160  0.00  0.00    -0.240 OA
ATOM     11  O   UNL     1      -6.528   3.009   2.292  0.00  0.00    -0.240 OA
ENDBRANCH   6   9
BRANCH   4  12
ATOM     12  N   UNL     1      -1.375   0.533  -0.036  0.00  0.00    +0.058 N 
ATOM     13  O   UNL     1      -0.312   0.816  -0.558  0.00  0.00    -0.126 OA
ATOM     14  O   UNL     1      -1.664  -0.633   0.164  0.00  0.00    -0.126 OA
ENDBRANCH   4  12
ENDBRANCH   1   2
BRANCH   1  16
ATOM     15  N   UNL     1      -2.675   6.951  -1.602  0.00  0.00    -0.282 N 
ATOM     16  C   UNL     1      -2.921   5.707  -1.146  0.00  0.00    +0.237 C 
ATOM     17  O   UNL     1      -3.527   4.916  -1.838  0.00  0.00    -0.274 OA
ATOM     18  H   UNL     1      -2.256   7.606  -1.022  0.00  0.00    +0.155 HD
BRANCH  15  23
ATOM     19  C   UNL     1      -4.095   8.359  -6.913  0.00  0.00    +0.044 C 
ATOM     20  C   UNL     1      -3.718   7.985  -5.503  0.00  0.00    -0.048 A 
ATOM     21  C   UNL     1      -4.616   8.189  -4.472  0.00  0.00    +0.020 A 
ATOM     22  C   UNL     1      -4.274   7.848  -3.177  0.00  0.00    +0.040 A 
ATOM     23  C   UNL     1      -3.026   7.298  -2.912  0.00  0.00    +0.062 A 
ATOM     24  C   UNL     1      -2.123   7.100  -3.950  0.00  0.00    +0.040 A 
ATOM     25  C   UNL     1      -2.475   7.438  -5.243  0.00  0.00    +0.020 A 
ATOM     26 BR   UNL     1      -0.420   6.360  -3.595  0.00  0.00    -0.048 Br
ATOM     27 BR   UNL     1      -5.503   8.127  -1.768  0.00  0.00    -0.048 Br
ENDBRANCH  15  23
ENDBRANCH   1  16
TORSDOF 5
