REMARK  Name = ZINC13252688
REMARK  6 active torsions:
REMARK  status: ('A' for Active; 'I' for Inactive)
REMARK    1  A    between atoms: C_4  and  S_9
REMARK    2  A    between atoms: C_6  and  C_7
REMARK    3  A    between atoms: S_9  and  N_12
REMARK    4  A    between atoms: N_12  and  C_13
REMARK    5  A    between atoms: C_18  and  C_19
REMARK    6  A    between atoms: C_18  and  N_41
REMARK                            x       y       z     vdW  Elec       q    Type
REMARK                         _______ _______ _______ _____ _____    ______ ____
ROOT
ATOM      1  N   UNL     1      -5.810   1.531   1.371  0.00  0.00    -0.187 NA
ATOM      2  H   UNL     1      -6.013   0.861   2.043  0.00  0.00    +0.148 HD
ENDROOT
BRANCH   1   3
ATOM      3  C   UNL     1      -6.223   2.922   1.575  0.00  0.00    +0.073 C 
ATOM      4  C   UNL     1      -5.184   3.643   2.438  0.00  0.00    +0.002 C 
ATOM      5  C   UNL     1      -5.651   5.077   2.699  0.00  0.00    -0.077 C 
ATOM      6  C   UNL     1      -7.975   4.407   2.554  0.00  0.00    -0.077 C 
ATOM      7  C   UNL     1      -7.578   2.954   2.289  0.00  0.00    +0.002 C 
ATOM      8  N   UNL     1      -6.947   5.038   3.409  0.00  0.00    +0.385 N 
ATOM      9  H   UNL     1      -6.840   4.482   4.266  0.00  0.00    -0.081 HD
BRANCH   8  10
ATOM     10  C   UNL     1      -7.364   6.407   3.774  0.00  0.00    +0.018 C 
BRANCH  10  11
ATOM     11  C   UNL     1      -8.551   6.323   4.699  0.00  0.00    +0.194 C 
ATOM     12  O   UNL     1      -8.937   5.243   5.092  0.00  0.00    -0.278 OA
ATOM     13  N   UNL     1      -9.183   7.448   5.089  0.00  0.00    -0.331 N 
ATOM     14  H   UNL     1      -8.873   8.312   4.774  0.00  0.00    +0.145 HD
ATOM     15  H   UNL     1      -9.947   7.393   5.684  0.00  0.00    +0.145 HD
ENDBRANCH  10  11
ENDBRANCH   8  10
ENDBRANCH   1   3
BRANCH   1  16
ATOM     16  S   UNL     1      -4.998   1.103  -0.007  0.00  0.00    +0.060 S 
ATOM     17  O   UNL     1      -4.802  -0.303   0.057  0.00  0.00    -0.153 OA
ATOM     18  O   UNL     1      -3.919   2.018  -0.143  0.00  0.00    -0.153 OA
BRANCH  16  22
ATOM     19  C   UNL     1      -7.807   1.854  -3.491  0.00  0.00    +0.016 A 
ATOM     20  C   UNL     1      -8.119   0.905  -2.540  0.00  0.00    +0.023 A 
ATOM     21  C   UNL     1      -7.261   0.678  -1.477  0.00  0.00    +0.067 A 
ATOM     22  C   UNL     1      -6.083   1.398  -1.364  0.00  0.00    +0.124 A 
ATOM     23  C   UNL     1      -5.757   2.345  -2.311  0.00  0.00    +0.045 A 
ATOM     24  C   UNL     1      -6.618   2.579  -3.386  0.00  0.00    +0.065 A 
ATOM     25 CL   UNL     1      -7.664  -0.513  -0.280  0.00  0.00    -0.082 Cl
BRANCH  24  26
ATOM     26  C   UNL     1      -6.275   3.592  -4.404  0.00  0.00    +0.387 C 
ATOM     27  O   UNL     1      -5.243   4.224  -4.308  0.00  0.00    -0.241 OA
ATOM     28  O   UNL     1      -7.105   3.811  -5.443  0.00  0.00    -0.241 OA
ENDBRANCH  24  26
ENDBRANCH  16  22
ENDBRANCH   1  16
TORSDOF 6
