REMARK  Name = ZINC10158809
REMARK  7 active torsions:
REMARK  status: ('A' for Active; 'I' for Inactive)
REMARK    1  A    between atoms: C_4  and  N_7
REMARK    2  A    between atoms: C_10  and  C_12
REMARK    3  A    between atoms: N_14  and  N_15
REMARK    4  A    between atoms: C_16  and  C_18
REMARK    5  A    between atoms: C_18  and  S_19
REMARK    6  A    between atoms: S_19  and  C_20
REMARK    7  A    between atoms: C_20  and  C_21
REMARK                            x       y       z     vdW  Elec       q    Type
REMARK                         _______ _______ _______ _____ _____    ______ ____
ROOT
ATOM      1  C   UNL     1       7.184  -0.757  -0.066  0.00  0.00    +0.284 C 
ATOM      2  O   UNL     1       7.960  -1.692  -0.080  0.00  0.00    -0.267 OA
ATOM      3  N   UNL     1       7.652   0.507  -0.058  0.00  0.00    -0.229 N 
ATOM      4  H   UNL     1       7.032   1.254  -0.046  0.00  0.00    +0.173 HD
ENDROOT
BRANCH   1   8
ATOM      5  N   UNL     1       3.623  -0.651  -0.037  0.00  0.00    -0.235 N 
ATOM      6  C   UNL     1       3.760  -2.006  -0.051  0.00  0.00    +0.166 A 
ATOM      7  C   UNL     1       5.091  -2.271  -0.064  0.00  0.00    +0.229 A 
ATOM      8  C   UNL     1       5.730  -1.005  -0.057  0.00  0.00    +0.195 A 
ATOM      9  N   UNL     1       4.778  -0.090  -0.047  0.00  0.00    -0.158 NA
ATOM     10  O   UNL     1       5.687  -3.494  -0.080  0.00  0.00    -0.284 OA
BRANCH   5  14
ATOM     11  C   UNL     1      -0.017   1.379   0.010  0.00  0.00    +0.000 A 
ATOM     12  C   UNL     1       1.170   2.089   0.002  0.00  0.00    +0.002 A 
ATOM     13  C   UNL     1       2.377   1.419  -0.013  0.00  0.00    +0.028 A 
ATOM     14  C   UNL     1       2.400   0.031  -0.021  0.00  0.00    +0.065 A 
ATOM     15  C   UNL     1       1.206  -0.680  -0.013  0.00  0.00    +0.028 A 
ATOM     16  C   UNL     1       0.002  -0.004   0.002  0.00  0.00    +0.002 A 
ENDBRANCH   5  14
ENDBRANCH   1   8
BRANCH   3  17
ATOM     17  N   UNL     1       9.033   0.743  -0.066  0.00  0.00    -0.233 N 
ATOM     18  C   UNL     1       9.500   2.007  -0.057  0.00  0.00    +0.239 C 
ATOM     19  O   UNL     1       8.726   2.940  -0.043  0.00  0.00    -0.273 OA
ATOM     20  H   UNL     1       9.652  -0.003  -0.077  0.00  0.00    +0.173 HD
BRANCH  18  21
ATOM     21  C   UNL     1      10.986   2.261  -0.066  0.00  0.00    +0.166 C 
BRANCH  21  22
ATOM     22  S   UNL     1      11.294   4.048  -0.051  0.00  0.00    -0.147 S 
BRANCH  22  23
ATOM     23  C   UNL     1      13.103   4.181  -0.064  0.00  0.00    +0.104 C 
BRANCH  23  24
ATOM     24  C   UNL     1      13.500   5.635  -0.053  0.00  0.00    -0.036 A 
ATOM     25  C   UNL     1      13.667   6.315  -1.246  0.00  0.00    +0.004 A 
ATOM     26  C   UNL     1      14.031   7.648  -1.237  0.00  0.00    +0.002 A 
ATOM     27  C   UNL     1      14.228   8.303  -0.035  0.00  0.00    +0.020 A 
ATOM     28  C   UNL     1      14.061   7.624   1.158  0.00  0.00    +0.041 A 
ATOM     29  C   UNL     1      13.691   6.291   1.149  0.00  0.00    +0.024 A 
ATOM     30 CL   UNL     1      14.308   8.446   2.667  0.00  0.00    -0.084 Cl
ENDBRANCH  23  24
ENDBRANCH  22  23
ENDBRANCH  21  22
ENDBRANCH  18  21
ENDBRANCH   3  17
TORSDOF 7
