REMARK  Name = ZINC59264059
REMARK  7 active torsions:
REMARK  status: ('A' for Active; 'I' for Inactive)
REMARK    1  A    between atoms: C_4  and  O_25
REMARK    2  A    between atoms: C_5  and  C_7
REMARK    3  A    between atoms: C_10  and  S_13
REMARK    4  A    between atoms: N_11  and  N_12
REMARK    5  A    between atoms: S_13  and  C_14
REMARK    6  A    between atoms: C_14  and  C_15
REMARK    7  A    between atoms: C_15  and  C_16
REMARK                            x       y       z     vdW  Elec       q    Type
REMARK                         _______ _______ _______ _____ _____    ______ ____
ROOT
ATOM      1  C   UNL     1       1.247  -2.161  -0.033  0.00  0.00    +0.185 A 
ATOM      2  N   UNL     1       2.317  -2.922  -0.040  0.00  0.00    -0.127 NA
ATOM      3  N   UNL     1       1.974  -4.160  -0.045  0.00  0.00    -0.121 NA
ATOM      4  C   UNL     1       0.665  -4.266  -0.040  0.00  0.00    +0.209 A 
ATOM      5  N   UNL     1       0.156  -2.999  -0.026  0.00  0.00    -0.224 N 
ENDROOT
BRANCH   1  10
ATOM      6  C   UNL     1      -0.018   1.375  -0.006  0.00  0.00    +0.001 A 
ATOM      7  C   UNL     1       1.168   2.089  -0.014  0.00  0.00    +0.004 A 
ATOM      8  C   UNL     1       2.381   1.427  -0.028  0.00  0.00    +0.046 A 
ATOM      9  C   UNL     1       2.417   0.043  -0.034  0.00  0.00    +0.128 A 
ATOM     10  C   UNL     1       1.220  -0.683  -0.026  0.00  0.00    +0.062 A 
ATOM     11  C   UNL     1       0.001  -0.004  -0.012  0.00  0.00    +0.015 A 
BRANCH   9  12
ATOM     12  O   UNL     1       3.609  -0.609  -0.048  0.00  0.00    -0.506 OA
ATOM     13  H   UNL     1       3.963  -0.801   0.832  0.00  0.00    +0.292 HD
ENDBRANCH   9  12
ENDBRANCH   1  10
BRANCH   5  14
ATOM     14  N   UNL     1      -1.162  -2.638  -0.013  0.00  0.00    -0.295 N 
ATOM     15  H   UNL     1      -1.519  -2.538  -0.951  0.00  0.00    +0.163 HD
ATOM     16  H   UNL     1      -1.712  -3.299   0.516  0.00  0.00    +0.163 HD
ENDBRANCH   5  14
BRANCH   4  17
ATOM     17  S   UNL     1      -0.262  -5.765  -0.044  0.00  0.00    -0.084 S 
BRANCH  17  18
ATOM     18  C   UNL     1       1.004  -7.064  -0.055  0.00  0.00    +0.086 C 
BRANCH  18  19
ATOM     19  C   UNL     1       0.327  -8.436  -0.059  0.00  0.00    +0.107 C 
BRANCH  19  20
ATOM     20  C   UNL     1       1.378  -9.515  -0.069  0.00  0.00    +0.219 C 
ATOM     21  O   UNL     1       2.554  -9.217  -0.071  0.00  0.00    -0.275 OA
ATOM     22  N   UNL     1       1.013 -10.813  -0.074  0.00  0.00    -0.270 N 
ATOM     23  C   UNL     1       1.981 -11.809  -0.189  0.00  0.00    +0.125 A 
ATOM     24  C   UNL     1       1.590 -13.139  -0.300  0.00  0.00    +0.044 A 
ATOM     25  C   UNL     1       2.561 -14.118  -0.414  0.00  0.00    +0.005 A 
ATOM     26  C   UNL     1       3.895 -13.732  -0.412  0.00  0.00    +0.020 A 
ATOM     27  C   UNL     1       4.210 -12.392  -0.299  0.00  0.00    +0.113 A 
ATOM     28  N   UNL     1       3.263 -11.480  -0.197  0.00  0.00    -0.240 NA
ATOM     29  H   UNL     1       0.076 -11.053   0.003  0.00  0.00    +0.156 HD
ENDBRANCH  19  20
ENDBRANCH  18  19
ENDBRANCH  17  18
ENDBRANCH   4  17
TORSDOF 7
