REMARK  Name = ZINC34748727
REMARK  7 active torsions:
REMARK  status: ('A' for Active; 'I' for Inactive)
REMARK    1  A    between atoms: C_1  and  C_2
REMARK    2  A    between atoms: C_3  and  C_37
REMARK    3  A    between atoms: N_9  and  C_27
REMARK    4  A    between atoms: N_15  and  C_18
REMARK    5  A    between atoms: C_18  and  C_19
REMARK    6  A    between atoms: C_27  and  C_28
REMARK    7  A    between atoms: N_30  and  C_31
REMARK                            x       y       z     vdW  Elec       q    Type
REMARK                         _______ _______ _______ _____ _____    ______ ____
ROOT
ATOM      1  C   UNL     1       0.001   1.468  -0.036  0.00  0.00    +0.045 C 
ATOM      2  C   UNL     1       0.073  -0.037  -0.021  0.00  0.00    -0.026 A 
ATOM      3  C   UNL     1       0.163  -0.724  -1.169  0.00  0.00    -0.008 A 
ATOM      4  S   UNL     1       0.219  -2.423  -0.633  0.00  0.00    -0.073 S 
ATOM      5  C   UNL     1       0.120  -2.162   1.120  0.00  0.00    +0.117 A 
ATOM      6  C   UNL     1       0.052  -0.761   1.239  0.00  0.00    +0.075 A 
ATOM      7  C   UNL     1      -0.032  -0.253   2.574  0.00  0.00    +0.264 A 
ATOM      8  O   UNL     1      -0.099   0.947   2.775  0.00  0.00    -0.267 OA
ATOM      9  N   UNL     1      -0.036  -1.119   3.604  0.00  0.00    -0.271 N 
ATOM     10  C   UNL     1       0.039  -2.465   3.399  0.00  0.00    +0.202 A 
ATOM     11  N   UNL     1       0.106  -2.960   2.181  0.00  0.00    -0.208 NA
ATOM     12  N   UNL     1       0.032  -3.315   4.476  0.00  0.00    -0.304 N 
ATOM     13  C   UNL     1      -1.230  -3.856   5.005  0.00  0.00    +0.089 C 
ATOM     14  C   UNL     1      -1.090  -5.376   5.136  0.00  0.00    -0.059 C 
ATOM     15  N   UNL     1       0.092  -5.690   5.948  0.00  0.00    +0.387 N 
ATOM     16  C   UNL     1       1.307  -5.240   5.258  0.00  0.00    -0.059 C 
ATOM     17  C   UNL     1       1.287  -3.717   5.130  0.00  0.00    +0.089 C 
ATOM     18  C   UNL     1       0.206  -0.187  -2.577  0.00  0.00    +0.052 C 
ATOM     19  H   UNL     1       0.020  -5.223   6.839  0.00  0.00    -0.081 HD
ENDROOT
BRANCH  15  20
ATOM     20  C   UNL     1       0.163  -7.141   6.165  0.00  0.00    +0.019 C 
BRANCH  20  21
ATOM     21  C   UNL     1       1.304  -7.454   7.098  0.00  0.00    +0.199 C 
ATOM     22  O   UNL     1       1.990  -6.557   7.540  0.00  0.00    -0.278 OA
ATOM     23  N   UNL     1       1.562  -8.732   7.443  0.00  0.00    -0.303 N 
ATOM     24  C   UNL     1       0.744  -9.830   6.911  0.00  0.00    +0.107 C 
ATOM     25  C   UNL     1       1.669 -10.865   6.262  0.00  0.00    +0.019 C 
ATOM     26  C   UNL     1       2.727 -11.303   7.276  0.00  0.00    +0.003 C 
ATOM     27  C   UNL     1       3.570 -10.095   7.692  0.00  0.00    +0.019 C 
ATOM     28  C   UNL     1       2.670  -9.053   8.352  0.00  0.00    +0.107 C 
ENDBRANCH  20  21
ENDBRANCH  15  20
BRANCH   9  29
ATOM     29  C   UNL     1      -0.122  -0.604   4.973  0.00  0.00    +0.223 C 
BRANCH  29  30
ATOM     30  C   UNL     1      -1.569  -0.409   5.347  0.00  0.00    +0.233 C 
ATOM     31  O   UNL     1      -2.442  -0.673   4.548  0.00  0.00    -0.274 OA
ATOM     32  N   UNL     1      -1.893   0.059   6.568  0.00  0.00    -0.311 N 
ATOM     33  H   UNL     1      -1.194   0.271   7.207  0.00  0.00    +0.149 HD
BRANCH  32  34
ATOM     34  C   UNL     1      -3.299   0.249   6.931  0.00  0.00    +0.073 C 
ATOM     35  C   UNL     1      -3.876  -1.071   7.446  0.00  0.00    +0.022 C 
ATOM     36  C   UNL     1      -5.345  -0.873   7.825  0.00  0.00    +0.002 C 
ATOM     37  C   UNL     1      -5.450   0.191   8.919  0.00  0.00    +0.000 C 
ATOM     38  C   UNL     1      -4.873   1.511   8.405  0.00  0.00    +0.002 C 
ATOM     39  C   UNL     1      -3.404   1.313   8.026  0.00  0.00    +0.022 C 
ENDBRANCH  32  34
ENDBRANCH  29  30
ENDBRANCH   9  29
TORSDOF 5
