REMARK  Name = ZINC35415003
REMARK  7 active torsions:
REMARK  status: ('A' for Active; 'I' for Inactive)
REMARK    1  A    between atoms: C_1  and  N_2
REMARK    2  A    between atoms: C_6  and  C_7
REMARK    3  A    between atoms: C_7  and  O_8
REMARK    4  A    between atoms: O_8  and  C_9
REMARK    5  A    between atoms: C_12  and  N_17
REMARK    6  A    between atoms: C_14  and  C_15
REMARK    7  A    between atoms: C_15  and  O_16
REMARK                            x       y       z     vdW  Elec       q    Type
REMARK                         _______ _______ _______ _____ _____    ______ ____
ROOT
ATOM      1  C   UNL     1      -1.485   0.177   4.274  0.00  0.00    +0.127 A 
ATOM      2  C   UNL     1      -0.381   0.454   5.068  0.00  0.00    +0.048 A 
ATOM      3  C   UNL     1      -0.558   0.867   6.374  0.00  0.00    +0.036 A 
ATOM      4  C   UNL     1      -1.833   1.005   6.891  0.00  0.00    +0.127 A 
ATOM      5  C   UNL     1      -2.935   0.729   6.101  0.00  0.00    +0.042 A 
ATOM      6  C   UNL     1      -2.763   0.321   4.793  0.00  0.00    +0.022 A 
ENDROOT
BRANCH   4   7
ATOM      7  N   UNL     1      -2.020   1.447   8.290  0.00  0.00    +0.056 N 
ATOM      8  O   UNL     1      -1.058   1.688   8.982  0.00  0.00    -0.126 OA
ATOM      9  O   UNL     1      -3.135   1.568   8.743  0.00  0.00    -0.126 OA
ENDBRANCH   4   7
BRANCH   1  10
ATOM     10  O   UNL     1      -1.314  -0.229   2.988  0.00  0.00    -0.484 OA
BRANCH  10  11
ATOM     11  C   UNL     1       0.031  -0.355   2.522  0.00  0.00    +0.303 C 
BRANCH  11  17
ATOM     12  C   UNL     1      -0.018   1.461   0.010  0.00  0.00    +0.151 C 
ATOM     13  N   UNL     1       0.002  -0.004   0.002  0.00  0.00    -0.319 N 
ATOM     14  C   UNL     1       0.009  -0.810  -1.104  0.00  0.00    +0.129 A 
ATOM     15  C   UNL     1       0.028  -2.082  -0.659  0.00  0.00    +0.151 A 
ATOM     16  N   UNL     1       0.033  -2.053   0.682  0.00  0.00    -0.236 NA
ATOM     17  C   UNL     1       0.023  -0.812   1.085  0.00  0.00    +0.148 A 
ATOM     18 CL   UNL     1      -0.006  -0.294  -2.761  0.00  0.00    -0.062 Cl
ENDBRANCH  11  17
ENDBRANCH  10  11
ENDBRANCH   1  10
BRANCH   6  19
ATOM     19  C   UNL     1      -3.964   0.027   3.931  0.00  0.00    +0.194 C 
BRANCH  19  20
ATOM     20  O   UNL     1      -5.157   0.247   4.686  0.00  0.00    -0.390 OA
ATOM     21  H   UNL     1      -5.972   0.077   4.193  0.00  0.00    +0.210 HD
ENDBRANCH  19  20
ENDBRANCH   6  19
TORSDOF 6
