REMARK  Name = ZINC00931346
REMARK  10 active torsions:
REMARK  status: ('A' for Active; 'I' for Inactive)
REMARK    1  A    between atoms: C_1  and  C_2
REMARK    2  A    between atoms: C_5  and  N_9
REMARK    3  A    between atoms: C_7  and  C_8
REMARK    4  A    between atoms: N_9  and  C_10
REMARK    5  A    between atoms: C_10  and  C_12
REMARK    6  A    between atoms: C_10  and  C_19
REMARK    7  A    between atoms: N_14  and  C_18
REMARK    8  A    between atoms: C_16  and  C_17
REMARK    9  A    between atoms: N_21  and  C_22
REMARK   10  A    between atoms: C_28  and  C_30
REMARK                            x       y       z     vdW  Elec       q    Type
REMARK                         _______ _______ _______ _____ _____    ______ ____
ROOT
ATOM      1  N   UNL     1      -1.811   8.016   0.191  0.00  0.00    -0.252 N 
ATOM      2  C   UNL     1      -0.654   7.511  -0.281  0.00  0.00    +0.265 C 
ATOM      3  O   UNL     1       0.146   8.240  -0.830  0.00  0.00    -0.271 OA
ENDROOT
BRANCH   2   4
ATOM      4  C   UNL     1      -0.353   6.043  -0.127  0.00  0.00    +0.296 C 
ATOM      5  C   UNL     1      -1.273   5.227  -1.046  0.00  0.00    +0.283 C 
ATOM      6  O   UNL     1      -0.952   3.841  -0.885  0.00  0.00    -0.484 OA
ATOM      7  C   UNL     1       0.369   3.513  -0.902  0.00  0.00    +0.162 A 
ATOM      8  C   UNL     1       0.740   2.195  -1.120  0.00  0.00    +0.049 A 
ATOM      9  C   UNL     1       2.077   1.845  -1.131  0.00  0.00    +0.004 A 
ATOM     10  C   UNL     1       3.048   2.809  -0.936  0.00  0.00    +0.004 A 
ATOM     11  C   UNL     1       2.685   4.126  -0.725  0.00  0.00    +0.049 A 
ATOM     12  C   UNL     1       1.345   4.483  -0.708  0.00  0.00    +0.163 A 
ATOM     13  O   UNL     1       1.003   5.785  -0.506  0.00  0.00    -0.472 OA
ENDBRANCH   2   4
BRANCH   1  18
ATOM     14  C   UNL     1      -5.362   4.705   3.126  0.00  0.00    +0.044 C 
ATOM     15  C   UNL     1      -4.418   5.584   2.346  0.00  0.00    -0.047 A 
ATOM     16  C   UNL     1      -4.749   5.986   1.065  0.00  0.00    +0.005 A 
ATOM     17  C   UNL     1      -3.890   6.796   0.350  0.00  0.00    +0.024 A 
ATOM     18  C   UNL     1      -2.687   7.199   0.914  0.00  0.00    +0.038 A 
ATOM     19  C   UNL     1      -2.357   6.794   2.201  0.00  0.00    +0.027 A 
ATOM     20  C   UNL     1      -3.223   5.987   2.913  0.00  0.00    -0.046 A 
ATOM     21  C   UNL     1      -2.866   5.547   4.309  0.00  0.00    +0.044 C 
ENDBRANCH   1  18
BRANCH   1  22
ATOM     22  C   UNL     1      -2.152   9.419  -0.054  0.00  0.00    +0.200 C 
BRANCH  22  23
ATOM     23  C   UNL     1      -3.512   9.501  -0.699  0.00  0.00    +0.022 A 
ATOM     24  C   UNL     1      -4.657   9.894  -0.095  0.00  0.00    +0.114 A 
ATOM     25  N   UNL     1      -5.648   9.827  -1.009  0.00  0.00    -0.274 N 
ATOM     26  N   UNL     1      -5.093   9.378  -2.214  0.00  0.00    -0.176 NA
ATOM     27  C   UNL     1      -3.812   9.188  -2.029  0.00  0.00    +0.065 A 
ATOM     28  C   UNL     1      -2.830   8.712  -3.068  0.00  0.00    +0.068 C 
ATOM     29  C   UNL     1      -7.055  10.165  -0.780  0.00  0.00    +0.172 C 
ENDBRANCH  22  23
BRANCH  22  30
ATOM     30  C   UNL     1      -2.171  10.167   1.254  0.00  0.00    +0.239 C 
ATOM     31  O   UNL     1      -2.257   9.559   2.299  0.00  0.00    -0.273 OA
ATOM     32  N   UNL     1      -2.091  11.513   1.262  0.00  0.00    -0.311 N 
ATOM     33  H   UNL     1      -2.088  12.004   0.425  0.00  0.00    +0.149 HD
BRANCH  32  34
ATOM     34  C   UNL     1      -2.011  12.234   2.534  0.00  0.00    +0.073 C 
ATOM     35  C   UNL     1      -3.422  12.461   3.082  0.00  0.00    +0.022 C 
ATOM     36  C   UNL     1      -3.338  13.214   4.411  0.00  0.00    +0.002 C 
ATOM     37  C   UNL     1      -2.654  14.565   4.189  0.00  0.00    +0.000 C 
ATOM     38  C   UNL     1      -1.244  14.338   3.642  0.00  0.00    +0.002 C 
ATOM     39  C   UNL     1      -1.327  13.585   2.313  0.00  0.00    +0.022 C 
ENDBRANCH  32  34
ENDBRANCH  22  30
ENDBRANCH   1  22
TORSDOF 6
