REMARK  Name = ZINC24988095
REMARK  7 active torsions:
REMARK  status: ('A' for Active; 'I' for Inactive)
REMARK    1  A    between atoms: C_1  and  C_2
REMARK    2  A    between atoms: C_10  and  C_12
REMARK    3  A    between atoms: C_12  and  N_13
REMARK    4  A    between atoms: N_13  and  C_14
REMARK    5  A    between atoms: C_14  and  C_16
REMARK    6  A    between atoms: C_14  and  C_17
REMARK    7  A    between atoms: C_20  and  N_23
REMARK                            x       y       z     vdW  Elec       q    Type
REMARK                         _______ _______ _______ _____ _____    ______ ____
ROOT
ATOM      1  N   UNL     1       1.359   2.034   0.000  0.00  0.00    +0.387 N 
ATOM      2  H   UNL     1       1.361   3.041  -0.443  0.00  0.00    -0.084 HD
ATOM      3  H   UNL     1       1.978   1.363  -0.614  0.00  0.00    -0.084 HD
ENDROOT
BRANCH   1   4
ATOM      4  C   UNL     1      -0.019   1.526   0.010  0.00  0.00    -0.044 C 
ATOM      5  C   UNL     1       0.002  -0.004   0.002  0.00  0.00    -0.009 C 
BRANCH   4   6
ATOM      6  C   UNL     1      -0.748   2.025  -1.210  0.00  0.00    -0.062 A 
ATOM      7  C   UNL     1      -0.096   2.080  -2.429  0.00  0.00    +0.004 A 
ATOM      8  C   UNL     1      -0.763   2.531  -3.551  0.00  0.00    +0.026 A 
ATOM      9  C   UNL     1      -2.086   2.942  -3.452  0.00  0.00    +0.047 A 
ATOM     10  C   UNL     1      -2.735   2.891  -2.226  0.00  0.00    +0.026 A 
ATOM     11  C   UNL     1      -2.065   2.433  -1.109  0.00  0.00    +0.004 A 
BRANCH   9  12
ATOM     12  N   UNL     1      -2.764   3.407  -4.588  0.00  0.00    -0.306 N 
ATOM     13  C   UNL     1      -2.251   3.518  -5.855  0.00  0.00    +0.112 A 
ATOM     14  C   UNL     1      -3.237   4.001  -6.633  0.00  0.00    +0.130 A 
ATOM     15  N   UNL     1      -4.321   4.191  -5.867  0.00  0.00    -0.244 NA
ATOM     16  C   UNL     1      -4.050   3.840  -4.640  0.00  0.00    +0.204 A 
ENDBRANCH   9  12
ENDBRANCH   4   6
ENDBRANCH   1   4
BRANCH   1  17
ATOM     17  C   UNL     1       1.908   2.097   1.361  0.00  0.00    -0.016 C 
BRANCH  17  27
ATOM     18  C   UNL     1       9.254   4.800   1.375  0.00  0.00    +0.066 C 
ATOM     19  C   UNL     1       7.867   4.326   1.024  0.00  0.00    +0.046 A 
ATOM     20  C   UNL     1       7.444   4.305  -0.288  0.00  0.00    +0.095 A 
ATOM     21  C   UNL     1       6.157   3.862  -0.593  0.00  0.00    +0.275 A 
ATOM     22  O   UNL     1       5.776   3.841  -1.753  0.00  0.00    -0.266 OA
ATOM     23  N   UNL     1       5.323   3.452   0.408  0.00  0.00    -0.171 N 
ATOM     24  C   UNL     1       5.823   3.506   1.680  0.00  0.00    +0.199 A 
ATOM     25  N   UNL     1       7.030   3.919   1.975  0.00  0.00    -0.227 NA
ATOM     26  S   UNL     1       4.461   2.904   2.654  0.00  0.00    -0.035 S 
ATOM     27  C   UNL     1       3.320   2.622   1.311  0.00  0.00    +0.086 A 
ATOM     28  N   UNL     1       4.021   2.980   0.278  0.00  0.00    -0.161 NA
ENDBRANCH  17  27
ENDBRANCH   1  17
TORSDOF 5
