REMARK  Name = ZINC07301759
REMARK  9 active torsions:
REMARK  status: ('A' for Active; 'I' for Inactive)
REMARK    1  A    between atoms: C_1  and  C_2
REMARK    2  A    between atoms: C_2  and  C_4
REMARK    3  A    between atoms: C_2  and  O_14
REMARK    4  A    between atoms: N_9  and  C_10
REMARK    5  A    between atoms: C_10  and  C_11
REMARK    6  A    between atoms: C_10  and  C_12
REMARK    7  A    between atoms: C_10  and  C_13
REMARK    8  A    between atoms: O_14  and  C_15
REMARK    9  A    between atoms: C_15  and  C_17
REMARK                            x       y       z     vdW  Elec       q    Type
REMARK                         _______ _______ _______ _____ _____    ______ ____
ROOT
ATOM      1  C   UNL     1       2.818   0.848   1.422  0.00  0.00    +0.062 C 
ATOM      2  C   UNL     1       2.372   1.127  -0.015  0.00  0.00    +0.259 C 
ENDROOT
BRANCH   2   3
ATOM      3  C   UNL     1       3.447   1.904  -0.731  0.00  0.00    +0.261 C 
ATOM      4  O   UNL     1       3.229   3.037  -1.104  0.00  0.00    -0.271 OA
ATOM      5  N   UNL     1       4.649   1.340  -0.958  0.00  0.00    -0.237 N 
ATOM      6  C   UNL     1       5.610   2.035  -1.598  0.00  0.00    +0.306 C 
ATOM      7  O   UNL     1       5.392   3.170  -1.972  0.00  0.00    -0.252 OA
ATOM      8  N   UNL     1       6.813   1.470  -1.825  0.00  0.00    -0.294 N 
ATOM      9  H   UNL     1       4.823   0.433  -0.659  0.00  0.00    +0.159 HD
ATOM     10  H   UNL     1       6.987   0.564  -1.527  0.00  0.00    +0.151 HD
BRANCH   8  11
ATOM     11  C   UNL     1       7.857   2.225  -2.522  0.00  0.00    +0.028 C 
ATOM     12  C   UNL     1       8.187   3.491  -1.728  0.00  0.00    +0.031 C 
ATOM     13  C   UNL     1       9.113   1.361  -2.648  0.00  0.00    +0.031 C 
ATOM     14  C   UNL     1       7.362   2.613  -3.916  0.00  0.00    +0.031 C 
ENDBRANCH   8  11
ENDBRANCH   2   3
BRANCH   2  15
ATOM     15  O   UNL     1       1.144   1.902   0.001  0.00  0.00    -0.448 OA
BRANCH  15  16
ATOM     16  C   UNL     1      -0.014   1.212   0.009  0.00  0.00    +0.356 C 
ATOM     17  O   UNL     1       0.002  -0.004   0.002  0.00  0.00    -0.243 OA
BRANCH  16  18
ATOM     18  C   UNL     1      -1.296   1.929   0.019  0.00  0.00    +0.125 A 
ATOM     19  C   UNL     1      -2.525   1.347   0.021  0.00  0.00    +0.042 A 
ATOM     20  C   UNL     1      -3.491   2.381   0.032  0.00  0.00    +0.000 A 
ATOM     21  C   UNL     1      -4.893   2.389   0.039  0.00  0.00    +0.010 A 
ATOM     22  C   UNL     1      -5.565   3.576   0.048  0.00  0.00    +0.001 A 
ATOM     23  C   UNL     1      -4.873   4.781   0.052  0.00  0.00    +0.002 A 
ATOM     24  C   UNL     1      -3.497   4.800   0.045  0.00  0.00    +0.026 A 
ATOM     25  C   UNL     1      -2.788   3.601   0.035  0.00  0.00    +0.047 A 
ATOM     26  N   UNL     1      -1.446   3.302   0.033  0.00  0.00    -0.349 N 
ATOM     27  H   UNL     1      -0.723   3.949   0.038  0.00  0.00    +0.166 HD
ENDBRANCH  16  18
ENDBRANCH  15  16
ENDBRANCH   2  15
TORSDOF 5
