REMARK  Name = ZINC08631172
REMARK  8 active torsions:
REMARK  status: ('A' for Active; 'I' for Inactive)
REMARK    1  A    between atoms: C_1  and  N_2
REMARK    2  A    between atoms: N_2  and  C_3
REMARK    3  A    between atoms: N_2  and  S_23
REMARK    4  A    between atoms: C_3  and  C_4
REMARK    5  A    between atoms: C_4  and  O_6
REMARK    6  A    between atoms: O_6  and  C_7
REMARK    7  A    between atoms: C_7  and  C_8
REMARK    8  A    between atoms: S_23  and  C_26
REMARK                            x       y       z     vdW  Elec       q    Type
REMARK                         _______ _______ _______ _____ _____    ______ ____
ROOT
ATOM      1  O   UNL     1       4.984   2.146  -2.158  0.00  0.00    -0.459 OA
ENDROOT
BRANCH   1   2
ATOM      2  C   UNL     1       5.231   1.063  -2.912  0.00  0.00    +0.323 C 
ATOM      3  O   UNL     1       4.379   0.219  -3.053  0.00  0.00    -0.249 OA
BRANCH   2   4
ATOM      4  C   UNL     1       6.571   0.901  -3.582  0.00  0.00    +0.229 C 
BRANCH   4   6
ATOM      5  C   UNL     1       6.060  -0.391  -5.705  0.00  0.00    +0.132 C 
ATOM      6  N   UNL     1       6.590  -0.352  -4.340  0.00  0.00    -0.169 NA
BRANCH   6   7
ATOM      7  S   UNL     1       7.210  -1.726  -3.653  0.00  0.00    +0.061 S 
ATOM      8  O   UNL     1       7.609  -2.571  -4.724  0.00  0.00    -0.153 OA
ATOM      9  O   UNL     1       8.111  -1.302  -2.640  0.00  0.00    -0.153 OA
BRANCH   7  10
ATOM     10  C   UNL     1       5.881  -2.545  -2.835  0.00  0.00    +0.106 A 
ATOM     11  C   UNL     1       5.605  -2.260  -1.511  0.00  0.00    +0.030 A 
ATOM     12  C   UNL     1       4.559  -2.898  -0.870  0.00  0.00    +0.022 A 
ATOM     13  C   UNL     1       3.796  -3.829  -1.551  0.00  0.00    +0.041 A 
ATOM     14  C   UNL     1       4.076  -4.118  -2.875  0.00  0.00    +0.022 A 
ATOM     15  C   UNL     1       5.119  -3.475  -3.516  0.00  0.00    +0.030 A 
ATOM     16 CL   UNL     1       2.487  -4.636  -0.746  0.00  0.00    -0.084 Cl
ENDBRANCH   7  10
ENDBRANCH   6   7
ENDBRANCH   4   6
ENDBRANCH   2   4
ENDBRANCH   1   2
BRANCH   1  17
ATOM     17  C   UNL     1       3.672   2.236  -1.543  0.00  0.00    +0.268 C 
BRANCH  17  18
ATOM     18  C   UNL     1       3.579   3.510  -0.742  0.00  0.00    +0.008 A 
ATOM     19  C   UNL     1       4.707   4.271  -0.621  0.00  0.00    +0.099 A 
ATOM     20  C   UNL     1       4.628   5.546  -0.030  0.00  0.00    +0.338 A 
ATOM     21  O   UNL     1       5.644   6.174   0.198  0.00  0.00    -0.245 OA
ATOM     22  O   UNL     1       3.431   6.077   0.266  0.00  0.00    -0.422 OA
ATOM     23  C   UNL     1       2.304   5.339   0.177  0.00  0.00    +0.140 A 
ATOM     24  C   UNL     1       2.373   3.979  -0.178  0.00  0.00    +0.032 A 
ATOM     25  C   UNL     1       1.167   3.171  -0.021  0.00  0.00    -0.007 A 
ATOM     26  C   UNL     1       1.151   1.777  -0.024  0.00  0.00    +0.009 A 
ATOM     27  C   UNL     1      -0.034   1.097  -0.028  0.00  0.00    +0.001 A 
ATOM     28  C   UNL     1      -1.247   1.775  -0.050  0.00  0.00    +0.001 A 
ATOM     29  C   UNL     1      -1.276   3.136   0.013  0.00  0.00    +0.008 A 
ATOM     30  C   UNL     1      -0.073   3.851   0.121  0.00  0.00    -0.017 A 
ATOM     31  C   UNL     1      -0.082   5.227   0.419  0.00  0.00    +0.012 A 
ATOM     32  C   UNL     1       1.075   5.929   0.483  0.00  0.00    +0.047 A 
ENDBRANCH  17  18
ENDBRANCH   1  17
TORSDOF 7
