REMARK  Name = ZINC08215709
REMARK  7 active torsions:
REMARK  status: ('A' for Active; 'I' for Inactive)
REMARK    1  A    between atoms: C_1  and  C_2
REMARK    2  A    between atoms: C_5  and  N_11
REMARK    3  A    between atoms: C_7  and  N_8
REMARK    4  A    between atoms: C_15  and  N_48
REMARK    5  A    between atoms: C_19  and  C_20
REMARK    6  A    between atoms: C_19  and  N_48
REMARK    7  A    between atoms: C_20  and  C_21
REMARK                            x       y       z     vdW  Elec       q    Type
REMARK                         _______ _______ _______ _____ _____    ______ ____
ROOT
ATOM      1  N   UNL     1       1.474   2.589   1.171  0.00  0.00    -0.212 N 
ATOM      2  C   UNL     1       0.451   2.736   2.022  0.00  0.00    +0.225 C 
ATOM      3  O   UNL     1       0.499   3.321   3.082  0.00  0.00    -0.275 OA
ATOM      4  C   UNL     1      -0.773   2.055   1.450  0.00  0.00    +0.090 C 
ATOM      5  C   UNL     1      -0.276   1.484   0.107  0.00  0.00    +0.026 C 
ATOM      6  C   UNL     1       1.178   1.902   0.061  0.00  0.00    +0.213 C 
ATOM      7  O   UNL     1       1.952   1.653  -0.839  0.00  0.00    -0.277 OA
ENDROOT
BRANCH   1  12
ATOM      8  C   UNL     1       6.641   4.707   2.186  0.00  0.00    +0.046 C 
ATOM      9  C   UNL     1       5.269   4.145   1.916  0.00  0.00    -0.020 A 
ATOM     10  C   UNL     1       4.205   4.999   1.690  0.00  0.00    +0.007 A 
ATOM     11  C   UNL     1       2.947   4.487   1.443  0.00  0.00    +0.024 A 
ATOM     12  C   UNL     1       2.751   3.112   1.421  0.00  0.00    +0.046 A 
ATOM     13  C   UNL     1       3.819   2.258   1.653  0.00  0.00    +0.057 A 
ATOM     14  C   UNL     1       5.077   2.776   1.895  0.00  0.00    +0.131 A 
BRANCH  14  15
ATOM     15  N   UNL     1       6.218   1.865   2.137  0.00  0.00    +0.057 N 
ATOM     16  O   UNL     1       6.075   0.662   2.008  0.00  0.00    -0.126 OA
ATOM     17  O   UNL     1       7.300   2.318   2.466  0.00  0.00    -0.126 OA
ENDBRANCH  14  15
ENDBRANCH   1  12
BRANCH   5  18
ATOM     18  N   UNL     1      -1.024   2.082  -1.015  0.00  0.00    +0.387 N 
ATOM     19  H   UNL     1      -0.611   2.992  -1.251  0.00  0.00    -0.085 HD
ATOM     20  H   UNL     1      -2.004   2.211  -0.738  0.00  0.00    -0.085 HD
BRANCH  18  21
ATOM     21  C   UNL     1      -0.965   1.201  -2.197  0.00  0.00    -0.077 C 
BRANCH  21  22
ATOM     22  C   UNL     1      -1.748   1.845  -3.342  0.00  0.00    +0.018 C 
BRANCH  22  23
ATOM     23  C   UNL     1      -1.693   0.951  -4.554  0.00  0.00    -0.024 A 
ATOM     24  C   UNL     1      -0.823   1.039  -5.573  0.00  0.00    +0.087 A 
ATOM     25  N   UNL     1      -1.078   0.058  -6.491  0.00  0.00    -0.360 N 
ATOM     26  H   UNL     1      -0.581  -0.080  -7.312  0.00  0.00    +0.165 HD
ATOM     27  C   UNL     1      -2.146  -0.706  -6.075  0.00  0.00    +0.047 A 
ATOM     28  C   UNL     1      -2.574  -0.183  -4.841  0.00  0.00    +0.003 A 
ATOM     29  C   UNL     1      -3.651  -0.768  -4.173  0.00  0.00    +0.010 A 
ATOM     30  C   UNL     1      -4.283  -1.849  -4.720  0.00  0.00    +0.001 A 
ATOM     31  C   UNL     1      -3.862  -2.371  -5.936  0.00  0.00    +0.002 A 
ATOM     32  C   UNL     1      -2.806  -1.804  -6.616  0.00  0.00    +0.026 A 
ENDBRANCH  22  23
ENDBRANCH  21  22
ENDBRANCH  18  21
ENDBRANCH   5  18
TORSDOF 6
