REMARK  Name = ZINC48664163
REMARK  8 active torsions:
REMARK  status: ('A' for Active; 'I' for Inactive)
REMARK    1  A    between atoms: C_1  and  C_2
REMARK    2  A    between atoms: C_2  and  C_4
REMARK    3  A    between atoms: C_2  and  O_22
REMARK    4  A    between atoms: C_4  and  N_5
REMARK    5  A    between atoms: C_6  and  C_8
REMARK    6  A    between atoms: N_10  and  C_11
REMARK    7  A    between atoms: C_18  and  C_20
REMARK    8  A    between atoms: C_18  and  C_21
REMARK                            x       y       z     vdW  Elec       q    Type
REMARK                         _______ _______ _______ _____ _____    ______ ____
ROOT
ATOM      1  C   UNL     1       1.738  -4.041  -4.591  0.00  0.00    +0.303 C 
ATOM      2  O   UNL     1       1.715  -4.598  -5.670  0.00  0.00    -0.265 OA
ATOM      3  N   UNL     1       1.677  -4.767  -3.457  0.00  0.00    -0.278 N 
ATOM      4  H   UNL     1       1.762  -4.329  -2.596  0.00  0.00    +0.155 HD
ENDROOT
BRANCH   3   5
ATOM      5  C   UNL     1       1.492  -6.152  -3.522  0.00  0.00    +0.038 A 
ATOM      6  C   UNL     1       0.734  -6.798  -2.554  0.00  0.00    +0.027 A 
ATOM      7  C   UNL     1       0.550  -8.165  -2.616  0.00  0.00    +0.051 A 
ATOM      8  C   UNL     1       1.121  -8.897  -3.645  0.00  0.00    +0.167 A 
ATOM      9  C   UNL     1       1.881  -8.252  -4.619  0.00  0.00    +0.169 A 
ATOM     10  C   UNL     1       2.060  -6.881  -4.559  0.00  0.00    +0.073 A 
ATOM     11  O   UNL     1       2.328  -9.184  -5.511  0.00  0.00    -0.448 OA
ATOM     12  C   UNL     1       2.176 -10.454  -4.850  0.00  0.00    +0.248 C 
ATOM     13  O   UNL     1       1.092 -10.233  -3.929  0.00  0.00    -0.448 OA
ATOM     14  C   UNL     1       3.455 -10.824  -4.096  0.00  0.00    +0.104 C 
ATOM     15  C   UNL     1       1.811 -11.545  -5.859  0.00  0.00    +0.104 C 
ENDBRANCH   3   5
BRANCH   1  17
ATOM     16  N   UNL     1       1.893  -1.827  -5.655  0.00  0.00    -0.305 N 
ATOM     17  C   UNL     1       1.832  -2.553  -4.521  0.00  0.00    +0.299 C 
ATOM     18  O   UNL     1       1.855  -1.996  -3.442  0.00  0.00    -0.265 OA
ATOM     19  H   UNL     1       1.875  -2.272  -6.517  0.00  0.00    +0.149 HD
BRANCH  16  20
ATOM     20  C   UNL     1       1.985  -0.366  -5.586  0.00  0.00    +0.135 C 
BRANCH  20  22
ATOM     21  C   UNL     1       2.261   1.721  -6.931  0.00  0.00    +0.039 C 
ATOM     22  C   UNL     1       2.039   0.209  -7.003  0.00  0.00    +0.128 C 
BRANCH  22  23
ATOM     23  O   UNL     1       0.807  -0.061  -7.673  0.00  0.00    -0.391 OA
ATOM     24  H   UNL     1       0.770   0.276  -8.579  0.00  0.00    +0.210 HD
ENDBRANCH  22  23
ENDBRANCH  20  22
ENDBRANCH  16  20
ENDBRANCH   1  17
TORSDOF 5
