REMARK  Name = ZINC08841974
REMARK  10 active torsions:
REMARK  status: ('A' for Active; 'I' for Inactive)
REMARK    1  A    between atoms: C_1  and  O_2
REMARK    2  A    between atoms: O_2  and  C_3
REMARK    3  A    between atoms: C_6  and  S_9
REMARK    4  A    between atoms: S_9  and  N_12
REMARK    5  A    between atoms: C_16  and  C_18
REMARK    6  A    between atoms: C_18  and  N_20
REMARK    7  A    between atoms: N_22  and  C_32
REMARK    8  A    between atoms: C_26  and  S_30
REMARK    9  A    between atoms: S_30  and  C_31
REMARK   10  A    between atoms: C_32  and  C_33
REMARK                            x       y       z     vdW  Elec       q    Type
REMARK                         _______ _______ _______ _____ _____    ______ ____
ROOT
ATOM      1  C   UNL     1       2.042  -1.856   1.764  0.00  0.00    +0.257 C 
ATOM      2  O   UNL     1       1.657  -2.394   0.744  0.00  0.00    -0.272 OA
ENDROOT
BRANCH   1   3
ATOM      3  N   UNL     1       3.179  -2.244   2.331  0.00  0.00    -0.155 NA
ATOM      4  C   UNL     1       3.897  -3.222   1.782  0.00  0.00    +0.167 A 
ATOM      5  N   UNL     1       5.076  -3.744   2.210  0.00  0.00    -0.310 N 
ATOM      6  C   UNL     1       5.678  -4.771   1.503  0.00  0.00    +0.059 A 
ATOM      7  C   UNL     1       6.882  -5.434   1.789  0.00  0.00    +0.028 A 
ATOM      8  C   UNL     1       7.346  -6.437   0.973  0.00  0.00    +0.017 A 
ATOM      9  C   UNL     1       6.638  -6.826  -0.161  0.00  0.00    +0.009 A 
ATOM     10  C   UNL     1       5.443  -6.185  -0.465  0.00  0.00    +0.032 A 
ATOM     11  C   UNL     1       4.985  -5.182   0.355  0.00  0.00    +0.040 A 
ATOM     12  S   UNL     1       3.555  -4.129   0.344  0.00  0.00    -0.052 S 
BRANCH   9  13
ATOM     13  S   UNL     1       7.249  -8.115  -1.196  0.00  0.00    -0.129 S 
ATOM     14  C   UNL     1       8.798  -8.621  -0.399  0.00  0.00    +0.090 C 
ENDBRANCH   9  13
BRANCH   5  15
ATOM     15  C   UNL     1       5.708  -3.223   3.424  0.00  0.00    +0.212 C 
BRANCH  15  16
ATOM     16  C   UNL     1       5.230  -3.982   4.591  0.00  0.00    -0.084 C 
ATOM     17  C   UNL     1       4.849  -4.588   5.522  0.00  0.00    +0.005 C 
ENDBRANCH  15  16
ENDBRANCH   5  15
ENDBRANCH   1   3
BRANCH   1  22
ATOM     18  N   UNL     1       0.024  -0.502   1.581  0.00  0.00    -0.165 NA
ATOM     19  C   UNL     1      -1.163  -0.777   2.412  0.00  0.00    +0.110 C 
ATOM     20  C   UNL     1      -0.677  -0.591   3.871  0.00  0.00    +0.019 C 
ATOM     21  C   UNL     1       0.762  -1.166   3.796  0.00  0.00    +0.031 C 
ATOM     22  C   UNL     1       1.230  -0.749   2.385  0.00  0.00    +0.167 C 
BRANCH  18  23
ATOM     23  S   UNL     1       0.002  -0.004   0.002  0.00  0.00    +0.062 S 
ATOM     24  O   UNL     1      -1.243  -0.424  -0.539  0.00  0.00    -0.153 OA
ATOM     25  O   UNL     1       1.248  -0.390  -0.563  0.00  0.00    -0.153 OA
BRANCH  23  29
ATOM     26  C   UNL     1      -0.059   4.524   0.027  0.00  0.00    +0.120 A 
ATOM     27  C   UNL     1       1.151   3.845   0.012  0.00  0.00    +0.047 A 
ATOM     28  C   UNL     1       1.167   2.464   0.004  0.00  0.00    +0.032 A 
ATOM     29  C   UNL     1      -0.022   1.758   0.012  0.00  0.00    +0.106 A 
ATOM     30  C   UNL     1      -1.229   2.432   0.021  0.00  0.00    +0.032 A 
ATOM     31  C   UNL     1      -1.250   3.813   0.035  0.00  0.00    +0.047 A 
BRANCH  26  33
ATOM     32  C   UNL     1      -1.360   6.514   0.050  0.00  0.00    +0.277 C 
ATOM     33  O   UNL     1      -0.078   5.883   0.035  0.00  0.00    -0.495 OA
ENDBRANCH  26  33
ENDBRANCH  23  29
ENDBRANCH  18  23
ENDBRANCH   1  22
TORSDOF 8
