REMARK  Name = ZINC20324619
REMARK  5 active torsions:
REMARK  status: ('A' for Active; 'I' for Inactive)
REMARK    1  A    between atoms: C_3  and  C_6
REMARK    2  A    between atoms: C_12  and  C_13
REMARK    3  A    between atoms: C_16  and  S_18
REMARK    4  A    between atoms: S_18  and  C_19
REMARK    5  A    between atoms: C_19  and  C_20
REMARK                            x       y       z     vdW  Elec       q    Type
REMARK                         _______ _______ _______ _____ _____    ______ ____
ROOT
ATOM      1  C   UNL     1       3.895   0.414  -1.358  0.00  0.00    +0.165 C 
ATOM      2  N   UNL     1       4.709  -0.599  -1.158  0.00  0.00    -0.161 NA
ATOM      3  N   UNL     1       6.035  -0.391  -0.843  0.00  0.00    -0.151 N 
ATOM      4  C   UNL     1       7.014  -1.396  -0.699  0.00  0.00    +0.153 C 
ATOM      5  N   UNL     1       6.911  -2.584  -1.242  0.00  0.00    -0.283 NA
ATOM      6  C   UNL     1       8.174  -0.976   0.128  0.00  0.00    +0.084 C 
ATOM      7  C   UNL     1       8.861  -1.876   0.938  0.00  0.00    +0.063 C 
ATOM      8  C   UNL     1       8.561   0.448   0.046  0.00  0.00    +0.273 C 
ATOM      9  O   UNL     1       9.704   0.803   0.289  0.00  0.00    -0.268 OA
ATOM     10  N   UNL     1       7.616   1.345  -0.305  0.00  0.00    -0.152 NA
ATOM     11  C   UNL     1       6.439   0.917  -0.683  0.00  0.00    +0.181 C 
ATOM     12  S   UNL     1       4.970   1.819  -1.102  0.00  0.00    -0.030 S 
ATOM     13  H   UNL     1       6.132  -2.808  -1.775  0.00  0.00    +0.188 HD
ENDROOT
BRANCH   1  16
ATOM     14  C   UNL     1       0.392   1.008  -2.223  0.00  0.00    +0.042 A 
ATOM     15  C   UNL     1       1.677   1.488  -1.909  0.00  0.00    +0.052 A 
ATOM     16  C   UNL     1       2.466   0.396  -1.709  0.00  0.00    +0.161 A 
ATOM     17  O   UNL     1       1.709  -0.705  -1.890  0.00  0.00    -0.461 OA
ATOM     18  C   UNL     1       0.456  -0.339  -2.200  0.00  0.00    +0.196 A 
ENDBRANCH   1  16
BRANCH   7  19
ATOM     19  C   UNL     1       8.360  -3.167   1.130  0.00  0.00    +0.130 A 
ATOM     20  C   UNL     1       9.005  -4.203   1.797  0.00  0.00    +0.050 A 
ATOM     21  C   UNL     1       8.152  -5.301   1.752  0.00  0.00    +0.057 A 
ATOM     22  C   UNL     1       7.021  -4.910   1.065  0.00  0.00    +0.162 A 
ATOM     23  O   UNL     1       7.160  -3.624   0.704  0.00  0.00    -0.449 OA
BRANCH  22  24
ATOM     24  S   UNL     1       5.623  -5.927   0.725  0.00  0.00    -0.083 S 
BRANCH  24  25
ATOM     25  C   UNL     1       4.500  -4.837  -0.194  0.00  0.00    +0.112 C 
BRANCH  25  26
ATOM     26  C   UNL     1       3.247  -5.593  -0.551  0.00  0.00    -0.037 A 
ATOM     27  C   UNL     1       3.178  -6.293  -1.742  0.00  0.00    +0.006 A 
ATOM     28  C   UNL     1       2.029  -6.987  -2.070  0.00  0.00    +0.020 A 
ATOM     29  C   UNL     1       0.947  -6.981  -1.208  0.00  0.00    +0.041 A 
ATOM     30  C   UNL     1       1.017  -6.280  -0.017  0.00  0.00    +0.020 A 
ATOM     31  C   UNL     1       2.168  -5.592   0.313  0.00  0.00    +0.006 A 
ATOM     32 CL   UNL     1      -0.497  -7.852  -1.620  0.00  0.00    -0.084 Cl
ENDBRANCH  25  26
ENDBRANCH  24  25
ENDBRANCH  22  24
ENDBRANCH   7  19
TORSDOF 5
