REMARK  Name = ZINC38935887
REMARK  7 active torsions:
REMARK  status: ('A' for Active; 'I' for Inactive)
REMARK    1  A    between atoms: C_1  and  O_2
REMARK    2  A    between atoms: O_2  and  C_3
REMARK    3  A    between atoms: C_7  and  C_10
REMARK    4  A    between atoms: C_8  and  O_9
REMARK    5  A    between atoms: N_11  and  N_12
REMARK    6  A    between atoms: C_13  and  C_15
REMARK    7  A    between atoms: C_18  and  C_20
REMARK                            x       y       z     vdW  Elec       q    Type
REMARK                         _______ _______ _______ _____ _____    ______ ____
ROOT
ATOM      1  N   UNL     1      -1.540  -6.245   0.007  0.00  0.00    -0.202 N 
ATOM      2  C   UNL     1      -0.406  -6.973  -0.002  0.00  0.00    +0.280 C 
ATOM      3  O   UNL     1       0.676  -6.415  -0.010  0.00  0.00    -0.267 OA
ATOM      4  H   UNL     1      -2.402  -6.690   0.013  0.00  0.00    +0.178 HD
ENDROOT
BRANCH   2   5
ATOM      5  C   UNL     1      -0.473  -8.390  -0.003  0.00  0.00    +0.132 C 
ATOM      6  N   UNL     1      -1.550  -9.137  -0.001  0.00  0.00    -0.148 NA
ATOM      7  N   UNL     1      -1.320 -10.391  -0.002  0.00  0.00    -0.152 NA
ATOM      8  C   UNL     1      -0.037 -10.705  -0.005  0.00  0.00    +0.083 C 
ATOM      9  C   UNL     1       0.689  -9.370  -0.012  0.00  0.00    +0.121 C 
BRANCH   8  10
ATOM     10  C   UNL     1       0.531 -11.991  -0.006  0.00  0.00    +0.037 A 
ATOM     11  C   UNL     1      -0.104 -13.234  -0.010  0.00  0.00    +0.018 A 
ATOM     12  C   UNL     1       0.727 -14.323  -0.011  0.00  0.00    +0.023 A 
ATOM     13  C   UNL     1       2.074 -14.129  -0.006  0.00  0.00    +0.055 A 
ATOM     14  S   UNL     1       2.252 -12.459  -0.009  0.00  0.00    -0.080 S 
ATOM     15 BR   UNL     1       3.436 -15.441  -0.005  0.00  0.00    -0.043 Br
ENDBRANCH   8  10
ENDBRANCH   2   5
BRANCH   1  17
ATOM     16  C   UNL     1      -2.567  -4.144   0.016  0.00  0.00    +0.142 C 
ATOM     17  N   UNL     1      -1.474  -4.846   0.007  0.00  0.00    -0.187 NA
BRANCH  16  22
ATOM     18  C   UNL     1      -1.201  -0.638   0.010  0.00  0.00    +0.162 A 
ATOM     19  C   UNL     1      -2.374   0.101   0.019  0.00  0.00    +0.049 A 
ATOM     20  C   UNL     1      -3.602  -0.537   0.027  0.00  0.00    +0.004 A 
ATOM     21  C   UNL     1      -3.671  -1.914   0.026  0.00  0.00    +0.013 A 
ATOM     22  C   UNL     1      -2.498  -2.672   0.017  0.00  0.00    +0.040 A 
ATOM     23  C   UNL     1      -1.255  -2.026   0.003  0.00  0.00    +0.167 A 
BRANCH  18  25
ATOM     24  C   UNL     1      -0.017   1.425   0.010  0.00  0.00    +0.277 C 
ATOM     25  O   UNL     1       0.002  -0.004   0.002  0.00  0.00    -0.491 OA
ENDBRANCH  18  25
BRANCH  23  26
ATOM     26  O   UNL     1      -0.107  -2.754  -0.012  0.00  0.00    -0.503 OA
ATOM     27  H   UNL     1       0.233  -2.969   0.867  0.00  0.00    +0.292 HD
ENDBRANCH  23  26
ENDBRANCH  16  22
ENDBRANCH   1  17
TORSDOF 6
