REMARK  Name = ZINC63270629
REMARK  10 active torsions:
REMARK  status: ('A' for Active; 'I' for Inactive)
REMARK    1  A    between atoms: C_1  and  O_2
REMARK    2  A    between atoms: O_2  and  C_3
REMARK    3  A    between atoms: C_7  and  C_15
REMARK    4  A    between atoms: C_12  and  O_13
REMARK    5  A    between atoms: O_13  and  C_14
REMARK    6  A    between atoms: N_17  and  C_18
REMARK    7  A    between atoms: C_18  and  C_19
REMARK    8  A    between atoms: N_21  and  C_22
REMARK    9  A    between atoms: C_22  and  C_23
REMARK   10  A    between atoms: C_23  and  C_24
REMARK                            x       y       z     vdW  Elec       q    Type
REMARK                         _______ _______ _______ _____ _____    ______ ____
ROOT
ATOM      1  C   UNL     1       4.387  -1.200  -5.207  0.00  0.00    +0.240 C 
ATOM      2  O   UNL     1       5.070  -1.897  -4.486  0.00  0.00    -0.273 OA
ATOM      3  N   UNL     1       4.969  -0.414  -6.134  0.00  0.00    -0.305 N 
ATOM      4  H   UNL     1       4.423   0.142  -6.710  0.00  0.00    +0.149 HD
ENDROOT
BRANCH   1   9
ATOM      5  C   UNL     1       0.606  -0.607  -1.056  0.00  0.00    +0.162 A 
ATOM      6  C   UNL     1       1.156   0.152  -2.033  0.00  0.00    +0.059 A 
ATOM      7  C   UNL     1       1.807  -0.506  -3.172  0.00  0.00    +0.000 A 
ATOM      8  C   UNL     1       2.427  -0.015  -4.269  0.00  0.00    +0.016 C 
ATOM      9  C   UNL     1       2.887  -1.215  -5.066  0.00  0.00    +0.190 C 
ATOM     10  N   UNL     1       2.460  -2.392  -4.303  0.00  0.00    -0.370 N 
ATOM     11  C   UNL     1       1.841  -1.986  -3.217  0.00  0.00    +0.047 A 
ATOM     12  C   UNL     1       1.243  -2.712  -2.157  0.00  0.00    +0.075 A 
ATOM     13  C   UNL     1       0.657  -2.062  -1.120  0.00  0.00    +0.163 A 
ATOM     14  H   UNL     1       2.610  -3.316  -4.557  0.00  0.00    +0.161 HD
BRANCH   5  16
ATOM     15  C   UNL     1      -0.017   1.425   0.010  0.00  0.00    +0.277 C 
ATOM     16  O   UNL     1       0.002  -0.004   0.002  0.00  0.00    -0.491 OA
ENDBRANCH   5  16
BRANCH  13  17
ATOM     17  O   UNL     1       0.099  -2.787  -0.119  0.00  0.00    -0.491 OA
ATOM     18  C   UNL     1       0.175  -4.210  -0.227  0.00  0.00    +0.277 C 
ENDBRANCH  13  17
ENDBRANCH   1   9
BRANCH   3  19
ATOM     19  C   UNL     1       6.428  -0.401  -6.271  0.00  0.00    +0.200 C 
BRANCH  19  20
ATOM     20  C   UNL     1       6.820   0.553  -7.370  0.00  0.00    +0.230 C 
ATOM     21  O   UNL     1       5.966   1.162  -7.978  0.00  0.00    -0.274 OA
ATOM     22  N   UNL     1       8.121   0.730  -7.676  0.00  0.00    -0.314 N 
ATOM     23  H   UNL     1       8.804   0.243  -7.189  0.00  0.00    +0.149 HD
BRANCH  22  24
ATOM     24  C   UNL     1       8.502   1.657  -8.744  0.00  0.00    +0.108 C 
BRANCH  24  25
ATOM     25  C   UNL     1      10.025   1.672  -8.887  0.00  0.00    +0.052 C 
BRANCH  25  26
ATOM     26  C   UNL     1      10.418   2.626  -9.986  0.00  0.00    -0.040 C 
ATOM     27  C   UNL     1      10.785   3.920  -9.846  0.00  0.00    -0.001 A 
ATOM     28  C   UNL     1      10.924   4.793  -8.675  0.00  0.00    +0.010 A 
ATOM     29  C   UNL     1      11.319   6.074  -8.855  0.00  0.00    +0.001 A 
ATOM     30  C   UNL     1      11.599   6.587 -10.129  0.00  0.00    +0.002 A 
ATOM     31  C   UNL     1      11.495   5.846 -11.252  0.00  0.00    +0.026 A 
ATOM     32  C   UNL     1      11.088   4.485 -11.181  0.00  0.00    +0.043 A 
ATOM     33  N   UNL     1      10.913   3.576 -12.109  0.00  0.00    -0.380 N 
ATOM     34  C   UNL     1      10.486   2.328 -11.467  0.00  0.00    +0.144 C 
ATOM     35  H   UNL     1      11.048   3.706 -13.061  0.00  0.00    +0.160 HD
ENDBRANCH  25  26
ENDBRANCH  24  25
ENDBRANCH  22  24
ENDBRANCH  19  20
ENDBRANCH   3  19
TORSDOF 8
