REMARK  Name = ZINC38564819
REMARK  6 active torsions:
REMARK  status: ('A' for Active; 'I' for Inactive)
REMARK    1  A    between atoms: C_1  and  C_2
REMARK    2  A    between atoms: C_2  and  N_3
REMARK    3  A    between atoms: C_4  and  O_30
REMARK    4  A    between atoms: C_6  and  C_15
REMARK    5  A    between atoms: N_10  and  C_13
REMARK    6  A    between atoms: C_13  and  C_14
REMARK                            x       y       z     vdW  Elec       q    Type
REMARK                         _______ _______ _______ _____ _____    ______ ____
ROOT
ATOM      1  C   UNL     1       0.847   1.201  -3.734  0.00  0.00    +0.117 C 
ATOM      2  C   UNL     1       1.578   1.593  -4.996  0.00  0.00    +0.038 A 
ATOM      3  H   UNL     1       0.791   0.354  -6.475  0.00  0.00    +0.166 HD
ATOM      4  C   UNL     1       2.523   2.559  -5.030  0.00  0.00    -0.016 A 
ATOM      5  C   UNL     1       2.994   2.649  -6.394  0.00  0.00    +0.003 A 
ATOM      6  C   UNL     1       3.950   3.455  -7.019  0.00  0.00    +0.010 A 
ATOM      7  C   UNL     1       4.142   3.263  -8.365  0.00  0.00    +0.001 A 
ATOM      8  C   UNL     1       3.428   2.317  -9.082  0.00  0.00    +0.002 A 
ATOM      9  C   UNL     1       2.475   1.506  -8.490  0.00  0.00    +0.026 A 
ATOM     10  C   UNL     1       2.259   1.679  -7.125  0.00  0.00    +0.047 A 
ATOM     11  N   UNL     1       1.414   1.062  -6.247  0.00  0.00    -0.356 N 
ATOM     12  C   UNL     1       2.946   3.352  -3.819  0.00  0.00    +0.052 C 
ATOM     13  C   UNL     1       1.884   3.155  -2.729  0.00  0.00    +0.086 C 
ATOM     14  N   UNL     1       1.593   1.722  -2.577  0.00  0.00    -0.307 NA
ATOM     15  H   UNL     1       1.098   1.540  -1.716  0.00  0.00    +0.123 HD
ENDROOT
BRANCH   1  18
ATOM     16  N   UNL     1       0.688  -0.476  -1.203  0.00  0.00    -0.259 N 
ATOM     17  C   UNL     1      -0.083  -0.715  -2.425  0.00  0.00    +0.220 C 
ATOM     18  C   UNL     1       0.757  -0.324  -3.644  0.00  0.00    +0.145 C 
ATOM     19  C   UNL     1       2.141  -0.903  -3.498  0.00  0.00    +0.232 C 
ATOM     20  O   UNL     1       2.749  -1.275  -4.479  0.00  0.00    -0.275 OA
ATOM     21  N   UNL     1       2.702  -1.008  -2.280  0.00  0.00    -0.226 N 
ATOM     22  C   UNL     1       2.015  -0.679  -1.173  0.00  0.00    +0.313 C 
ATOM     23  O   UNL     1       2.608  -0.568  -0.119  0.00  0.00    -0.252 OA
BRANCH  16  25
ATOM     24  C   UNL     1      -0.019   1.526   0.010  0.00  0.00    +0.024 C 
ATOM     25  C   UNL     1       0.002  -0.004   0.002  0.00  0.00    +0.108 C 
ENDBRANCH  16  25
BRANCH  21  26
ATOM     26  C   UNL     1       4.083  -1.481  -2.159  0.00  0.00    +0.114 C 
ATOM     27  C   UNL     1       5.038  -0.287  -2.219  0.00  0.00    +0.025 C 
ENDBRANCH  21  26
BRANCH  17  28
ATOM     28  O   UNL     1      -0.426  -2.100  -2.509  0.00  0.00    -0.373 OA
ATOM     29  H   UNL     1      -0.960  -2.418  -1.768  0.00  0.00    +0.212 HD
ENDBRANCH  17  28
ENDBRANCH   1  18
TORSDOF 4
