REMARK  Name = ZINC64788352
REMARK  3 active torsions:
REMARK  status: ('A' for Active; 'I' for Inactive)
REMARK    1  A    between atoms: C_2  and  C_3
REMARK    2  A    between atoms: C_3  and  N_4
REMARK    3  A    between atoms: C_17  and  C_20
REMARK                            x       y       z     vdW  Elec       q    Type
REMARK                         _______ _______ _______ _____ _____    ______ ____
ROOT
ATOM      1  N   UNL     1       1.367  -1.676   1.111  0.00  0.00    -0.218 N 
ATOM      2  C   UNL     1       1.862  -1.257   2.295  0.00  0.00    +0.261 C 
ATOM      3  O   UNL     1       2.264  -0.117   2.436  0.00  0.00    -0.269 OA
ATOM      4  C   UNL     1       1.902  -2.217   3.412  0.00  0.00    +0.117 C 
ATOM      5  C   UNL     1       1.393  -3.575   3.148  0.00  0.00    +0.258 C 
ATOM      6  N   UNL     1       0.927  -3.853   1.913  0.00  0.00    -0.235 N 
ATOM      7  H   UNL     1       0.588  -4.741   1.723  0.00  0.00    +0.159 HD
ATOM      8  C   UNL     1       0.916  -2.926   0.944  0.00  0.00    +0.316 C 
ATOM      9  O   UNL     1       0.478  -3.239  -0.146  0.00  0.00    -0.252 OA
ATOM     10  O   UNL     1       1.394  -4.423   4.021  0.00  0.00    -0.270 OA
ATOM     11  C   UNL     1       2.395  -1.861   4.653  0.00  0.00    +0.038 C 
ATOM     12  N   UNL     1       2.876  -0.651   4.996  0.00  0.00    -0.283 N 
ATOM     13  N   UNL     1       3.262  -0.583   6.302  0.00  0.00    -0.235 NA
ATOM     14  C   UNL     1       3.445  -1.968   6.794  0.00  0.00    +0.115 C 
ATOM     15  C   UNL     1       2.485  -2.761   5.872  0.00  0.00    +0.078 C 
ATOM     16  H   UNL     1       4.112  -0.049   6.401  0.00  0.00    +0.145 HD
ATOM     17  H   UNL     1       2.941   0.095   4.379  0.00  0.00    +0.166 HD
ENDROOT
BRANCH  14  18
ATOM     18  C   UNL     1       3.024  -2.088   8.236  0.00  0.00    +0.009 A 
ATOM     19  C   UNL     1       3.595  -2.803   9.235  0.00  0.00    +0.013 A 
ATOM     20  C   UNL     1       3.030  -2.763  10.496  0.00  0.00    +0.008 A 
ATOM     21  C   UNL     1       1.921  -2.010  10.695  0.00  0.00    +0.045 A 
ATOM     22  S   UNL     1       1.646  -1.320   9.072  0.00  0.00    -0.100 S 
ENDBRANCH  14  18
BRANCH   1  23
ATOM     23  C   UNL     1       1.317  -0.740  -0.015  0.00  0.00    +0.145 C 
BRANCH  23  25
ATOM     24  C   UNL     1      -0.016   1.306   0.009  0.00  0.00    +0.005 C 
ATOM     25  C   UNL     1       0.002  -0.004   0.002  0.00  0.00    -0.015 C 
ENDBRANCH  23  25
ENDBRANCH   1  23
TORSDOF 3
