REMARK  Name = ZINC44968034
REMARK  5 active torsions:
REMARK  status: ('A' for Active; 'I' for Inactive)
REMARK    1  A    between atoms: C_1  and  C_2
REMARK    2  A    between atoms: C_2  and  C_4
REMARK    3  A    between atoms: C_2  and  N_9
REMARK    4  A    between atoms: N_9  and  C_10
REMARK    5  A    between atoms: N_13  and  C_14
REMARK                            x       y       z     vdW  Elec       q    Type
REMARK                         _______ _______ _______ _____ _____    ______ ____
ROOT
ATOM      1  N   UNL     1      -1.393  -0.459   0.044  0.00  0.00    -0.281 N 
ATOM      2  C   UNL     1      -2.288  -0.168  -1.079  0.00  0.00    +0.134 C 
ATOM      3  C   UNL     1      -1.814  -1.245   1.055  0.00  0.00    +0.303 C 
ATOM      4  O   UNL     1      -1.071  -1.486   1.987  0.00  0.00    -0.253 OA
ATOM      5  N   UNL     1      -3.057  -1.764   1.033  0.00  0.00    -0.288 N 
ATOM      6  H   UNL     1      -3.650  -1.571   0.289  0.00  0.00    +0.151 HD
ENDROOT
BRANCH   5   7
ATOM      7  C   UNL     1      -3.514  -2.618   2.131  0.00  0.00    +0.160 C 
ATOM      8  C   UNL     1      -4.765  -3.388   1.698  0.00  0.00    +0.032 C 
ATOM      9  C   UNL     1      -5.623  -2.543   0.775  0.00  0.00    +0.004 C 
ATOM     10  C   UNL     1      -6.242  -1.333   1.451  0.00  0.00    +0.019 C 
ATOM     11  C   UNL     1      -5.166  -0.323   1.852  0.00  0.00    +0.104 C 
ATOM     12  N   UNL     1      -4.647  -0.689   3.180  0.00  0.00    -0.314 N 
ATOM     13  C   UNL     1      -3.864  -1.762   3.330  0.00  0.00    +0.233 C 
ATOM     14  O   UNL     1      -3.437  -2.055   4.427  0.00  0.00    -0.274 OA
ATOM     15  H   UNL     1      -4.873  -0.147   3.952  0.00  0.00    +0.149 HD
ENDBRANCH   5   7
BRANCH   1  17
ATOM     16  C   UNL     1      -0.125   1.633   0.049  0.00  0.00    +0.034 C 
ATOM     17  C   UNL     1      -0.041   0.105   0.069  0.00  0.00    +0.111 C 
BRANCH  17  18
ATOM     18  C   UNL     1       0.724  -0.372  -1.139  0.00  0.00    +0.010 A 
ATOM     19  C   UNL     1       2.018  -0.764  -1.229  0.00  0.00    +0.013 A 
ATOM     20  C   UNL     1       2.512  -1.167  -2.456  0.00  0.00    +0.008 A 
ATOM     21  C   UNL     1       1.688  -1.158  -3.532  0.00  0.00    +0.045 A 
ATOM     22  S   UNL     1       0.159  -0.573  -2.820  0.00  0.00    -0.100 S 
ENDBRANCH  17  18
ENDBRANCH   1  17
TORSDOF 3
