REMARK  Name = ZINC64945593
REMARK  8 active torsions:
REMARK  status: ('A' for Active; 'I' for Inactive)
REMARK    1  A    between atoms: C_1  and  C_2
REMARK    2  A    between atoms: C_3  and  S_9
REMARK    3  A    between atoms: C_4  and  C_8
REMARK    4  A    between atoms: N_5  and  C_7
REMARK    5  A    between atoms: S_9  and  N_12
REMARK    6  A    between atoms: N_12  and  C_13
REMARK    7  A    between atoms: C_13  and  C_14
REMARK    8  A    between atoms: C_23  and  C_26
REMARK                            x       y       z     vdW  Elec       q    Type
REMARK                         _______ _______ _______ _____ _____    ______ ____
ROOT
ATOM      1  C   UNL     1       2.444  -1.260  -3.367  0.00  0.00    +0.142 C 
ENDROOT
BRANCH   1   2
ATOM      2  C   UNL     1       3.680  -0.907  -4.153  0.00  0.00    -0.016 A 
ATOM      3  C   UNL     1       3.696  -1.046  -5.535  0.00  0.00    +0.009 A 
ATOM      4  C   UNL     1       4.850  -0.711  -6.218  0.00  0.00    +0.042 A 
ATOM      5  C   UNL     1       5.950  -0.247  -5.503  0.00  0.00    +0.099 A 
ATOM      6  N   UNL     1       5.895  -0.128  -4.185  0.00  0.00    -0.349 N 
ATOM      7  C   UNL     1       4.805  -0.435  -3.508  0.00  0.00    +0.089 A 
ATOM      8  N   UNL     1       7.117   0.093  -6.177  0.00  0.00    -0.317 N 
ATOM      9  C   UNL     1       7.247  -0.153  -7.620  0.00  0.00    +0.107 C 
ATOM     10  C   UNL     1       8.522  -0.965  -7.868  0.00  0.00    +0.022 C 
ATOM     11  C   UNL     1       9.715  -0.237  -7.245  0.00  0.00    -0.011 C 
ATOM     12  C   UNL     1       9.507  -0.114  -5.734  0.00  0.00    +0.022 C 
ATOM     13  C   UNL     1       8.241   0.712  -5.462  0.00  0.00    +0.107 C 
ATOM     14  C   UNL     1      10.996  -1.027  -7.521  0.00  0.00    +0.007 C 
ATOM     15  H   UNL     1       6.674   0.197  -3.707  0.00  0.00    +0.167 HD
ENDBRANCH   1   2
BRANCH   1  16
ATOM     16  N   UNL     1       1.583  -0.081  -3.254  0.00  0.00    -0.185 NA
ATOM     17  H   UNL     1       1.936   0.799  -3.459  0.00  0.00    +0.148 HD
BRANCH  16  18
ATOM     18  S   UNL     1       0.006  -0.249  -2.776  0.00  0.00    +0.062 S 
ATOM     19  O   UNL     1      -0.549  -1.290  -3.567  0.00  0.00    -0.153 OA
ATOM     20  O   UNL     1      -0.549   1.058  -2.738  0.00  0.00    -0.153 OA
BRANCH  18  23
ATOM     21  C   UNL     1       0.030   1.464   0.074  0.00  0.00    +0.069 C 
ATOM     22  C   UNL     1       0.034  -0.043   0.038  0.00  0.00    +0.086 A 
ATOM     23  C   UNL     1       0.025  -0.836  -1.114  0.00  0.00    +0.148 A 
ATOM     24  C   UNL     1       0.034  -2.132  -0.728  0.00  0.00    +0.062 A 
ATOM     25  N   UNL     1       0.047  -2.159   0.622  0.00  0.00    -0.269 N 
ATOM     26  N   UNL     1       0.053  -0.835   1.079  0.00  0.00    -0.174 NA
ATOM     27  C   UNL     1       0.059  -3.361   1.460  0.00  0.00    +0.172 C 
ATOM     28  C   UNL     1       0.028  -3.332  -1.640  0.00  0.00    +0.067 C 
ENDBRANCH  18  23
ENDBRANCH  16  18
ENDBRANCH   1  16
TORSDOF 4
