REMARK  Name = ZINC02150933
REMARK  3 active torsions:
REMARK  status: ('A' for Active; 'I' for Inactive)
REMARK    1  A    between atoms: C_8  and  C_10
REMARK    2  A    between atoms: N_12  and  N_13
REMARK    3  A    between atoms: C_14  and  C_15
REMARK                            x       y       z     vdW  Elec       q    Type
REMARK                         _______ _______ _______ _____ _____    ______ ____
ROOT
ATOM      1  C   UNL     1       3.140   6.435   0.008  0.00  0.00    +0.271 C 
ATOM      2  O   UNL     1       4.321   6.143  -0.004  0.00  0.00    -0.268 OA
ATOM      3  N   UNL     1       2.766   7.730   0.019  0.00  0.00    -0.202 N 
ATOM      4  H   UNL     1       1.824   7.963   0.029  0.00  0.00    +0.178 HD
ENDROOT
BRANCH   1  12
ATOM      5  C   UNL     1      -0.013   1.076   0.008  0.00  0.00    +0.001 A 
ATOM      6  C   UNL     1      -1.235   1.737   0.017  0.00  0.00    +0.001 A 
ATOM      7  C   UNL     1      -1.261   3.117   0.030  0.00  0.00    +0.016 A 
ATOM      8  C   UNL     1      -0.075   3.819   0.023  0.00  0.00    +0.021 A 
ATOM      9  C   UNL     1       1.184   3.173   0.008  0.00  0.00    +0.008 A 
ATOM     10  C   UNL     1       1.164   1.754   0.000  0.00  0.00    +0.010 A 
ATOM     11  C   UNL     1       2.301   4.028   0.002  0.00  0.00    +0.068 A 
ATOM     12  C   UNL     1       2.122   5.378   0.011  0.00  0.00    +0.095 A 
ATOM     13  S   UNL     1       0.346   5.544   0.029  0.00  0.00    -0.082 S 
ATOM     14 CL   UNL     1       3.905   3.364  -0.017  0.00  0.00    -0.082 Cl
ENDBRANCH   1  12
BRANCH   3  15
ATOM     15  N   UNL     1       3.737   8.740   0.016  0.00  0.00    -0.187 NA
ATOM     16  C   UNL     1       3.377   9.987   0.027  0.00  0.00    +0.141 C 
BRANCH  16  17
ATOM     17  C   UNL     1       4.399  11.049   0.024  0.00  0.00    +0.031 A 
ATOM     18  C   UNL     1       5.757  10.718   0.015  0.00  0.00    +0.051 A 
ATOM     19  C   UNL     1       6.708  11.719   0.008  0.00  0.00    +0.021 A 
ATOM     20  C   UNL     1       6.320  13.047   0.019  0.00  0.00    +0.003 A 
ATOM     21  C   UNL     1       4.978  13.383   0.032  0.00  0.00    +0.021 A 
ATOM     22  C   UNL     1       4.015  12.393   0.035  0.00  0.00    +0.051 A 
ATOM     23 CL   UNL     1       2.332  12.818   0.052  0.00  0.00    -0.083 Cl
ATOM     24 CL   UNL     1       6.246   9.052   0.008  0.00  0.00    -0.083 Cl
ENDBRANCH  16  17
ENDBRANCH   3  15
TORSDOF 3
