REMARK  Name = ZINC04030475
REMARK  6 active torsions:
REMARK  status: ('A' for Active; 'I' for Inactive)
REMARK    1  A    between atoms: C_1  and  C_2
REMARK    2  A    between atoms: N_7  and  C_10
REMARK    3  A    between atoms: C_13  and  N_19
REMARK    4  A    between atoms: C_14  and  N_16
REMARK    5  A    between atoms: C_22  and  C_25
REMARK    6  A    between atoms: C_22  and  N_61
REMARK                            x       y       z     vdW  Elec       q    Type
REMARK                         _______ _______ _______ _____ _____    ______ ____
ROOT
ATOM      1  N   UNL     1       4.678  -0.121   4.575  0.00  0.00    -0.328 N 
ATOM      2  C   UNL     1       5.360  -0.501   3.331  0.00  0.00    +0.104 C 
ATOM      3  C   UNL     1       4.575   0.036   2.132  0.00  0.00    +0.016 C 
ATOM      4  C   UNL     1       3.157  -0.541   2.156  0.00  0.00    +0.015 C 
ATOM      5  C   UNL     1       2.485  -0.173   3.482  0.00  0.00    +0.016 C 
ATOM      6  C   UNL     1       3.332  -0.704   4.642  0.00  0.00    +0.104 C 
ENDROOT
BRANCH   4  12
ATOM      7  C   UNL     1       1.025  -0.547   1.010  0.00  0.00    -0.077 C 
ATOM      8  C   UNL     1       0.296  -0.057  -0.244  0.00  0.00    -0.019 C 
ATOM      9  C   UNL     1       0.233   1.473  -0.226  0.00  0.00    -0.004 C 
ATOM     10  C   UNL     1       1.655   2.034  -0.144  0.00  0.00    -0.019 C 
ATOM     11  C   UNL     1       2.345   1.483   1.106  0.00  0.00    -0.077 C 
ATOM     12  N   UNL     1       2.395   0.008   1.016  0.00  0.00    +0.389 N 
ATOM     13  H   UNL     1       2.866  -0.256   0.142  0.00  0.00    -0.080 HD
ENDBRANCH   4  12
BRANCH   1  17
ATOM     14  C   UNL     1       6.939  -1.197   7.906  0.00  0.00    +0.046 A 
ATOM     15  C   UNL     1       6.432  -2.178   7.065  0.00  0.00    +0.026 A 
ATOM     16  C   UNL     1       5.683  -1.823   5.961  0.00  0.00    +0.027 A 
ATOM     17  C   UNL     1       5.436  -0.482   5.693  0.00  0.00    +0.060 A 
ATOM     18  C   UNL     1       5.948   0.500   6.531  0.00  0.00    +0.149 A 
ATOM     19  C   UNL     1       6.693   0.142   7.637  0.00  0.00    +0.058 A 
BRANCH  14  25
ATOM     20  C   UNL     1       8.515  -3.957  11.303  0.00  0.00    +0.017 C 
ATOM     21  C   UNL     1       8.273  -2.461  11.095  0.00  0.00    +0.082 C 
ATOM     22  C   UNL     1       9.514  -1.792  10.469  0.00  0.00    +0.109 C 
ATOM     23  C   UNL     1       9.000  -1.258   9.149  0.00  0.00    +0.227 C 
ATOM     24  O   UNL     1       9.661  -0.654   8.331  0.00  0.00    -0.275 OA
ATOM     25  N   UNL     1       7.702  -1.559   9.027  0.00  0.00    -0.210 N 
ATOM     26  C   UNL     1       7.188  -2.230  10.066  0.00  0.00    +0.229 C 
ATOM     27  O   UNL     1       6.037  -2.596  10.166  0.00  0.00    -0.275 OA
ENDBRANCH  14  25
BRANCH  18  28
ATOM     28  N   UNL     1       5.690   1.928   6.242  0.00  0.00    +0.058 N 
ATOM     29  O   UNL     1       6.222   2.792   6.917  0.00  0.00    -0.126 OA
ATOM     30  O   UNL     1       4.947   2.240   5.329  0.00  0.00    -0.126 OA
ENDBRANCH  18  28
ENDBRANCH   1  17
BRANCH   4  31
ATOM     31  C   UNL     1       3.222  -2.041   2.024  0.00  0.00    +0.200 C 
ATOM     32  O   UNL     1       3.156  -2.741   3.013  0.00  0.00    -0.278 OA
ATOM     33  N   UNL     1       3.354  -2.606   0.807  0.00  0.00    -0.330 N 
ATOM     34  H   UNL     1       3.469  -2.046   0.023  0.00  0.00    +0.145 HD
ATOM     35  H   UNL     1       3.334  -3.571   0.716  0.00  0.00    +0.145 HD
ENDBRANCH   4  31
TORSDOF 5
