REMARK  Name = ZINC09211347
REMARK  6 active torsions:
REMARK  status: ('A' for Active; 'I' for Inactive)
REMARK    1  A    between atoms: C_5  and  C_7
REMARK    2  A    between atoms: C_7  and  N_8
REMARK    3  A    between atoms: C_11  and  C_14
REMARK    4  A    between atoms: C_14  and  N_15
REMARK    5  A    between atoms: C_16  and  C_18
REMARK    6  A    between atoms: C_18  and  N_19
REMARK                            x       y       z     vdW  Elec       q    Type
REMARK                         _______ _______ _______ _____ _____    ______ ____
ROOT
ATOM      1  N   UNL     1       1.305  -6.167   5.152  0.00  0.00    -0.314 N 
ATOM      2  C   UNL     1       1.625  -6.783   6.308  0.00  0.00    +0.235 C 
ATOM      3  O   UNL     1       1.862  -6.127   7.300  0.00  0.00    -0.274 OA
ATOM      4  H   UNL     1       1.115  -6.692   4.359  0.00  0.00    +0.149 HD
ENDROOT
BRANCH   1   5
ATOM      5  C   UNL     1       1.245  -4.704   5.095  0.00  0.00    +0.107 C 
BRANCH   5   9
ATOM      6  N   UNL     1       1.488  -2.680   1.337  0.00  0.00    +0.382 N 
ATOM      7  C   UNL     1       0.374  -2.304   2.215  0.00  0.00    -0.078 C 
ATOM      8  C   UNL     1       0.677  -2.745   3.648  0.00  0.00    -0.014 C 
ATOM      9  C   UNL     1       0.863  -4.265   3.680  0.00  0.00    +0.003 C 
ATOM     10  C   UNL     1       1.978  -4.654   2.705  0.00  0.00    -0.014 C 
ATOM     11  C   UNL     1       1.627  -4.141   1.306  0.00  0.00    -0.078 C 
ATOM     12  H   UNL     1       2.342  -2.270   1.685  0.00  0.00    -0.081 HD
BRANCH   6  13
ATOM     13  C   UNL     1       1.228  -2.186  -0.022  0.00  0.00    -0.040 C 
BRANCH  13  18
ATOM     14  C   UNL     1      -0.017   1.378   0.010  0.00  0.00    +0.000 A 
ATOM     15  C   UNL     1       1.171   2.087   0.002  0.00  0.00    +0.003 A 
ATOM     16  C   UNL     1       2.377   1.414  -0.013  0.00  0.00    +0.038 A 
ATOM     17  C   UNL     1       2.397   0.029  -0.021  0.00  0.00    +0.125 A 
ATOM     18  C   UNL     1       1.208  -0.679  -0.013  0.00  0.00    -0.029 A 
ATOM     19  C   UNL     1       0.002  -0.004   0.002  0.00  0.00    +0.004 A 
ATOM     20  F   UNL     1       3.577  -0.630  -0.036  0.00  0.00    -0.205 F 
ENDBRANCH  13  18
ENDBRANCH   6  13
ENDBRANCH   5   9
ENDBRANCH   1   5
BRANCH   2  21
ATOM     21  C   UNL     1       1.687  -8.288   6.367  0.00  0.00    +0.243 C 
BRANCH  21  22
ATOM     22  N   UNL     1       2.053  -8.708   7.722  0.00  0.00    -0.219 N 
ATOM     23  C   UNL     1       1.084  -8.940   8.630  0.00  0.00    +0.292 A 
ATOM     24  O   UNL     1      -0.090  -8.801   8.328  0.00  0.00    -0.264 OA
ATOM     25  C   UNL     1       1.442  -9.346   9.938  0.00  0.00    +0.116 A 
ATOM     26  C   UNL     1       2.795  -9.493  10.242  0.00  0.00    +0.032 A 
ATOM     27  C   UNL     1       3.765  -9.237   9.250  0.00  0.00    +0.143 A 
ATOM     28  N   UNL     1       3.401  -8.870   8.054  0.00  0.00    -0.175 NA
ATOM     29  C   UNL     1       2.863  -9.916  11.648  0.00  0.00    +0.009 A 
ATOM     30  C   UNL     1       3.914 -10.218  12.514  0.00  0.00    +0.010 A 
ATOM     31  C   UNL     1       3.650 -10.592  13.802  0.00  0.00    +0.001 A 
ATOM     32  C   UNL     1       2.341 -10.673  14.256  0.00  0.00    +0.002 A 
ATOM     33  C   UNL     1       1.289 -10.380  13.418  0.00  0.00    +0.026 A 
ATOM     34  C   UNL     1       1.536  -9.997  12.101  0.00  0.00    +0.048 A 
ATOM     35  N   UNL     1       0.702  -9.650  11.059  0.00  0.00    -0.350 N 
ATOM     36  H   UNL     1      -0.266  -9.625  11.108  0.00  0.00    +0.166 HD
ENDBRANCH  21  22
ENDBRANCH   2  21
TORSDOF 6
