REMARK  Name = ZINC38971829
REMARK  9 active torsions:
REMARK  status: ('A' for Active; 'I' for Inactive)
REMARK    1  A    between atoms: C_1  and  C_2
REMARK    2  A    between atoms: C_2  and  O_3
REMARK    3  A    between atoms: O_3  and  C_4
REMARK    4  A    between atoms: C_6  and  C_11
REMARK    5  A    between atoms: C_9  and  O_10
REMARK    6  A    between atoms: N_12  and  N_13
REMARK    7  A    between atoms: C_14  and  C_20
REMARK    8  A    between atoms: C_24  and  O_26
REMARK    9  A    between atoms: O_26  and  C_27
REMARK                            x       y       z     vdW  Elec       q    Type
REMARK                         _______ _______ _______ _____ _____    ______ ____
ROOT
ATOM      1  N   UNL     1       1.574  -7.081  -0.140  0.00  0.00    -0.172 N 
ATOM      2  C   UNL     1       1.585  -8.550  -0.272  0.00  0.00    +0.264 C 
ATOM      3  N   UNL     1       3.015  -8.885  -0.355  0.00  0.00    -0.189 NA
ATOM      4  N   UNL     1       3.660  -7.835  -0.284  0.00  0.00    -0.219 N 
ATOM      5  C   UNL     1       2.878  -6.729  -0.162  0.00  0.00    +0.174 C 
ATOM      6  S   UNL     1       3.462  -5.124  -0.048  0.00  0.00    -0.015 S 
ATOM      7  H   UNL     1       4.629  -7.802  -0.317  0.00  0.00    +0.176 HD
ENDROOT
BRANCH   2   8
ATOM      8  C   UNL     1       0.957  -9.195   0.936  0.00  0.00    +0.001 A 
ATOM      9  C   UNL     1      -0.042  -8.536   1.630  0.00  0.00    +0.007 A 
ATOM     10  C   UNL     1      -0.620  -9.124   2.739  0.00  0.00    +0.004 A 
ATOM     11  C   UNL     1      -0.202 -10.373   3.157  0.00  0.00    +0.045 A 
ATOM     12  C   UNL     1       0.800 -11.036   2.463  0.00  0.00    +0.120 A 
ATOM     13  C   UNL     1       1.375 -10.446   1.347  0.00  0.00    +0.053 A 
BRANCH  12  14
ATOM     14  O   UNL     1       1.213 -12.264   2.872  0.00  0.00    -0.495 OA
ATOM     15  C   UNL     1       0.573 -12.813   4.026  0.00  0.00    +0.277 C 
ENDBRANCH  12  14
ENDBRANCH   2   8
BRANCH   1  17
ATOM     16  C   UNL     1       0.625  -4.969   0.191  0.00  0.00    +0.138 C 
ATOM     17  N   UNL     1       0.460  -6.239  -0.025  0.00  0.00    -0.183 NA
BRANCH  16  20
ATOM     18  C   UNL     1      -1.460  -1.858   0.456  0.00  0.00    +0.162 A 
ATOM     19  C   UNL     1      -0.363  -2.700   0.441  0.00  0.00    +0.059 A 
ATOM     20  C   UNL     1      -0.539  -4.067   0.209  0.00  0.00    -0.002 A 
ATOM     21  C   UNL     1      -1.823  -4.576  -0.007  0.00  0.00    +0.013 A 
ATOM     22  C   UNL     1      -2.912  -3.729   0.009  0.00  0.00    +0.050 A 
ATOM     23  C   UNL     1      -2.737  -2.373   0.245  0.00  0.00    +0.158 A 
BRANCH  23  24
ATOM     24  O   UNL     1      -3.814  -1.544   0.266  0.00  0.00    -0.503 OA
ATOM     25  H   UNL     1      -4.037  -1.169  -0.597  0.00  0.00    +0.292 HD
ENDBRANCH  23  24
BRANCH  18  26
ATOM     26  O   UNL     1      -1.292  -0.528   0.681  0.00  0.00    -0.489 OA
BRANCH  26  28
ATOM     27  C   UNL     1       0.034   1.444   1.125  0.00  0.00    +0.048 C 
ATOM     28  C   UNL     1       0.045  -0.068   0.889  0.00  0.00    +0.226 C 
ENDBRANCH  26  28
ENDBRANCH  18  26
ENDBRANCH  16  20
ENDBRANCH   1  17
TORSDOF 7
