REMARK  Name = ZINC36007413
REMARK  12 active torsions:
REMARK  status: ('A' for Active; 'I' for Inactive)
REMARK    1  A    between atoms: C_1  and  C_2
REMARK    2  A    between atoms: C_2  and  C_3
REMARK    3  A    between atoms: C_5  and  C_31
REMARK    4  A    between atoms: C_6  and  C_11
REMARK    5  A    between atoms: C_11  and  N_12
REMARK    6  A    between atoms: N_15  and  C_18
REMARK    7  A    between atoms: C_18  and  C_19
REMARK    8  A    between atoms: C_23  and  C_30
REMARK    9  A    between atoms: C_26  and  C_29
REMARK   10  A    between atoms: C_31  and  O_33
REMARK   11  A    between atoms: O_33  and  C_34
REMARK   12  A    between atoms: C_34  and  C_35
REMARK                            x       y       z     vdW  Elec       q    Type
REMARK                         _______ _______ _______ _____ _____    ______ ____
ROOT
ATOM      1  N   UNL     1       2.495  -4.895   0.384  0.00  0.00    -0.300 NA
ATOM      2  C   UNL     1       3.942  -4.638   0.430  0.00  0.00    +0.066 C 
ATOM      3  C   UNL     1       4.602  -5.235  -0.816  0.00  0.00    -0.063 C 
ATOM      4  N   UNL     1       4.344  -6.680  -0.862  0.00  0.00    +0.387 N 
ATOM      5  C   UNL     1       2.897  -6.919  -0.932  0.00  0.00    -0.063 C 
ATOM      6  C   UNL     1       2.223  -6.337   0.312  0.00  0.00    +0.066 C 
ATOM      7  H   UNL     1       4.717  -7.115  -0.031  0.00  0.00    -0.081 HD
ENDROOT
BRANCH   1   8
ATOM      8  C   UNL     1       1.816  -4.287   1.537  0.00  0.00    +0.135 C 
BRANCH   8  11
ATOM      9  C   UNL     1       0.820  -0.706   0.516  0.00  0.00    +0.113 C 
ATOM     10  C   UNL     1       0.806  -2.215   0.654  0.00  0.00    +0.075 C 
ATOM     11  C   UNL     1       1.793  -2.789   1.374  0.00  0.00    +0.038 C 
ATOM     12  N   UNL     1       2.771  -2.035   1.958  0.00  0.00    -0.271 N 
ATOM     13  C   UNL     1       2.832  -0.701   1.868  0.00  0.00    +0.304 C 
ATOM     14  O   UNL     1       3.742  -0.115   2.422  0.00  0.00    -0.253 OA
ATOM     15  N   UNL     1       1.918   0.014   1.184  0.00  0.00    -0.292 N 
ATOM     16  H   UNL     1       3.459  -2.492   2.466  0.00  0.00    +0.156 HD
ATOM     17  H   UNL     1       1.982   0.981   1.131  0.00  0.00    +0.151 HD
BRANCH   9  19
ATOM     18  C   UNL     1       0.673   1.136  -1.165  0.00  0.00    +0.006 C 
ATOM     19  C   UNL     1       0.873  -0.369  -0.975  0.00  0.00    +0.024 C 
ENDBRANCH   9  19
BRANCH  10  20
ATOM     20  C   UNL     1      -0.208  -2.995   0.050  0.00  0.00    +0.338 C 
ATOM     21  O   UNL     1      -0.134  -4.209   0.070  0.00  0.00    -0.245 OA
BRANCH  20  22
ATOM     22  O   UNL     1      -1.256  -2.392  -0.549  0.00  0.00    -0.462 OA
BRANCH  22  23
ATOM     23  C   UNL     1      -2.242  -3.241  -1.139  0.00  0.00    +0.229 C 
ATOM     24  C   UNL     1      -3.345  -2.384  -1.765  0.00  0.00    +0.048 C 
ENDBRANCH  22  23
ENDBRANCH  20  22
ENDBRANCH  10  20
ENDBRANCH   8  11
ENDBRANCH   1   8
BRANCH   4  25
ATOM     25  C   UNL     1       4.993  -7.255  -2.048  0.00  0.00    +0.019 C 
BRANCH  25  26
ATOM     26  C   UNL     1       4.834  -8.753  -2.031  0.00  0.00    +0.199 C 
ATOM     27  O   UNL     1       4.238  -9.290  -1.121  0.00  0.00    -0.278 OA
ATOM     28  N   UNL     1       5.353  -9.497  -3.028  0.00  0.00    -0.303 N 
ATOM     29  C   UNL     1       6.082  -8.863  -4.134  0.00  0.00    +0.111 C 
ATOM     30  C   UNL     1       7.457  -9.526  -4.263  0.00  0.00    +0.004 C 
ATOM     31  C   UNL     1       7.277 -11.038  -4.415  0.00  0.00    +0.009 C 
ATOM     32  C   UNL     1       6.585 -11.599  -3.170  0.00  0.00    +0.004 C 
ATOM     33  C   UNL     1       5.206 -10.959  -3.025  0.00  0.00    +0.111 C 
ATOM     34  C   UNL     1       6.436 -13.115  -3.308  0.00  0.00    +0.009 C 
ATOM     35  C   UNL     1       8.178  -8.971  -5.493  0.00  0.00    +0.009 C 
ENDBRANCH  25  26
ENDBRANCH   4  25
TORSDOF 8
