REMARK  Name = ZINC42306089
REMARK  4 active torsions:
REMARK  status: ('A' for Active; 'I' for Inactive)
REMARK    1  A    between atoms: C_1  and  O_2
REMARK    2  A    between atoms: O_2  and  C_3
REMARK    3  A    between atoms: C_8  and  S_9
REMARK    4  A    between atoms: S_9  and  N_12
REMARK                            x       y       z     vdW  Elec       q    Type
REMARK                         _______ _______ _______ _____ _____    ______ ____
ROOT
ATOM      1  S   UNL     1      -0.051  -2.970   0.153  0.00  0.00    +0.105 S 
ATOM      2  O   UNL     1      -1.359  -2.459   0.374  0.00  0.00    -0.146 OA
ATOM      3  O   UNL     1       0.188  -4.327  -0.192  0.00  0.00    -0.146 OA
ENDROOT
BRANCH   1   4
ATOM      4  N   UNL     1       0.812  -2.672   1.534  0.00  0.00    -0.103 NA
ATOM      5  C   UNL     1       0.491  -3.277   2.651  0.00  0.00    +0.192 A 
ATOM      6  N   UNL     1      -0.508  -4.185   2.892  0.00  0.00    -0.336 N 
ATOM      7  C   UNL     1      -0.672  -4.706   4.169  0.00  0.00    +0.028 A 
ATOM      8  C   UNL     1       0.168  -4.285   5.115  0.00  0.00    +0.012 A 
ATOM      9  S   UNL     1       1.240  -3.147   4.267  0.00  0.00    -0.053 S 
ATOM     10  C   UNL     1      -0.109  -4.911   6.453  0.00  0.00    +0.044 C 
ATOM     11  C   UNL     1      -1.537  -5.487   6.322  0.00  0.00    +0.011 C 
ATOM     12  C   UNL     1      -1.639  -5.713   4.801  0.00  0.00    +0.054 C 
ATOM     13  H   UNL     1      -1.098  -4.462   2.174  0.00  0.00    +0.168 HD
ENDBRANCH   1   4
BRANCH   1  19
ATOM     14  C   UNL     1       0.606  -0.607  -1.056  0.00  0.00    +0.147 A 
ATOM     15  C   UNL     1       1.173   0.161  -2.063  0.00  0.00    +0.049 A 
ATOM     16  C   UNL     1       1.786  -0.454  -3.137  0.00  0.00    +0.019 A 
ATOM     17  C   UNL     1       1.835  -1.835  -3.209  0.00  0.00    +0.020 A 
ATOM     18  C   UNL     1       1.270  -2.602  -2.207  0.00  0.00    +0.048 A 
ATOM     19  C   UNL     1       0.661  -1.991  -1.128  0.00  0.00    +0.155 A 
ATOM     20 BR   UNL     1       2.675  -2.674  -4.681  0.00  0.00    -0.050 Br
BRANCH  14  22
ATOM     21  C   UNL     1      -0.017   1.425   0.010  0.00  0.00    +0.277 C 
ATOM     22  O   UNL     1       0.002  -0.004   0.002  0.00  0.00    -0.493 OA
ENDBRANCH  14  22
ENDBRANCH   1  19
TORSDOF 3
