REMARK  Name = ZINC13720046
REMARK  17 active torsions:
REMARK  status: ('A' for Active; 'I' for Inactive)
REMARK    1  A    between atoms: C_1  and  C_2
REMARK    2  A    between atoms: C_2  and  C_3
REMARK    3  A    between atoms: C_3  and  C_4
REMARK    4  A    between atoms: C_4  and  O_5
REMARK    5  A    between atoms: O_5  and  C_6
REMARK    6  A    between atoms: C_6  and  C_7
REMARK    7  A    between atoms: C_7  and  C_8
REMARK    8  A    between atoms: C_8  and  N_66
REMARK    9  A    between atoms: C_9  and  C_10
REMARK   10  A    between atoms: C_9  and  N_66
REMARK   11  A    between atoms: C_13  and  O_16
REMARK   12  A    between atoms: O_16  and  C_17
REMARK   13  A    between atoms: C_17  and  C_18
REMARK   14  A    between atoms: C_18  and  C_20
REMARK   15  A    between atoms: C_18  and  O_32
REMARK   16  A    between atoms: N_26  and  C_31
REMARK   17  A    between atoms: N_29  and  C_30
REMARK                            x       y       z     vdW  Elec       q    Type
REMARK                         _______ _______ _______ _____ _____    ______ ____
ROOT
ATOM      1  C   UNL     1      -2.186   0.947  -1.076  0.00  0.00    -0.064 A 
ATOM      2  C   UNL     1      -2.462  -0.235  -1.739  0.00  0.00    +0.005 A 
ATOM      3  C   UNL     1      -3.734  -0.772  -1.696  0.00  0.00    +0.046 A 
ATOM      4  C   UNL     1      -4.738  -0.118  -0.996  0.00  0.00    +0.121 A 
ATOM      5  C   UNL     1      -4.460   1.071  -0.337  0.00  0.00    +0.046 A 
ATOM      6  C   UNL     1      -3.185   1.601  -0.379  0.00  0.00    +0.005 A 
ENDROOT
BRANCH   1   7
ATOM      7  C   UNL     1      -0.795   1.527  -1.120  0.00  0.00    -0.047 C 
BRANCH   7   8
ATOM      8  N   UNL     1      -0.015   0.998   0.015  0.00  0.00    +0.382 N 
ATOM      9  H   UNL     1      -0.475   1.261   0.894  0.00  0.00    -0.085 HD
ATOM     10  H   UNL     1       0.032  -0.025  -0.054  0.00  0.00    -0.085 HD
BRANCH   8  11
ATOM     11  C   UNL     1       1.353   1.550  -0.003  0.00  0.00    -0.080 C 
BRANCH  11  12
ATOM     12  C   UNL     1       2.136   0.985   1.184  0.00  0.00    +0.009 C 
BRANCH  12  13
ATOM     13  C   UNL     1       3.557   1.552   1.173  0.00  0.00    +0.158 C 
BRANCH  13  14
ATOM     14  O   UNL     1       4.289   1.024   2.281  0.00  0.00    -0.380 OA
BRANCH  14  15
ATOM     15  C   UNL     1       5.636   1.494   2.364  0.00  0.00    +0.160 C 
BRANCH  15  16
ATOM     16  C   UNL     1       6.321   0.867   3.580  0.00  0.00    +0.028 C 
BRANCH  16  18
ATOM     17  C   UNL     1       8.447   0.743   4.886  0.00  0.00    +0.004 C 
ATOM     18  C   UNL     1       7.763   1.369   3.670  0.00  0.00    -0.001 C 
ENDBRANCH  16  18
ENDBRANCH  15  16
ENDBRANCH  14  15
ENDBRANCH  13  14
ENDBRANCH  12  13
ENDBRANCH  11  12
ENDBRANCH   8  11
ENDBRANCH   7   8
ENDBRANCH   1   7
BRANCH   4  19
ATOM     19  O   UNL     1      -5.991  -0.641  -0.957  0.00  0.00    -0.489 OA
BRANCH  19  20
ATOM     20  C   UNL     1      -6.205  -1.868  -1.658  0.00  0.00    +0.265 C 
BRANCH  20  21
ATOM     21  C   UNL     1      -7.665  -2.298  -1.501  0.00  0.00    +0.182 C 
BRANCH  21  22
ATOM     22  C   UNL     1      -7.861  -3.651  -2.135  0.00  0.00    -0.014 A 
ATOM     23  C   UNL     1      -8.020  -3.752  -3.507  0.00  0.00    +0.008 A 
ATOM     24  C   UNL     1      -8.195  -4.988  -4.098  0.00  0.00    +0.028 A 
ATOM     25  C   UNL     1      -8.223  -6.130  -3.313  0.00  0.00    +0.070 A 
ATOM     26  C   UNL     1      -8.069  -6.028  -1.930  0.00  0.00    +0.070 A 
ATOM     27  C   UNL     1      -7.888  -4.783  -1.345  0.00  0.00    +0.034 A 
ATOM     28  N   UNL     1      -8.140  -7.322  -1.419  0.00  0.00    -0.295 N 
ATOM     29  C   UNL     1      -8.330  -8.172  -2.446  0.00  0.00    +0.330 A 
ATOM     30  O   UNL     1      -8.436  -9.380  -2.344  0.00  0.00    -0.246 OA
ATOM     31  N   UNL     1      -8.384  -7.484  -3.601  0.00  0.00    -0.295 N 
ATOM     32  C   UNL     1      -8.579  -8.060  -4.934  0.00  0.00    +0.154 C 
ATOM     33  C   UNL     1      -8.028  -7.694  -0.007  0.00  0.00    +0.154 C 
ENDBRANCH  21  22
BRANCH  21  34
ATOM     34  O   UNL     1      -8.514  -1.344  -2.141  0.00  0.00    -0.384 OA
ATOM     35  H   UNL     1      -8.348  -1.241  -3.088  0.00  0.00    +0.210 HD
ENDBRANCH  21  34
ENDBRANCH  20  21
ENDBRANCH  19  20
ENDBRANCH   4  19
TORSDOF 14
