REMARK  Name = ZINC01125790
REMARK  5 active torsions:
REMARK  status: ('A' for Active; 'I' for Inactive)
REMARK    1  A    between atoms: C_1  and  C_2
REMARK    2  A    between atoms: C_12  and  C_14
REMARK    3  A    between atoms: C_14  and  S_15
REMARK    4  A    between atoms: S_15  and  C_16
REMARK    5  A    between atoms: N_20  and  C_21
REMARK                            x       y       z     vdW  Elec       q    Type
REMARK                         _______ _______ _______ _____ _____    ______ ____
ROOT
ATOM      1  C   UNL     1      -0.018   1.503   0.010  0.00  0.00    +0.046 C 
ATOM      2  C   UNL     1       0.002  -0.004   0.002  0.00  0.00    -0.024 A 
ATOM      3  C   UNL     1       0.005  -0.675  -1.193  0.00  0.00    +0.005 A 
ATOM      4  C   UNL     1       0.024  -2.061  -1.246  0.00  0.00    +0.001 A 
ATOM      5  C   UNL     1       0.040  -2.784  -0.067  0.00  0.00    +0.017 A 
ATOM      6  C   UNL     1       0.036  -2.121   1.134  0.00  0.00    +0.041 A 
ATOM      7  C   UNL     1       0.023  -0.710   1.227  0.00  0.00    +0.083 A 
ATOM      8  N   UNL     1       0.027  -0.206   2.480  0.00  0.00    -0.224 NA
ATOM      9  C   UNL     1       0.047  -0.969   3.547  0.00  0.00    +0.165 A 
ATOM     10  S   UNL     1       0.051  -2.611   2.842  0.00  0.00    -0.052 S 
ATOM     11  N   UNL     1       0.054  -0.597   4.882  0.00  0.00    -0.264 N 
ATOM     12  C   UNL     1       0.075  -1.540   5.845  0.00  0.00    +0.229 C 
ATOM     13  O   UNL     1       0.088  -2.714   5.543  0.00  0.00    -0.275 OA
ATOM     14  H   UNL     1       0.044   0.343   5.123  0.00  0.00    +0.157 HD
ENDROOT
BRANCH  12  15
ATOM     15  C   UNL     1       0.083  -1.135   7.296  0.00  0.00    +0.173 C 
BRANCH  15  16
ATOM     16  S   UNL     1       0.112  -2.619   8.338  0.00  0.00    -0.075 S 
BRANCH  16  17
ATOM     17  C   UNL     1       0.118  -1.986   9.982  0.00  0.00    +0.210 A 
ATOM     18  N   UNL     1       0.099  -0.718  10.332  0.00  0.00    -0.102 NA
ATOM     19  N   UNL     1       0.111  -0.604  11.611  0.00  0.00    -0.022 NA
ATOM     20  N   UNL     1       0.139  -1.768  12.164  0.00  0.00    -0.043 NA
ATOM     21  N   UNL     1       0.138  -2.713  11.124  0.00  0.00    -0.223 N 
ATOM     22  C   UNL     1       0.158  -4.173  11.249  0.00  0.00    +0.177 C 
ENDBRANCH  16  17
ENDBRANCH  15  16
ENDBRANCH  12  15
TORSDOF 3
