REMARK  Name = ZINC35926601
REMARK  8 active torsions:
REMARK  status: ('A' for Active; 'I' for Inactive)
REMARK    1  A    between atoms: C_4  and  C_7
REMARK    2  A    between atoms: C_7  and  C_8
REMARK    3  A    between atoms: C_8  and  N_9
REMARK    4  A    between atoms: N_12  and  C_15
REMARK    5  A    between atoms: C_15  and  C_16
REMARK    6  A    between atoms: C_31  and  C_33
REMARK    7  A    between atoms: C_33  and  O_34
REMARK    8  A    between atoms: O_34  and  C_35
REMARK                            x       y       z     vdW  Elec       q    Type
REMARK                         _______ _______ _______ _____ _____    ______ ____
ROOT
ATOM      1  C   UNL     1       9.972  -2.787   3.559  0.00  0.00    +0.064 A 
ATOM      2  C   UNL     1      10.112  -4.032   4.099  0.00  0.00    +0.094 A 
ATOM      3  C   UNL     1      10.552  -4.150   5.429  0.00  0.00    +0.253 A 
ATOM      4  O   UNL     1      10.688  -5.248   5.944  0.00  0.00    -0.268 OA
ATOM      5  N   UNL     1      10.822  -3.025   6.126  0.00  0.00    -0.295 N 
ATOM      6  H   UNL     1      11.128  -3.083   7.045  0.00  0.00    +0.172 HD
ATOM      7  C   UNL     1      10.665  -1.810   5.535  0.00  0.00    +0.199 A 
ATOM      8  N   UNL     1      10.257  -1.708   4.285  0.00  0.00    -0.219 NA
ATOM      9  N   UNL     1      10.941  -0.674   6.247  0.00  0.00    -0.300 N 
ATOM     10  C   UNL     1      10.757   0.627   5.587  0.00  0.00    +0.109 C 
ATOM     11  C   UNL     1      10.077   1.656   6.494  0.00  0.00    +0.038 C 
ATOM     12  C   UNL     1       8.954   1.007   7.277  0.00  0.00    +0.109 C 
ATOM     13  N   UNL     1       9.525   0.430   8.494  0.00  0.00    -0.297 N 
ATOM     14  C   UNL     1      10.166  -0.837   8.560  0.00  0.00    +0.127 C 
ATOM     15  C   UNL     1      11.395  -0.814   7.620  0.00  0.00    +0.127 C 
ATOM     16  C   UNL     1       9.438   1.149   9.630  0.00  0.00    +0.253 C 
ATOM     17  O   UNL     1       8.900   2.236   9.620  0.00  0.00    -0.272 OA
ENDROOT
BRANCH   1  18
ATOM     18  C   UNL     1       9.502  -2.632   2.135  0.00  0.00    +0.140 C 
BRANCH  18  22
ATOM     19  N   UNL     1       5.453  -1.680   1.382  0.00  0.00    +0.382 N 
ATOM     20  C   UNL     1       6.487  -0.822   0.788  0.00  0.00    -0.063 C 
ATOM     21  C   UNL     1       7.818  -1.575   0.753  0.00  0.00    +0.066 C 
ATOM     22  N   UNL     1       8.199  -1.955   2.121  0.00  0.00    -0.300 NA
ATOM     23  C   UNL     1       7.162  -2.795   2.737  0.00  0.00    +0.066 C 
ATOM     24  C   UNL     1       5.836  -2.031   2.756  0.00  0.00    -0.063 C 
ATOM     25  H   UNL     1       5.360  -2.522   0.833  0.00  0.00    -0.082 HD
BRANCH  19  26
ATOM     26  C   UNL     1       4.171  -0.963   1.399  0.00  0.00    -0.074 C 
BRANCH  26  27
ATOM     27  C   UNL     1       3.711  -0.707  -0.038  0.00  0.00    +0.016 C 
BRANCH  27  31
ATOM     28  C   UNL     1      -0.017   1.378   0.010  0.00  0.00    +0.000 A 
ATOM     29  C   UNL     1       1.171   2.086   0.002  0.00  0.00    +0.000 A 
ATOM     30  C   UNL     1       2.377   1.411  -0.013  0.00  0.00    +0.003 A 
ATOM     31  C   UNL     1       2.396   0.029  -0.020  0.00  0.00    -0.049 A 
ATOM     32  C   UNL     1       1.208  -0.679  -0.012  0.00  0.00    +0.003 A 
ATOM     33  C   UNL     1       0.002  -0.004   0.002  0.00  0.00    +0.000 A 
ENDBRANCH  27  31
ENDBRANCH  26  27
ENDBRANCH  19  26
ENDBRANCH  18  22
ENDBRANCH   1  18
BRANCH  16  34
ATOM     34  C   UNL     1      10.010   0.603  10.913  0.00  0.00    +0.324 C 
BRANCH  34  35
ATOM     35  O   UNL     1       9.796   1.542  11.968  0.00  0.00    -0.483 OA
BRANCH  35  36
ATOM     36  C   UNL     1      10.254   1.201  13.201  0.00  0.00    +0.121 A 
ATOM     37  C   UNL     1      10.903  -0.011  13.390  0.00  0.00    +0.045 A 
ATOM     38  C   UNL     1      11.369  -0.355  14.645  0.00  0.00    +0.004 A 
ATOM     39  C   UNL     1      11.189   0.507  15.711  0.00  0.00    +0.000 A 
ATOM     40  C   UNL     1      10.543   1.715  15.525  0.00  0.00    +0.004 A 
ATOM     41  C   UNL     1      10.080   2.067  14.271  0.00  0.00    +0.045 A 
ENDBRANCH  35  36
ENDBRANCH  34  35
ENDBRANCH  16  34
TORSDOF 8
