REMARK  Name = ZINC00919510
REMARK  4 active torsions:
REMARK  status: ('A' for Active; 'I' for Inactive)
REMARK    1  A    between atoms: C_3  and  N_7
REMARK    2  A    between atoms: C_8  and  C_10
REMARK    3  A    between atoms: C_15  and  C_26
REMARK    4  A    between atoms: C_18  and  C_21
REMARK                            x       y       z     vdW  Elec       q    Type
REMARK                         _______ _______ _______ _____ _____    ______ ____
ROOT
ATOM      1  C   UNL     1       6.045   1.977   0.167  0.00  0.00    +0.149 A 
ATOM      2  C   UNL     1       7.312   1.357   0.258  0.00  0.00    +0.078 A 
ATOM      3  C   UNL     1       8.238   2.333   0.333  0.00  0.00    +0.119 A 
ATOM      4  N   UNL     1       7.592   3.537   0.294  0.00  0.00    -0.238 N 
ATOM      5  N   UNL     1       6.225   3.286   0.183  0.00  0.00    -0.164 NA
ATOM      6  C   UNL     1       8.278   4.830   0.359  0.00  0.00    +0.215 C 
ATOM      7  C   UNL     1       9.679   4.620   0.946  0.00  0.00    +0.066 C 
ATOM      8  C   UNL     1      10.387   3.478   0.209  0.00  0.00    +0.140 C 
ATOM      9  N   UNL     1       9.628   2.232   0.435  0.00  0.00    -0.319 N 
ATOM     10  H   UNL     1      10.068   1.392   0.640  0.00  0.00    +0.148 HD
ENDROOT
BRANCH   8  11
ATOM     11  C   UNL     1      10.441   3.783  -1.266  0.00  0.00    +0.125 A 
ATOM     12  C   UNL     1      11.505   4.270  -1.929  0.00  0.00    +0.046 A 
ATOM     13  C   UNL     1      11.117   4.403  -3.283  0.00  0.00    +0.041 A 
ATOM     14  C   UNL     1       9.840   3.989  -3.365  0.00  0.00    +0.195 A 
ATOM     15  O   UNL     1       9.438   3.609  -2.141  0.00  0.00    -0.466 OA
ENDBRANCH   8  11
BRANCH   1  17
ATOM     16  N   UNL     1       3.605   1.995  -0.022  0.00  0.00    -0.279 N 
ATOM     17  C   UNL     1       4.745   1.282   0.065  0.00  0.00    +0.268 C 
ATOM     18  O   UNL     1       4.705   0.067   0.059  0.00  0.00    -0.268 OA
ATOM     19  H   UNL     1       3.642   2.962  -0.095  0.00  0.00    +0.155 HD
BRANCH  16  22
ATOM     20  C   UNL     1       0.953  -0.440   0.710  0.00  0.00    +0.021 A 
ATOM     21  C   UNL     1       2.197   0.171   0.727  0.00  0.00    +0.026 A 
ATOM     22  C   UNL     1       2.368   1.341  -0.008  0.00  0.00    +0.052 A 
ATOM     23  C   UNL     1       1.294   1.850  -0.726  0.00  0.00    +0.134 A 
ATOM     24  N   UNL     1       0.127   1.237  -0.714  0.00  0.00    -0.261 NA
ATOM     25  C   UNL     1      -0.068   0.128  -0.029  0.00  0.00    +0.111 A 
ENDBRANCH  16  22
ENDBRANCH   1  17
BRANCH   6  26
ATOM     26  C   UNL     1       7.485   5.787   1.250  0.00  0.00    +0.412 C 
ATOM     27  F   UNL     1       7.383   5.250   2.538  0.00  0.00    -0.168 F 
ATOM     28  F   UNL     1       8.141   7.021   1.310  0.00  0.00    -0.168 F 
ATOM     29  F   UNL     1       6.204   5.967   0.717  0.00  0.00    -0.168 F 
ENDBRANCH   6  26
TORSDOF 4
