REMARK  Name = ZINC36142200
REMARK  4 active torsions:
REMARK  status: ('A' for Active; 'I' for Inactive)
REMARK    1  A    between atoms: C_1  and  C_2
REMARK    2  A    between atoms: C_6  and  C_9
REMARK    3  A    between atoms: C_10  and  C_14
REMARK    4  A    between atoms: C_10  and  N_17
REMARK                            x       y       z     vdW  Elec       q    Type
REMARK                         _______ _______ _______ _____ _____    ______ ____
ROOT
ATOM      1  C   UNL     1      -0.613   1.364  -0.745  0.00  0.00    +0.045 C 
ATOM      2  C   UNL     1      -0.457  -0.124  -0.565  0.00  0.00    -0.028 A 
ATOM      3  C   UNL     1      -0.310  -0.941  -1.668  0.00  0.00    +0.050 A 
ATOM      4  C   UNL     1      -0.165  -2.315  -1.507  0.00  0.00    +0.123 A 
ATOM      5  C   UNL     1      -0.165  -2.861  -0.235  0.00  0.00    -0.002 A 
ATOM      6  C   UNL     1      -0.315  -2.038   0.868  0.00  0.00    -0.026 A 
ATOM      7  C   UNL     1      -0.454  -0.672   0.705  0.00  0.00    +0.047 A 
ATOM      8 CL   UNL     1      -0.633   0.355   2.094  0.00  0.00    -0.083 Cl
ATOM      9  C   UNL     1      -0.320  -2.632   2.253  0.00  0.00    +0.045 C 
ATOM     10  C   UNL     1       0.001  -4.343  -0.016  0.00  0.00    +0.065 C 
ATOM     11  C   UNL     1      -0.289  -5.093  -1.319  0.00  0.00    +0.044 C 
ATOM     12  C   UNL     1       0.487  -4.408  -2.452  0.00  0.00    +0.228 C 
ATOM     13  O   UNL     1      -0.029  -3.087  -2.617  0.00  0.00    -0.492 OA
ENDROOT
BRANCH  10  14
ATOM     14  N   UNL     1       1.378  -4.623   0.412  0.00  0.00    +0.392 N 
ATOM     15  H   UNL     1       1.569  -4.132   1.273  0.00  0.00    -0.088 HD
ATOM     16  H   UNL     1       1.490  -5.615   0.559  0.00  0.00    -0.088 HD
ATOM     17  H   UNL     1       2.022  -4.314  -0.301  0.00  0.00    -0.088 HD
ENDBRANCH  10  14
BRANCH  10  18
ATOM     18  C   UNL     1      -0.958  -4.803   1.051  0.00  0.00    +0.349 C 
ATOM     19  O   UNL     1      -2.150  -4.573   0.939  0.00  0.00    -0.248 OA
ATOM     20  O   UNL     1      -0.543  -5.406   2.026  0.00  0.00    -0.248 OA
ENDBRANCH  10  18
TORSDOF 2
