REMARK  Name = ZINC06882327
REMARK  8 active torsions:
REMARK  status: ('A' for Active; 'I' for Inactive)
REMARK    1  A    between atoms: C_1  and  C_2
REMARK    2  A    between atoms: C_3  and  C_17
REMARK    3  A    between atoms: C_4  and  N_16
REMARK    4  A    between atoms: N_5  and  C_7
REMARK    5  A    between atoms: C_10  and  N_13
REMARK    6  A    between atoms: C_17  and  C_18
REMARK    7  A    between atoms: C_17  and  C_19
REMARK    8  A    between atoms: C_17  and  O_23
REMARK                            x       y       z     vdW  Elec       q    Type
REMARK                         _______ _______ _______ _____ _____    ______ ____
ROOT
ATOM      1  C   UNL     1       5.035  -2.270  -0.007  0.00  0.00    +0.068 C 
ATOM      2  C   UNL     1       4.259  -1.016  -0.315  0.00  0.00    +0.068 A 
ATOM      3  C   UNL     1       4.778   0.142  -0.901  0.00  0.00    +0.054 A 
ATOM      4  C   UNL     1       3.763   1.043  -1.017  0.00  0.00    +0.126 A 
ATOM      5  N   UNL     1       2.642   0.462  -0.508  0.00  0.00    -0.218 N 
ATOM      6  N   UNL     1       2.985  -0.827  -0.080  0.00  0.00    -0.170 NA
ENDROOT
BRANCH   5   7
ATOM      7  C   UNL     1       1.371   1.046  -0.431  0.00  0.00    +0.068 A 
ATOM      8  C   UNL     1       0.235   0.267  -0.606  0.00  0.00    +0.030 A 
ATOM      9  C   UNL     1      -1.016   0.847  -0.536  0.00  0.00    +0.035 A 
ATOM     10  C   UNL     1      -1.139   2.201  -0.280  0.00  0.00    +0.126 A 
ATOM     11  C   UNL     1      -0.010   2.979  -0.106  0.00  0.00    +0.035 A 
ATOM     12  C   UNL     1       1.244   2.406  -0.181  0.00  0.00    +0.030 A 
BRANCH  10  13
ATOM     13  N   UNL     1      -2.482   2.818  -0.200  0.00  0.00    +0.056 N 
ATOM     14  O   UNL     1      -2.592   4.011   0.020  0.00  0.00    -0.126 OA
ATOM     15  O   UNL     1      -3.478   2.133  -0.353  0.00  0.00    -0.126 OA
ENDBRANCH  10  13
ENDBRANCH   5   7
BRANCH   4  16
ATOM     16  N   UNL     1       3.855   2.323  -1.555  0.00  0.00    -0.343 N 
ATOM     17  H   UNL     1       3.094   2.923  -1.513  0.00  0.00    +0.144 HD
ATOM     18  H   UNL     1       4.680   2.616  -1.972  0.00  0.00    +0.144 HD
ENDBRANCH   4  16
BRANCH   3  19
ATOM     19  C   UNL     1       6.206   0.355  -1.332  0.00  0.00    +0.188 C 
ATOM     20  C   UNL     1       6.243   1.327  -2.513  0.00  0.00    +0.056 C 
BRANCH  19  21
ATOM     21  C   UNL     1       7.009   0.938  -0.168  0.00  0.00    +0.422 C 
ATOM     22  F   UNL     1       7.058   0.008   0.876  0.00  0.00    -0.167 F 
ATOM     23  F   UNL     1       8.309   1.226  -0.596  0.00  0.00    -0.167 F 
ATOM     24  F   UNL     1       6.395   2.111   0.282  0.00  0.00    -0.167 F 
ENDBRANCH  19  21
BRANCH  19  25
ATOM     25  O   UNL     1       6.776  -0.895  -1.726  0.00  0.00    -0.376 OA
ATOM     26  H   UNL     1       6.928  -1.506  -0.992  0.00  0.00    +0.211 HD
ENDBRANCH  19  25
ENDBRANCH   3  19
TORSDOF 6
