REMARK  Name = ZINC17194546
REMARK  3 active torsions:
REMARK  status: ('A' for Active; 'I' for Inactive)
REMARK    1  A    between atoms: C_1  and  C_2
REMARK    2  A    between atoms: C_6  and  N_8
REMARK    3  A    between atoms: C_11  and  C_17
REMARK                            x       y       z     vdW  Elec       q    Type
REMARK                         _______ _______ _______ _____ _____    ______ ____
ROOT
ATOM      1  N   UNL     1      -0.017   1.397   0.010  0.00  0.00    -0.256 N 
ATOM      2  C   UNL     1      -1.091   2.054  -0.472  0.00  0.00    +0.265 A 
ATOM      3  O   UNL     1      -2.043   1.433  -0.912  0.00  0.00    -0.267 OA
ATOM      4  C   UNL     1      -1.107   3.459  -0.457  0.00  0.00    +0.072 A 
ATOM      5  C   UNL     1      -0.027   4.130   0.036  0.00  0.00    +0.258 A 
ATOM      6  N   UNL     1       1.048   3.422   0.511  0.00  0.00    -0.302 N 
ATOM      7  C   UNL     1       1.039   2.076   0.492  0.00  0.00    +0.168 A 
ATOM      8  S   UNL     1       2.393   1.216   1.092  0.00  0.00    -0.012 S 
ATOM      9  O   UNL     1      -0.014   5.479   0.056  0.00  0.00    -0.267 OA
ATOM     10  H   UNL     1       1.923   3.954   0.911  0.00  0.00    +0.171 HD
ENDROOT
BRANCH   4  11
ATOM     11  C   UNL     1      -2.299   4.215  -0.986  0.00  0.00    +0.001 C 
ATOM     12  C   UNL     1      -2.436   3.957  -2.463  0.00  0.00    -0.054 A 
ATOM     13  C   UNL     1      -1.289   3.960  -3.243  0.00  0.00    +0.002 A 
ATOM     14  C   UNL     1      -1.368   3.731  -4.602  0.00  0.00    +0.000 A 
ATOM     15  C   UNL     1      -2.597   3.499  -5.191  0.00  0.00    +0.000 A 
ATOM     16  C   UNL     1      -3.740   3.495  -4.416  0.00  0.00    +0.004 A 
ATOM     17  C   UNL     1      -3.661   3.723  -3.050  0.00  0.00    -0.047 A 
ATOM     18  C   UNL     1      -4.934   3.704  -2.244  0.00  0.00    +0.016 C 
ATOM     19  C   UNL     1      -4.702   4.371  -0.888  0.00  0.00    -0.077 C 
ATOM     20  N   UNL     1      -3.504   3.777  -0.274  0.00  0.00    +0.387 N 
ATOM     21  H   UNL     1      -3.581   2.681  -0.323  0.00  0.00    -0.085 HD
ATOM     22  H   UNL     1      -3.444   4.094   0.778  0.00  0.00    -0.085 HD
ENDBRANCH   4  11
BRANCH   1  28
ATOM     23  C   UNL     1      -0.995  -2.863   2.264  0.00  0.00    +0.044 C 
ATOM     24  C   UNL     1      -0.466  -2.093   1.082  0.00  0.00    -0.048 A 
ATOM     25  C   UNL     1       0.040  -2.771  -0.013  0.00  0.00    +0.003 A 
ATOM     26  C   UNL     1       0.526  -2.068  -1.100  0.00  0.00    +0.002 A 
ATOM     27  C   UNL     1       0.509  -0.687  -1.095  0.00  0.00    +0.026 A 
ATOM     28  C   UNL     1       0.002  -0.004   0.002  0.00  0.00    +0.052 A 
ATOM     29  C   UNL     1      -0.481  -0.713   1.095  0.00  0.00    +0.029 A 
ENDBRANCH   1  28
TORSDOF 2
