REMARK  Name = ZINC07130523
REMARK  6 active torsions:
REMARK  status: ('A' for Active; 'I' for Inactive)
REMARK    1  A    between atoms: C_1  and  C_2
REMARK    2  A    between atoms: C_9  and  C_11
REMARK    3  A    between atoms: C_14  and  S_16
REMARK    4  A    between atoms: S_16  and  C_17
REMARK    5  A    between atoms: C_17  and  C_19
REMARK    6  A    between atoms: C_17  and  C_20
REMARK                            x       y       z     vdW  Elec       q    Type
REMARK                         _______ _______ _______ _____ _____    ______ ____
ROOT
ATOM      1  C   UNL     1       0.002  -0.004   0.002  0.00  0.00    +0.256 A 
ATOM      2  N   UNL     1      -0.016   1.309   0.009  0.00  0.00    -0.106 NA
ATOM      3  N   UNL     1       1.192   1.753   0.000  0.00  0.00    -0.101 NA
ATOM      4  C   UNL     1       2.029   0.743  -0.013  0.00  0.00    +0.278 A 
ATOM      5  O   UNL     1       1.298  -0.390  -0.012  0.00  0.00    -0.410 OA
ENDROOT
BRANCH   1  13
ATOM      6  C   UNL     1      -7.205  -2.361  -0.244  0.00  0.00    +0.008 C 
ATOM      7  C   UNL     1      -5.698  -2.559  -0.421  0.00  0.00    -0.009 C 
ATOM      8  C   UNL     1      -5.246  -3.765   0.407  0.00  0.00    +0.009 C 
ATOM      9  C   UNL     1      -3.802  -4.116   0.019  0.00  0.00    +0.043 C 
ATOM     10  C   UNL     1      -2.997  -2.856   0.017  0.00  0.00    -0.006 A 
ATOM     11  C   UNL     1      -3.462  -1.575   0.028  0.00  0.00    -0.036 A 
ATOM     12  C   UNL     1      -2.510  -0.563   0.024  0.00  0.00    +0.024 A 
ATOM     13  C   UNL     1      -1.171  -0.891   0.009  0.00  0.00    +0.076 A 
ATOM     14  S   UNL     1      -1.233  -2.676  -0.007  0.00  0.00    -0.088 S 
ATOM     15  C   UNL     1      -4.964  -1.301   0.043  0.00  0.00    +0.039 C 
ENDBRANCH   1  13
BRANCH   4  16
ATOM     16  S   UNL     1       3.788   0.847  -0.030  0.00  0.00    -0.053 S 
BRANCH  16  17
ATOM     17  C   UNL     1       3.996   2.645  -0.022  0.00  0.00    +0.139 C 
ATOM     18  C   UNL     1       3.462   3.214   1.294  0.00  0.00    +0.029 C 
BRANCH  17  19
ATOM     19  C   UNL     1       5.459   2.982  -0.159  0.00  0.00    +0.234 C 
ATOM     20  O   UNL     1       6.300   2.151   0.107  0.00  0.00    -0.274 OA
ATOM     21  N   UNL     1       5.831   4.208  -0.577  0.00  0.00    -0.239 N 
ATOM     22  C   UNL     1       7.139   4.509  -0.699  0.00  0.00    +0.303 C 
ATOM     23  O   UNL     1       7.982   3.676  -0.432  0.00  0.00    -0.253 OA
ATOM     24  N   UNL     1       7.512   5.735  -1.117  0.00  0.00    -0.313 N 
ATOM     25  H   UNL     1       5.158   4.873  -0.790  0.00  0.00    +0.159 HD
ATOM     26  H   UNL     1       6.839   6.401  -1.330  0.00  0.00    +0.146 HD
ATOM     27  H   UNL     1       8.453   5.952  -1.205  0.00  0.00    +0.146 HD
ENDBRANCH  17  19
ENDBRANCH  16  17
ENDBRANCH   4  16
TORSDOF 4
