REMARK  Name = ZINC28459016
REMARK  9 active torsions:
REMARK  status: ('A' for Active; 'I' for Inactive)
REMARK    1  A    between atoms: C_1  and  C_2
REMARK    2  A    between atoms: C_2  and  C_3
REMARK    3  A    between atoms: C_3  and  C_4
REMARK    4  A    between atoms: C_4  and  C_5
REMARK    5  A    between atoms: C_11  and  C_13
REMARK    6  A    between atoms: C_13  and  N_14
REMARK    7  A    between atoms: C_19  and  C_26
REMARK    8  A    between atoms: C_22  and  C_24
REMARK    9  A    between atoms: C_22  and  C_25
REMARK                            x       y       z     vdW  Elec       q    Type
REMARK                         _______ _______ _______ _____ _____    ______ ____
ROOT
ATOM      1  N   UNL     1      -4.572   3.210   7.197  0.00  0.00    -0.215 N 
ATOM      2  C   UNL     1      -5.886   3.351   6.918  0.00  0.00    +0.247 C 
ATOM      3  O   UNL     1      -6.356   3.950   5.975  0.00  0.00    -0.273 OA
ATOM      4  C   UNL     1      -6.616   2.591   7.998  0.00  0.00    +0.113 C 
ATOM      5  C   UNL     1      -7.573   1.575   7.392  0.00  0.00    +0.038 C 
ATOM      6  C   UNL     1      -8.792   2.288   6.806  0.00  0.00    -0.011 C 
ATOM      7  C   UNL     1      -9.526   3.008   7.935  0.00  0.00    +0.009 C 
ATOM      8  C   UNL     1      -8.636   4.068   8.574  0.00  0.00    -0.032 C 
ATOM      9  C   UNL     1      -7.284   3.517   8.994  0.00  0.00    +0.041 C 
ATOM     10  C   UNL     1      -9.355   4.587   9.838  0.00  0.00    +0.011 C 
ATOM     11  C   UNL     1      -8.465   5.255   7.622  0.00  0.00    +0.011 C 
ATOM     12  C   UNL     1      -9.727   1.253   6.172  0.00  0.00    +0.007 C 
ATOM     13  N   UNL     1      -5.529   1.863   8.691  0.00  0.00    -0.285 N 
ATOM     14  C   UNL     1      -4.375   2.341   8.195  0.00  0.00    +0.310 C 
ATOM     15  O   UNL     1      -3.276   2.022   8.606  0.00  0.00    -0.252 OA
ATOM     16  H   UNL     1      -5.771   1.101   9.447  0.00  0.00    +0.151 HD
ENDROOT
BRANCH   1  17
ATOM     17  C   UNL     1      -3.498   3.901   6.480  0.00  0.00    +0.214 C 
BRANCH  17  24
ATOM     18  C   UNL     1      -0.718   1.572   1.248  0.00  0.00    +0.104 A 
ATOM     19  N   UNL     1      -1.686   1.011   1.945  0.00  0.00    -0.145 NA
ATOM     20  N   UNL     1      -2.153   1.581   2.970  0.00  0.00    -0.126 NA
ATOM     21  C   UNL     1      -1.700   2.751   3.387  0.00  0.00    +0.188 A 
ATOM     22  S   UNL     1      -0.474   3.069   2.196  0.00  0.00    -0.035 S 
ATOM     23  N   UNL     1      -2.092   3.514   4.482  0.00  0.00    -0.262 N 
ATOM     24  C   UNL     1      -3.073   3.074   5.294  0.00  0.00    +0.237 C 
ATOM     25  O   UNL     1      -3.614   2.011   5.071  0.00  0.00    -0.274 OA
ATOM     26  H   UNL     1      -1.601   4.478   4.684  0.00  0.00    +0.157 HD
BRANCH  18  27
ATOM     27  C   UNL     1      -0.013   1.086   0.008  0.00  0.00    +0.065 C 
BRANCH  27  28
ATOM     28  C   UNL     1      -0.753   1.593  -1.232  0.00  0.00    +0.006 C 
BRANCH  28  30
ATOM     29  C   UNL     1      -0.777   1.606  -3.730  0.00  0.00    +0.004 C 
ATOM     30  C   UNL     1      -0.037   1.099  -2.490  0.00  0.00    -0.003 C 
ENDBRANCH  28  30
ENDBRANCH  27  28
ENDBRANCH  18  27
ENDBRANCH  17  24
ENDBRANCH   1  17
TORSDOF 5
