REMARK  Name = ZINC12656943
REMARK  8 active torsions:
REMARK  status: ('A' for Active; 'I' for Inactive)
REMARK    1  A    between atoms: C_1  and  C_2
REMARK    2  A    between atoms: C_5  and  C_21
REMARK    3  A    between atoms: C_8  and  C_20
REMARK    4  A    between atoms: C_10  and  C_18
REMARK    5  A    between atoms: C_13  and  C_15
REMARK    6  A    between atoms: C_15  and  C_16
REMARK    7  A    between atoms: C_15  and  C_17
REMARK    8  A    between atoms: C_18  and  O_19
REMARK                            x       y       z     vdW  Elec       q    Type
REMARK                         _______ _______ _______ _____ _____    ______ ____
ROOT
ATOM      1  C   UNL     1      -0.609  -1.238   4.532  0.00  0.00    +0.012 C 
ATOM      2  C   UNL     1      -1.433  -1.519   3.274  0.00  0.00    +0.019 C 
ATOM      3  C   UNL     1      -2.631  -0.618   3.263  0.00  0.00    -0.024 C 
ATOM      4  C   UNL     1      -3.022   0.102   2.243  0.00  0.00    -0.070 C 
ATOM      5  C   UNL     1      -2.267   0.120   0.939  0.00  0.00    +0.047 C 
ATOM      6  C   UNL     1      -1.452  -1.175   0.804  0.00  0.00    +0.007 C 
ATOM      7  C   UNL     1      -0.560  -1.296   2.045  0.00  0.00    +0.026 C 
ATOM      8  C   UNL     1       0.311  -0.057   2.197  0.00  0.00    +0.170 C 
ATOM      9  O   UNL     1      -0.488   1.140   2.188  0.00  0.00    -0.375 OA
ATOM     10  C   UNL     1      -1.270   1.291   0.997  0.00  0.00    +0.128 C 
ATOM     11  C   UNL     1      -0.583  -1.113  -0.454  0.00  0.00    +0.009 C 
ATOM     12  C   UNL     1      -4.268   0.943   2.362  0.00  0.00    +0.039 C 
ENDROOT
BRANCH  10  13
ATOM     13  C   UNL     1      -0.357   1.257  -0.230  0.00  0.00    +0.012 C 
ATOM     14  C   UNL     1       0.613   2.439  -0.177  0.00  0.00    +0.010 C 
ATOM     15  C   UNL     1      -1.206   1.350  -1.500  0.00  0.00    +0.010 C 
ENDBRANCH  10  13
BRANCH   7  16
ATOM     16  C   UNL     1       0.346  -2.518   1.881  0.00  0.00    +0.165 C 
BRANCH  16  17
ATOM     17  O   UNL     1       1.185  -2.646   3.031  0.00  0.00    -0.394 OA
ATOM     18  H   UNL     1       1.788  -3.401   2.996  0.00  0.00    +0.209 HD
ENDBRANCH  16  17
ENDBRANCH   7  16
TORSDOF 3
