REMARK  Name = ZINC46551467
REMARK  5 active torsions:
REMARK  status: ('A' for Active; 'I' for Inactive)
REMARK    1  A    between atoms: C_5  and  N_7
REMARK    2  A    between atoms: N_10  and  C_13
REMARK    3  A    between atoms: C_13  and  C_14
REMARK    4  A    between atoms: C_23  and  S_25
REMARK    5  A    between atoms: S_25  and  N_28
REMARK                            x       y       z     vdW  Elec       q    Type
REMARK                         _______ _______ _______ _____ _____    ______ ____
ROOT
ATOM      1  C   UNL     1       3.019  -6.661  -1.227  0.00  0.00    +0.203 C 
ATOM      2  O   UNL     1       2.088  -6.458  -1.978  0.00  0.00    -0.277 OA
ATOM      3  N   UNL     1       3.841  -7.707  -1.440  0.00  0.00    -0.272 N 
ATOM      4  C   UNL     1       4.990  -8.057  -0.602  0.00  0.00    +0.118 C 
ATOM      5  C   UNL     1       5.596  -9.312  -1.251  0.00  0.00    +0.056 C 
ATOM      6  C   UNL     1       4.714  -9.585  -2.448  0.00  0.00    -0.023 A 
ATOM      7  C   UNL     1       3.718  -8.622  -2.491  0.00  0.00    +0.040 A 
ATOM      8  C   UNL     1       2.770  -8.672  -3.515  0.00  0.00    +0.026 A 
ATOM      9  C   UNL     1       2.826  -9.669  -4.466  0.00  0.00    +0.030 A 
ATOM     10  C   UNL     1       3.821 -10.627  -4.412  0.00  0.00    +0.105 A 
ATOM     11  C   UNL     1       4.768 -10.579  -3.406  0.00  0.00    +0.034 A 
ENDROOT
BRANCH  10  12
ATOM     12  S   UNL     1       3.888 -11.900  -5.629  0.00  0.00    +0.056 S 
ATOM     13  O   UNL     1       4.589 -12.987  -5.041  0.00  0.00    -0.153 OA
ATOM     14  O   UNL     1       2.572 -12.034  -6.149  0.00  0.00    -0.153 OA
BRANCH  12  15
ATOM     15  N   UNL     1       4.833 -11.342  -6.869  0.00  0.00    -0.204 NA
ATOM     16  H   UNL     1       5.225 -10.456  -6.819  0.00  0.00    +0.144 HD
ATOM     17  H   UNL     1       4.995 -11.901  -7.645  0.00  0.00    +0.144 HD
ENDBRANCH  12  15
ENDBRANCH  10  12
BRANCH   1  18
ATOM     18  C   UNL     1       3.256  -5.743  -0.056  0.00  0.00    +0.019 C 
BRANCH  18  22
ATOM     19  N   UNL     1       1.237  -2.078  -0.022  0.00  0.00    -0.332 N 
ATOM     20  C   UNL     1       1.256  -2.842   1.235  0.00  0.00    +0.086 C 
ATOM     21  C   UNL     1       2.392  -3.868   1.163  0.00  0.00    -0.059 C 
ATOM     22  N   UNL     1       2.232  -4.690  -0.043  0.00  0.00    +0.387 N 
ATOM     23  C   UNL     1       2.378  -3.853  -1.242  0.00  0.00    -0.059 C 
ATOM     24  C   UNL     1       1.236  -2.827  -1.288  0.00  0.00    +0.086 C 
ATOM     25  H   UNL     1       1.317  -5.114  -0.041  0.00  0.00    -0.081 HD
BRANCH  19  30
ATOM     26  C   UNL     1      -0.017   1.377   0.010  0.00  0.00    +0.002 A 
ATOM     27  C   UNL     1       1.170   2.087   0.002  0.00  0.00    +0.002 A 
ATOM     28  C   UNL     1       2.380   1.417  -0.013  0.00  0.00    +0.022 A 
ATOM     29  C   UNL     1       2.406   0.035  -0.022  0.00  0.00    +0.062 A 
ATOM     30  C   UNL     1       1.215  -0.681  -0.014  0.00  0.00    +0.048 A 
ATOM     31  C   UNL     1       0.002  -0.004   0.002  0.00  0.00    +0.024 A 
ATOM     32 CL   UNL     1       3.925  -0.805  -0.042  0.00  0.00    -0.082 Cl
ENDBRANCH  19  30
ENDBRANCH  18  22
ENDBRANCH   1  18
TORSDOF 5
