REMARK  Name = ZINC08412134
REMARK  6 active torsions:
REMARK  status: ('A' for Active; 'I' for Inactive)
REMARK    1  A    between atoms: C_1  and  C_2
REMARK    2  A    between atoms: C_8  and  N_67
REMARK    3  A    between atoms: N_13  and  C_16
REMARK    4  A    between atoms: C_19  and  N_22
REMARK    5  A    between atoms: C_26  and  N_69
REMARK    6  A    between atoms: C_33  and  C_36
REMARK                            x       y       z     vdW  Elec       q    Type
REMARK                         _______ _______ _______ _____ _____    ______ ____
ROOT
ATOM      1  C   UNL     1       5.429  -4.599   4.453  0.00  0.00    +0.044 A 
ATOM      2  C   UNL     1       5.444  -4.423   3.076  0.00  0.00    +0.026 A 
ATOM      3  C   UNL     1       4.497  -3.620   2.473  0.00  0.00    +0.026 A 
ATOM      4  C   UNL     1       3.529  -2.989   3.242  0.00  0.00    +0.044 A 
ATOM      5  C   UNL     1       3.517  -3.161   4.620  0.00  0.00    +0.026 A 
ATOM      6  C   UNL     1       4.461  -3.968   5.223  0.00  0.00    +0.026 A 
ENDROOT
BRANCH   1  11
ATOM      7  C   UNL     1       8.204  -6.071   6.370  0.00  0.00    +0.029 C 
ATOM      8  C   UNL     1       7.592  -7.309   5.684  0.00  0.00    +0.090 C 
ATOM      9  C   UNL     1       6.439  -6.740   4.888  0.00  0.00    +0.225 C 
ATOM     10  O   UNL     1       5.679  -7.382   4.195  0.00  0.00    -0.275 OA
ATOM     11  N   UNL     1       6.392  -5.414   5.067  0.00  0.00    -0.212 N 
ATOM     12  C   UNL     1       7.335  -4.931   5.884  0.00  0.00    +0.213 C 
ATOM     13  O   UNL     1       7.472  -3.765   6.188  0.00  0.00    -0.277 OA
BRANCH   7  20
ATOM     14  C   UNL     1      11.217  -5.260   2.568  0.00  0.00    +0.005 C 
ATOM     15  C   UNL     1      11.122  -5.390   4.089  0.00  0.00    -0.031 C 
ATOM     16  C   UNL     1      12.057  -6.505   4.567  0.00  0.00    -0.001 C 
ATOM     17  C   UNL     1      11.911  -6.669   6.082  0.00  0.00    -0.018 C 
ATOM     18  C   UNL     1      10.450  -6.974   6.419  0.00  0.00    -0.078 C 
ATOM     19  C   UNL     1       9.684  -5.733   4.484  0.00  0.00    -0.075 C 
ATOM     20  N   UNL     1       9.605  -5.853   5.955  0.00  0.00    +0.388 N 
ATOM     21  H   UNL     1       9.947  -4.982   6.379  0.00  0.00    -0.081 HD
ENDBRANCH   7  20
ENDBRANCH   1  11
BRANCH   4  22
ATOM     22  N   UNL     1       2.567  -2.174   2.629  0.00  0.00    -0.212 N 
ATOM     23  C   UNL     1       2.516  -0.849   2.813  0.00  0.00    +0.225 C 
ATOM     24  O   UNL     1       3.271  -0.207   3.511  0.00  0.00    -0.275 OA
ATOM     25  C   UNL     1       1.366  -0.279   2.012  0.00  0.00    +0.090 C 
ATOM     26  C   UNL     1       0.754  -1.517   1.325  0.00  0.00    +0.029 C 
ATOM     27  C   UNL     1       1.623  -2.659   1.807  0.00  0.00    +0.213 C 
ATOM     28  O   UNL     1       1.485  -3.824   1.501  0.00  0.00    -0.277 OA
BRANCH  26  35
ATOM     29  C   UNL     1      -1.451  -0.527   1.445  0.00  0.00    -0.078 C 
ATOM     30  C   UNL     1      -2.919  -0.817   1.768  0.00  0.00    -0.018 C 
ATOM     31  C   UNL     1      -3.048  -1.178   3.251  0.00  0.00    -0.001 C 
ATOM     32  C   UNL     1      -2.154  -2.384   3.554  0.00  0.00    -0.031 C 
ATOM     33  C   UNL     1      -0.709  -2.048   3.179  0.00  0.00    -0.075 C 
ATOM     34  C   UNL     1      -2.231  -2.714   5.046  0.00  0.00    +0.005 C 
ATOM     35  N   UNL     1      -0.648  -1.733   1.736  0.00  0.00    +0.388 N 
ATOM     36  H   UNL     1      -1.032  -2.525   1.206  0.00  0.00    -0.081 HD
ENDBRANCH  26  35
ENDBRANCH   4  22
TORSDOF 4
