REMARK  Name = ZINC10612312
REMARK  10 active torsions:
REMARK  status: ('A' for Active; 'I' for Inactive)
REMARK    1  A    between atoms: C_1  and  O_2
REMARK    2  A    between atoms: O_2  and  C_3
REMARK    3  A    between atoms: C_3  and  C_4
REMARK    4  A    between atoms: C_4  and  N_5
REMARK    5  A    between atoms: C_6  and  C_32
REMARK    6  A    between atoms: C_9  and  S_10
REMARK    7  A    between atoms: S_10  and  C_11
REMARK    8  A    between atoms: C_11  and  C_12
REMARK    9  A    between atoms: C_15  and  C_25
REMARK   10  A    between atoms: C_18  and  C_20
REMARK                            x       y       z     vdW  Elec       q    Type
REMARK                         _______ _______ _______ _____ _____    ______ ____
ROOT
ATOM      1  C   UNL     1       5.535   2.879  -0.011  0.00  0.00    +0.246 C 
ATOM      2  O   UNL     1       6.339   1.971  -0.044  0.00  0.00    -0.273 OA
ATOM      3  N   UNL     1       5.962   4.157   0.015  0.00  0.00    -0.184 N 
ATOM      4  C   UNL     1       7.368   4.589   0.007  0.00  0.00    +0.137 C 
ATOM      5  C   UNL     1       7.275   6.128   0.046  0.00  0.00    +0.087 C 
ATOM      6  C   UNL     1       5.789   6.402   0.073  0.00  0.00    +0.075 C 
ATOM      7  N   UNL     1       5.144   5.284   0.048  0.00  0.00    -0.180 NA
ENDROOT
BRANCH   4   8
ATOM      8  C   UNL     1       8.056   4.132  -1.254  0.00  0.00    -0.025 A 
ATOM      9  C   UNL     1       7.377   4.152  -2.458  0.00  0.00    +0.008 A 
ATOM     10  C   UNL     1       8.008   3.737  -3.615  0.00  0.00    +0.038 A 
ATOM     11  C   UNL     1       9.318   3.292  -3.567  0.00  0.00    +0.123 A 
ATOM     12  C   UNL     1       9.996   3.268  -2.360  0.00  0.00    +0.038 A 
ATOM     13  C   UNL     1       9.365   3.688  -1.205  0.00  0.00    +0.008 A 
ATOM     14  F   UNL     1       9.935   2.882  -4.697  0.00  0.00    -0.205 F 
ENDBRANCH   4   8
BRANCH   6  15
ATOM     15  C   UNL     1       5.174   7.733   0.114  0.00  0.00    +0.035 A 
ATOM     16  C   UNL     1       3.833   8.075   0.141  0.00  0.00    +0.017 A 
ATOM     17  C   UNL     1       3.499   9.409   0.178  0.00  0.00    +0.008 A 
ATOM     18  C   UNL     1       4.487  10.342   0.188  0.00  0.00    +0.046 A 
ATOM     19  S   UNL     1       5.961   9.336   0.151  0.00  0.00    -0.095 S 
ENDBRANCH   6  15
BRANCH   1  20
ATOM     20  C   UNL     1       4.059   2.577   0.001  0.00  0.00    +0.175 C 
BRANCH  20  21
ATOM     21  S   UNL     1       3.808   0.785  -0.040  0.00  0.00    -0.077 S 
BRANCH  21  26
ATOM     22  N   UNL     1       1.278  -0.406  -0.035  0.00  0.00    -0.300 N 
ATOM     23  C   UNL     1      -0.025   0.034  -0.006  0.00  0.00    +0.165 A 
ATOM     24  N   UNL     1       0.011   1.346   0.025  0.00  0.00    -0.128 NA
ATOM     25  N   UNL     1       1.230   1.751   0.019  0.00  0.00    -0.122 NA
ATOM     26  C   UNL     1       2.048   0.721  -0.018  0.00  0.00    +0.192 A 
BRANCH  23  27
ATOM     27  C   UNL     1      -1.238  -0.812  -0.011  0.00  0.00    +0.022 A 
ATOM     28  C   UNL     1      -1.184  -2.144  -0.439  0.00  0.00    +0.031 A 
ATOM     29  C   UNL     1      -2.339  -2.898  -0.422  0.00  0.00    +0.111 A 
ATOM     30  N   UNL     1      -3.483  -2.377  -0.020  0.00  0.00    -0.263 NA
ATOM     31  C   UNL     1      -3.578  -1.125   0.387  0.00  0.00    +0.111 A 
ATOM     32  C   UNL     1      -2.473  -0.301   0.408  0.00  0.00    +0.031 A 
ENDBRANCH  23  27
BRANCH  22  33
ATOM     33  C   UNL     1       1.744  -1.794  -0.076  0.00  0.00    +0.154 C 
BRANCH  33  34
ATOM     34  C   UNL     1       1.999  -2.204  -1.528  0.00  0.00    +0.181 C 
BRANCH  34  36
ATOM     35  C   UNL     1       2.722  -4.042  -2.885  0.00  0.00    +0.194 C 
ATOM     36  O   UNL     1       2.453  -3.558  -1.568  0.00  0.00    -0.381 OA
ENDBRANCH  34  36
ENDBRANCH  33  34
ENDBRANCH  22  33
ENDBRANCH  21  26
ENDBRANCH  20  21
ENDBRANCH   1  20
TORSDOF 9
