REMARK  Name = ZINC10985213
REMARK  7 active torsions:
REMARK  status: ('A' for Active; 'I' for Inactive)
REMARK    1  A    between atoms: C_1  and  C_2
REMARK    2  A    between atoms: C_9  and  C_14
REMARK    3  A    between atoms: C_14  and  O_16
REMARK    4  A    between atoms: O_16  and  C_17
REMARK    5  A    between atoms: C_17  and  C_18
REMARK    6  A    between atoms: N_20  and  C_21
REMARK    7  A    between atoms: C_26  and  N_27
REMARK                            x       y       z     vdW  Elec       q    Type
REMARK                         _______ _______ _______ _____ _____    ______ ____
ROOT
ATOM      1  O   UNL     1       4.193   7.037  -0.951  0.00  0.00    -0.452 OA
ENDROOT
BRANCH   1   2
ATOM      2  C   UNL     1       3.998   5.704  -0.952  0.00  0.00    +0.340 C 
ATOM      3  O   UNL     1       4.873   4.962  -1.353  0.00  0.00    -0.245 OA
BRANCH   2  11
ATOM      4  C   UNL     1      -1.777   2.267  -1.407  0.00  0.00    +0.029 C 
ATOM      5  C   UNL     1      -1.356   1.908   0.019  0.00  0.00    +0.134 C 
ATOM      6  C   UNL     1      -0.023   1.212  -0.009  0.00  0.00    +0.230 C 
ATOM      7  O   UNL     1      -0.010  -0.000  -0.026  0.00  0.00    -0.274 OA
ATOM      8  N   UNL     1       1.143   1.853  -0.021  0.00  0.00    -0.284 N 
ATOM      9  C   UNL     1       1.325   3.234  -0.015  0.00  0.00    +0.048 A 
ATOM     10  C   UNL     1       2.522   3.763  -0.469  0.00  0.00    +0.039 A 
ATOM     11  C   UNL     1       2.723   5.146  -0.467  0.00  0.00    +0.061 A 
ATOM     12  C   UNL     1       1.717   6.001  -0.006  0.00  0.00    +0.016 A 
ATOM     13  C   UNL     1       0.527   5.476   0.445  0.00  0.00    +0.017 A 
ATOM     14  C   UNL     1       0.327   4.101   0.442  0.00  0.00    +0.030 A 
ATOM     15  S   UNL     1      -1.200   3.425   1.015  0.00  0.00    -0.111 S 
ATOM     16  H   UNL     1       1.943   1.306  -0.036  0.00  0.00    +0.155 HD
ENDBRANCH   2  11
ENDBRANCH   1   2
BRANCH   1  17
ATOM     17  C   UNL     1       5.473   7.517  -1.443  0.00  0.00    +0.328 C 
BRANCH  17  18
ATOM     18  C   UNL     1       5.508   9.021  -1.366  0.00  0.00    +0.255 C 
ATOM     19  O   UNL     1       4.550   9.630  -0.939  0.00  0.00    -0.272 OA
ATOM     20  N   UNL     1       6.606   9.691  -1.773  0.00  0.00    -0.281 N 
ATOM     21  H   UNL     1       7.401   9.203  -2.038  0.00  0.00    +0.155 HD
BRANCH  20  22
ATOM     22  C   UNL     1       6.597  11.090  -1.811  0.00  0.00    +0.064 A 
ATOM     23  C   UNL     1       5.397  11.775  -1.953  0.00  0.00    +0.027 A 
ATOM     24  C   UNL     1       5.392  13.155  -1.991  0.00  0.00    +0.022 A 
ATOM     25  C   UNL     1       6.581  13.856  -1.887  0.00  0.00    +0.043 A 
ATOM     26  C   UNL     1       7.778  13.176  -1.746  0.00  0.00    +0.054 A 
ATOM     27  C   UNL     1       7.788  11.796  -1.702  0.00  0.00    +0.149 A 
ATOM     28 CL   UNL     1       6.571  15.591  -1.935  0.00  0.00    -0.083 Cl
BRANCH  27  29
ATOM     29  N   UNL     1       9.068  11.069  -1.544  0.00  0.00    +0.058 N 
ATOM     30  O   UNL     1      10.100  11.688  -1.358  0.00  0.00    -0.126 OA
ATOM     31  O   UNL     1       9.088   9.852  -1.600  0.00  0.00    -0.126 OA
ENDBRANCH  27  29
ENDBRANCH  20  22
ENDBRANCH  17  18
ENDBRANCH   1  17
TORSDOF 6
