REMARK  Name = ZINC09564021
REMARK  10 active torsions:
REMARK  status: ('A' for Active; 'I' for Inactive)
REMARK    1  A    between atoms: C_1  and  S_2
REMARK    2  A    between atoms: S_2  and  C_3
REMARK    3  A    between atoms: C_3  and  C_4
REMARK    4  A    between atoms: C_4  and  N_5
REMARK    5  A    between atoms: C_9  and  N_29
REMARK    6  A    between atoms: N_14  and  C_15
REMARK    7  A    between atoms: C_15  and  C_17
REMARK    8  A    between atoms: C_17  and  C_18
REMARK    9  A    between atoms: C_18  and  S_19
REMARK   10  A    between atoms: S_19  and  C_22
REMARK                            x       y       z     vdW  Elec       q    Type
REMARK                         _______ _______ _______ _____ _____    ______ ____
ROOT
ATOM      1  N   UNL     1       2.277   4.004  -0.019  0.00  0.00    -0.320 N 
ATOM      2  C   UNL     1       1.193   3.147  -0.054  0.00  0.00    +0.058 A 
ATOM      3  C   UNL     1       1.193   1.743  -0.087  0.00  0.00    +0.029 A 
ATOM      4  C   UNL     1       0.012   1.041  -0.119  0.00  0.00    +0.035 A 
ATOM      5  C   UNL     1      -1.210   1.692  -0.125  0.00  0.00    +0.127 A 
ATOM      6  C   UNL     1      -1.240   3.075  -0.087  0.00  0.00    +0.050 A 
ATOM      7  C   UNL     1      -0.059   3.778  -0.055  0.00  0.00    +0.041 A 
ATOM      8  S   UNL     1       0.356   5.503  -0.009  0.00  0.00    -0.052 S 
ATOM      9  C   UNL     1       2.083   5.348   0.010  0.00  0.00    +0.166 A 
ATOM     10  N   UNL     1       2.998   6.314   0.046  0.00  0.00    -0.156 NA
ENDROOT
BRANCH   5  11
ATOM     11  N   UNL     1      -2.471   0.918  -0.166  0.00  0.00    +0.056 N 
ATOM     12  O   UNL     1      -2.437  -0.300  -0.194  0.00  0.00    -0.126 OA
ATOM     13  O   UNL     1      -3.542   1.497  -0.171  0.00  0.00    -0.126 OA
ENDBRANCH   5  11
BRANCH  10  14
ATOM     14  C   UNL     1       2.619   7.588   0.071  0.00  0.00    +0.240 C 
ATOM     15  O   UNL     1       1.437   7.871   0.061  0.00  0.00    -0.274 OA
BRANCH  14  16
ATOM     16  C   UNL     1       3.656   8.681   0.111  0.00  0.00    +0.121 C 
BRANCH  16  17
ATOM     17  C   UNL     1       2.959  10.043   0.134  0.00  0.00    +0.181 C 
BRANCH  17  18
ATOM     18  S   UNL     1       4.206  11.360   0.182  0.00  0.00    -0.003 S 
ATOM     19  O   UNL     1       4.893  11.338   1.426  0.00  0.00    -0.169 OA
ATOM     20  O   UNL     1       4.927  11.397  -1.042  0.00  0.00    -0.169 OA
BRANCH  18  21
ATOM     21  C   UNL     1       3.281  12.859   0.205  0.00  0.00    +0.088 A 
ATOM     22  C   UNL     1       2.940  13.479  -0.983  0.00  0.00    +0.030 A 
ATOM     23  C   UNL     1       2.211  14.652  -0.966  0.00  0.00    +0.040 A 
ATOM     24  C   UNL     1       1.830  15.213   0.241  0.00  0.00    +0.124 A 
ATOM     25  C   UNL     1       2.177  14.595   1.430  0.00  0.00    +0.040 A 
ATOM     26  C   UNL     1       2.902  13.419   1.411  0.00  0.00    +0.030 A 
ATOM     27  F   UNL     1       1.121  16.363   0.259  0.00  0.00    -0.205 F 
ENDBRANCH  18  21
ENDBRANCH  17  18
ENDBRANCH  16  17
ENDBRANCH  14  16
ENDBRANCH  10  14
BRANCH   1  28
ATOM     28  C   UNL     1       3.639   3.461  -0.014  0.00  0.00    +0.135 C 
BRANCH  28  29
ATOM     29  C   UNL     1       4.551   4.366  -0.845  0.00  0.00    +0.090 C 
BRANCH  29  31
ATOM     30  C   UNL     1       7.138   4.784  -1.987  0.00  0.00    +0.084 C 
ATOM     31  S   UNL     1       6.191   3.603  -0.987  0.00  0.00    -0.162 S 
ENDBRANCH  29  31
ENDBRANCH  28  29
ENDBRANCH   1  28
TORSDOF 9
