REMARK  Name = ZINC21603205
REMARK  10 active torsions:
REMARK  status: ('A' for Active; 'I' for Inactive)
REMARK    1  A    between atoms: C_1  and  C_2
REMARK    2  A    between atoms: C_2  and  O_3
REMARK    3  A    between atoms: O_3  and  C_4
REMARK    4  A    between atoms: C_7  and  N_10
REMARK    5  A    between atoms: C_11  and  C_27
REMARK    6  A    between atoms: C_14  and  S_15
REMARK    7  A    between atoms: S_15  and  C_16
REMARK    8  A    between atoms: C_16  and  C_18
REMARK    9  A    between atoms: C_16  and  C_19
REMARK   10  A    between atoms: C_31  and  C_33
REMARK                            x       y       z     vdW  Elec       q    Type
REMARK                         _______ _______ _______ _____ _____    ______ ____
ROOT
ATOM      1  N   UNL     1       3.449   1.731  -2.127  0.00  0.00    -0.270 N 
ATOM      2  C   UNL     1       3.425   1.013  -3.302  0.00  0.00    +0.169 A 
ATOM      3  N   UNL     1       2.192   0.592  -3.470  0.00  0.00    -0.128 NA
ATOM      4  N   UNL     1       1.456   0.986  -2.494  0.00  0.00    -0.122 NA
ATOM      5  C   UNL     1       2.169   1.691  -1.645  0.00  0.00    +0.197 A 
ENDROOT
BRANCH   2   6
ATOM      6  C   UNL     1       4.569   0.763  -4.203  0.00  0.00    +0.020 A 
ATOM      7  C   UNL     1       4.349   0.345  -5.517  0.00  0.00    +0.011 A 
ATOM      8  C   UNL     1       5.422   0.119  -6.354  0.00  0.00    +0.001 A 
ATOM      9  C   UNL     1       6.714   0.294  -5.891  0.00  0.00    +0.003 A 
ATOM     10  C   UNL     1       6.939   0.703  -4.588  0.00  0.00    -0.050 A 
ATOM     11  C   UNL     1       5.875   0.938  -3.742  0.00  0.00    +0.015 A 
ATOM     12  C   UNL     1       8.350   0.890  -4.092  0.00  0.00    +0.044 C 
ENDBRANCH   2   6
BRANCH   1  16
ATOM     13  C   UNL     1       6.737   3.627  -0.397  0.00  0.00    +0.121 A 
ATOM     14  C   UNL     1       6.174   2.518   0.218  0.00  0.00    +0.047 A 
ATOM     15  C   UNL     1       5.086   1.890  -0.354  0.00  0.00    +0.030 A 
ATOM     16  C   UNL     1       4.555   2.368  -1.545  0.00  0.00    +0.051 A 
ATOM     17  C   UNL     1       5.123   3.474  -2.163  0.00  0.00    +0.030 A 
ATOM     18  C   UNL     1       6.208   4.105  -1.587  0.00  0.00    +0.047 A 
BRANCH  13  19
ATOM     19  O   UNL     1       7.809   4.245   0.167  0.00  0.00    -0.492 OA
BRANCH  19  21
ATOM     20  C   UNL     1       9.531   5.939   0.260  0.00  0.00    +0.048 C 
ATOM     21  C   UNL     1       8.338   5.381  -0.520  0.00  0.00    +0.225 C 
ENDBRANCH  19  21
ENDBRANCH  13  19
ENDBRANCH   1  16
BRANCH   5  22
ATOM     22  S   UNL     1       1.588   2.440  -0.160  0.00  0.00    -0.073 S 
BRANCH  22  23
ATOM     23  C   UNL     1      -0.154   1.952  -0.222  0.00  0.00    +0.137 C 
ATOM     24  C   UNL     1      -0.261   0.430  -0.104  0.00  0.00    +0.029 C 
BRANCH  23  25
ATOM     25  C   UNL     1      -0.898   2.598   0.918  0.00  0.00    +0.236 C 
ATOM     26  O   UNL     1      -0.290   3.006   1.884  0.00  0.00    -0.274 OA
ATOM     27  N   UNL     1      -2.239   2.722   0.863  0.00  0.00    -0.224 N 
ATOM     28  C   UNL     1      -3.082   3.325   1.906  0.00  0.00    +0.136 C 
ATOM     29  C   UNL     1      -4.510   3.213   1.337  0.00  0.00    +0.125 C 
ATOM     30  N   UNL     1      -4.321   2.550   0.038  0.00  0.00    -0.297 N 
ATOM     31  C   UNL     1      -3.016   2.311  -0.148  0.00  0.00    +0.309 C 
ATOM     32  O   UNL     1      -2.576   1.770  -1.144  0.00  0.00    -0.252 OA
ATOM     33  H   UNL     1      -5.189   2.333  -0.601  0.00  0.00    +0.150 HD
ENDBRANCH  23  25
ENDBRANCH  22  23
ENDBRANCH   5  22
TORSDOF 7
