REMARK  Name = ZINC64609943
REMARK  6 active torsions:
REMARK  status: ('A' for Active; 'I' for Inactive)
REMARK    1  A    between atoms: C_1  and  C_2
REMARK    2  A    between atoms: C_7  and  C_18
REMARK    3  A    between atoms: C_10  and  C_12
REMARK    4  A    between atoms: C_18  and  N_19
REMARK    5  A    between atoms: C_20  and  C_22
REMARK    6  A    between atoms: C_22  and  C_23
REMARK                            x       y       z     vdW  Elec       q    Type
REMARK                         _______ _______ _______ _____ _____    ______ ____
ROOT
ATOM      1  C   UNL     1      -0.018   1.503   0.010  0.00  0.00    +0.042 C 
ATOM      2  C   UNL     1       0.002  -0.004   0.002  0.00  0.00    -0.037 C 
ATOM      3  C   UNL     1       0.009  -0.811  -1.083  0.00  0.00    +0.001 A 
ATOM      4  C   UNL     1      -0.002  -0.538  -2.525  0.00  0.00    +0.030 A 
ATOM      5  C   UNL     1       0.009  -1.579  -3.390  0.00  0.00    +0.042 A 
ATOM      6  C   UNL     1       0.028  -2.909  -2.944  0.00  0.00    +0.027 A 
ATOM      7  C   UNL     1       0.038  -3.238  -1.635  0.00  0.00    -0.005 A 
ATOM      8  C   UNL     1       0.030  -2.223  -0.638  0.00  0.00    +0.048 A 
ATOM      9  N   UNL     1       0.036  -2.286   0.671  0.00  0.00    -0.373 N 
ATOM     10  C   UNL     1       0.026  -0.920   1.206  0.00  0.00    +0.136 C 
ATOM     11 CL   UNL     1      -0.004  -1.260  -5.097  0.00  0.00    -0.084 Cl
ATOM     12  H   UNL     1       0.049  -3.100   1.199  0.00  0.00    +0.161 HD
ENDROOT
BRANCH  10  13
ATOM     13  C   UNL     1      -1.205  -0.703   2.047  0.00  0.00    -0.021 A 
ATOM     14  C   UNL     1      -2.403  -1.291   1.685  0.00  0.00    +0.006 A 
ATOM     15  C   UNL     1      -3.532  -1.093   2.457  0.00  0.00    +0.000 A 
ATOM     16  C   UNL     1      -3.463  -0.307   3.592  0.00  0.00    +0.000 A 
ATOM     17  C   UNL     1      -2.266   0.280   3.955  0.00  0.00    +0.000 A 
ATOM     18  C   UNL     1      -1.136   0.078   3.185  0.00  0.00    +0.006 A 
ENDBRANCH  10  13
BRANCH   7  19
ATOM     19  C   UNL     1       0.059  -4.688  -1.227  0.00  0.00    +0.141 C 
BRANCH  19  20
ATOM     20  N   UNL     1      -1.295  -5.111  -0.858  0.00  0.00    -0.311 N 
ATOM     21  C   UNL     1      -1.519  -6.378  -0.457  0.00  0.00    +0.215 C 
ATOM     22  O   UNL     1      -0.601  -7.168  -0.402  0.00  0.00    -0.276 OA
ATOM     23  H   UNL     1      -2.029  -4.479  -0.902  0.00  0.00    +0.149 HD
BRANCH  21  24
ATOM     24  C   UNL     1      -2.912  -6.812  -0.077  0.00  0.00    +0.118 C 
BRANCH  24  25
ATOM     25  C   UNL     1      -2.891  -8.285   0.337  0.00  0.00    +0.082 C 
ATOM     26  C   UNL     1      -4.324  -8.775   0.639  0.00  0.00    +0.032 C 
ATOM     27  C   UNL     1      -4.417  -8.553   2.167  0.00  0.00    +0.097 C 
ATOM     28  C   UNL     1      -2.980  -8.597   2.636  0.00  0.00    +0.213 C 
ATOM     29  O   UNL     1      -2.630  -8.743   3.788  0.00  0.00    -0.276 OA
ATOM     30  N   UNL     1      -2.146  -8.450   1.590  0.00  0.00    -0.312 N 
ATOM     31  H   UNL     1      -1.178  -8.453   1.655  0.00  0.00    +0.149 HD
ENDBRANCH  24  25
ENDBRANCH  21  24
ENDBRANCH  19  20
ENDBRANCH   7  19
TORSDOF 5
