REMARK  Name = ZINC39835976
REMARK  7 active torsions:
REMARK  status: ('A' for Active; 'I' for Inactive)
REMARK    1  A    between atoms: C_1  and  C_2
REMARK    2  A    between atoms: C_9  and  O_30
REMARK    3  A    between atoms: C_10  and  C_13
REMARK    4  A    between atoms: N_17  and  C_21
REMARK    5  A    between atoms: C_21  and  C_23
REMARK    6  A    between atoms: C_21  and  C_24
REMARK    7  A    between atoms: O_30  and  C_31
REMARK                            x       y       z     vdW  Elec       q    Type
REMARK                         _______ _______ _______ _____ _____    ______ ____
ROOT
ATOM      1  C   UNL     1       2.250   0.036   1.341  0.00  0.00    +0.047 C 
ATOM      2  C   UNL     1       1.443  -1.157   0.899  0.00  0.00    -0.007 A 
ATOM      3  C   UNL     1       1.367  -1.484  -0.423  0.00  0.00    +0.008 A 
ATOM      4  C   UNL     1       0.612  -2.596  -0.817  0.00  0.00    +0.019 A 
ATOM      5  C   UNL     1      -0.036  -3.339   0.108  0.00  0.00    +0.096 A 
ATOM      6  N   UNL     1       0.034  -3.021   1.432  0.00  0.00    -0.267 N 
ATOM      7  C   UNL     1       0.767  -1.945   1.848  0.00  0.00    +0.147 A 
ATOM      8  N   UNL     1       0.852  -1.622   3.139  0.00  0.00    -0.194 NA
ATOM      9  C   UNL     1       0.237  -2.328   4.074  0.00  0.00    +0.235 A 
ATOM     10  C   UNL     1      -0.531  -3.454   3.705  0.00  0.00    +0.103 A 
ATOM     11  C   UNL     1      -0.625  -3.783   2.331  0.00  0.00    +0.269 A 
ATOM     12  O   UNL     1      -1.277  -4.747   1.968  0.00  0.00    -0.266 OA
ENDROOT
BRANCH  10  13
ATOM     13  C   UNL     1      -1.200  -4.228   4.684  0.00  0.00    +0.039 C 
ATOM     14  C   UNL     1      -2.091  -3.635   5.530  0.00  0.00    +0.077 C 
ATOM     15  C   UNL     1      -2.585  -2.299   5.535  0.00  0.00    +0.259 C 
ATOM     16  O   UNL     1      -2.217  -1.492   4.700  0.00  0.00    -0.269 OA
ATOM     17  N   UNL     1      -3.454  -1.961   6.471  0.00  0.00    -0.248 N 
ATOM     18  C   UNL     1      -3.862  -2.857   7.397  0.00  0.00    +0.121 C 
ATOM     19  S   UNL     1      -4.968  -2.640   8.686  0.00  0.00    -0.027 S 
ATOM     20  S   UNL     1      -2.962  -4.327   6.930  0.00  0.00    -0.061 S 
BRANCH  17  21
ATOM     21  C   UNL     1      -3.982  -0.595   6.506  0.00  0.00    +0.110 C 
ATOM     22  C   UNL     1      -4.029  -0.029   5.085  0.00  0.00    +0.033 C 
BRANCH  21  23
ATOM     23  C   UNL     1      -3.090   0.268   7.361  0.00  0.00    -0.027 A 
ATOM     24  C   UNL     1      -1.717   0.209   7.205  0.00  0.00    +0.005 A 
ATOM     25  C   UNL     1      -0.898   1.000   7.989  0.00  0.00    +0.000 A 
ATOM     26  C   UNL     1      -1.452   1.850   8.928  0.00  0.00    +0.000 A 
ATOM     27  C   UNL     1      -2.824   1.909   9.083  0.00  0.00    +0.000 A 
ATOM     28  C   UNL     1      -3.643   1.122   8.296  0.00  0.00    +0.005 A 
ENDBRANCH  21  23
ENDBRANCH  17  21
ENDBRANCH  10  13
BRANCH   9  29
ATOM     29  O   UNL     1       0.343  -1.973   5.375  0.00  0.00    -0.437 OA
BRANCH  29  30
ATOM     30  C   UNL     1       1.185  -0.954   5.692  0.00  0.00    +0.131 A 
ATOM     31  C   UNL     1       0.799   0.360   5.469  0.00  0.00    +0.049 A 
ATOM     32  C   UNL     1       1.656   1.395   5.791  0.00  0.00    +0.042 A 
ATOM     33  C   UNL     1       2.899   1.121   6.336  0.00  0.00    +0.124 A 
ATOM     34  C   UNL     1       3.285  -0.190   6.559  0.00  0.00    +0.042 A 
ATOM     35  C   UNL     1       2.428  -1.226   6.244  0.00  0.00    +0.049 A 
ATOM     36  F   UNL     1       3.736   2.134   6.651  0.00  0.00    -0.205 F 
ENDBRANCH  29  30
ENDBRANCH   9  29
TORSDOF 5
