REMARK  Name = ZINC12780812
REMARK  14 active torsions:
REMARK  status: ('A' for Active; 'I' for Inactive)
REMARK    1  A    between atoms: C_1  and  C_2
REMARK    2  A    between atoms: C_2  and  C_3
REMARK    3  A    between atoms: C_3  and  N_4
REMARK    4  A    between atoms: N_4  and  C_5
REMARK    5  A    between atoms: N_4  and  C_17
REMARK    6  A    between atoms: C_5  and  C_6
REMARK    7  A    between atoms: C_17  and  C_18
REMARK    8  A    between atoms: N_20  and  C_21
REMARK    9  A    between atoms: C_23  and  O_30
REMARK   10  A    between atoms: C_26  and  O_27
REMARK   11  A    between atoms: O_27  and  C_28
REMARK   12  A    between atoms: C_28  and  C_29
REMARK   13  A    between atoms: O_30  and  C_31
REMARK   14  A    between atoms: C_31  and  C_32
REMARK                            x       y       z     vdW  Elec       q    Type
REMARK                         _______ _______ _______ _____ _____    ______ ____
ROOT
ATOM      1  N   UNL     1       1.010  -3.234  -1.242  0.00  0.00    +0.390 N 
ATOM      2  H   UNL     1       1.292  -3.862  -0.505  0.00  0.00    -0.081 HD
ENDROOT
BRANCH   1   3
ATOM      3  C   UNL     1       1.656  -1.929  -1.049  0.00  0.00    -0.078 C 
BRANCH   3   5
ATOM      4  C   UNL     1       2.112  -0.112   0.604  0.00  0.00    +0.002 C 
ATOM      5  C   UNL     1       1.321  -1.396   0.346  0.00  0.00    -0.022 C 
ENDBRANCH   3   5
ENDBRANCH   1   3
BRANCH   1   6
ATOM      6  C   UNL     1      -0.449  -3.067  -1.212  0.00  0.00    -0.003 C 
BRANCH   6   7
ATOM      7  C   UNL     1      -1.110  -4.421  -1.210  0.00  0.00    +0.094 A 
ATOM      8  N   UNL     1      -2.462  -4.481  -1.335  0.00  0.00    -0.311 N 
ATOM      9  H   UNL     1      -2.982  -3.667  -1.424  0.00  0.00    +0.170 HD
ATOM     10  C   UNL     1      -3.076  -5.688  -1.336  0.00  0.00    +0.266 A 
ATOM     11  O   UNL     1      -4.288  -5.776  -1.447  0.00  0.00    -0.267 OA
ATOM     12  C   UNL     1      -2.284  -6.829  -1.207  0.00  0.00    +0.102 A 
ATOM     13  C   UNL     1      -0.887  -6.740  -1.079  0.00  0.00    +0.085 A 
ATOM     14  N   UNL     1      -0.362  -5.471  -1.095  0.00  0.00    -0.235 NA
ATOM     15  C   UNL     1      -0.213  -7.963  -0.957  0.00  0.00    +0.036 A 
ATOM     16  C   UNL     1      -0.903  -9.123  -0.967  0.00  0.00    +0.048 A 
ATOM     17  S   UNL     1      -2.592  -8.575  -1.153  0.00  0.00    -0.090 S 
ENDBRANCH   6   7
ENDBRANCH   1   6
BRANCH   1  18
ATOM     18  C   UNL     1       1.412  -3.792  -2.541  0.00  0.00    +0.019 C 
BRANCH  18  19
ATOM     19  C   UNL     1       2.892  -4.078  -2.528  0.00  0.00    +0.201 C 
ATOM     20  O   UNL     1       3.547  -3.841  -1.535  0.00  0.00    -0.278 OA
ATOM     21  N   UNL     1       3.487  -4.598  -3.619  0.00  0.00    -0.284 N 
ATOM     22  H   UNL     1       2.980  -4.716  -4.438  0.00  0.00    +0.155 HD
BRANCH  21  23
ATOM     23  C   UNL     1       4.838  -4.967  -3.572  0.00  0.00    +0.079 A 
ATOM     24  C   UNL     1       5.437  -5.253  -2.354  0.00  0.00    +0.072 A 
ATOM     25  C   UNL     1       6.774  -5.618  -2.311  0.00  0.00    +0.122 A 
ATOM     26  C   UNL     1       7.511  -5.697  -3.483  0.00  0.00    +0.049 A 
ATOM     27  C   UNL     1       6.916  -5.412  -4.697  0.00  0.00    +0.051 A 
ATOM     28  C   UNL     1       5.579  -5.052  -4.748  0.00  0.00    +0.142 A 
BRANCH  28  29
ATOM     29  O   UNL     1       4.993  -4.777  -5.944  0.00  0.00    -0.490 OA
BRANCH  29  30
ATOM     30  C   UNL     1       5.813  -4.885  -7.109  0.00  0.00    +0.226 C 
ATOM     31  C   UNL     1       4.986  -4.541  -8.349  0.00  0.00    +0.048 C 
ENDBRANCH  29  30
ENDBRANCH  28  29
BRANCH  25  32
ATOM     32  O   UNL     1       7.363  -5.899  -1.117  0.00  0.00    -0.492 OA
BRANCH  32  33
ATOM     33  C   UNL     1       8.743  -6.268  -1.146  0.00  0.00    +0.225 C 
ATOM     34  C   UNL     1       9.227  -6.544   0.279  0.00  0.00    +0.048 C 
ENDBRANCH  32  33
ENDBRANCH  25  32
ENDBRANCH  21  23
ENDBRANCH  18  19
ENDBRANCH   1  18
TORSDOF 11
