REMARK  Name = ZINC15052222
REMARK  6 active torsions:
REMARK  status: ('A' for Active; 'I' for Inactive)
REMARK    1  A    between atoms: C_3  and  C_28
REMARK    2  A    between atoms: C_5  and  N_7
REMARK    3  A    between atoms: C_8  and  C_10
REMARK    4  A    between atoms: C_10  and  N_11
REMARK    5  A    between atoms: C_15  and  C_16
REMARK    6  A    between atoms: C_19  and  N_22
REMARK                            x       y       z     vdW  Elec       q    Type
REMARK                         _______ _______ _______ _____ _____    ______ ____
ROOT
ATOM      1  N   UNL     1      -1.246  -4.801   0.298  0.00  0.00    -0.212 N 
ATOM      2  C   UNL     1      -1.901  -5.022   1.455  0.00  0.00    +0.269 C 
ATOM      3  O   UNL     1      -1.469  -4.866   2.582  0.00  0.00    -0.268 OA
ATOM      4  C   UNL     1      -3.247  -5.490   1.080  0.00  0.00    +0.098 C 
ATOM      5  C   UNL     1      -4.260  -5.836   1.912  0.00  0.00    +0.036 C 
ATOM      6  N   UNL     1      -3.255  -5.500  -0.320  0.00  0.00    -0.265 N 
ATOM      7  C   UNL     1      -2.049  -5.078  -0.741  0.00  0.00    +0.314 C 
ATOM      8  O   UNL     1      -1.728  -4.966  -1.908  0.00  0.00    -0.252 OA
ATOM      9  H   UNL     1      -3.998  -5.760  -0.886  0.00  0.00    +0.157 HD
ENDROOT
BRANCH   5  10
ATOM     10  C   UNL     1      -5.481  -6.448   1.368  0.00  0.00    -0.023 A 
ATOM     11  C   UNL     1      -5.436  -7.157   0.163  0.00  0.00    +0.010 A 
ATOM     12  C   UNL     1      -6.585  -7.728  -0.340  0.00  0.00    +0.033 A 
ATOM     13  C   UNL     1      -7.782  -7.601   0.344  0.00  0.00    +0.126 A 
ATOM     14  C   UNL     1      -7.835  -6.900   1.536  0.00  0.00    +0.033 A 
ATOM     15  C   UNL     1      -6.694  -6.328   2.055  0.00  0.00    +0.010 A 
BRANCH  13  16
ATOM     16  N   UNL     1      -9.012  -8.217  -0.204  0.00  0.00    +0.056 N 
ATOM     17  O   UNL     1      -8.969  -8.829  -1.246  0.00  0.00    -0.126 OA
ATOM     18  O   UNL     1     -10.059  -8.108   0.390  0.00  0.00    -0.126 OA
ENDBRANCH  13  16
ENDBRANCH   5  10
BRANCH   1  19
ATOM     19  C   UNL     1       0.135  -4.323   0.190  0.00  0.00    +0.214 C 
BRANCH  19  21
ATOM     20  N   UNL     1       1.313  -2.152   0.056  0.00  0.00    -0.284 N 
ATOM     21  C   UNL     1       0.144  -2.817   0.153  0.00  0.00    +0.235 C 
ATOM     22  O   UNL     1      -0.900  -2.202   0.211  0.00  0.00    -0.274 OA
ATOM     23  H   UNL     1       2.141  -2.642  -0.066  0.00  0.00    +0.155 HD
BRANCH  20  28
ATOM     24  C   UNL     1       2.358   1.341  -0.418  0.00  0.00    +0.002 A 
ATOM     25  C   UNL     1       1.368   2.008   0.281  0.00  0.00    +0.012 A 
ATOM     26  C   UNL     1       0.360   1.296   0.905  0.00  0.00    +0.057 A 
ATOM     27  C   UNL     1       0.339  -0.083   0.833  0.00  0.00    +0.035 A 
ATOM     28  C   UNL     1       1.331  -0.755   0.131  0.00  0.00    +0.034 A 
ATOM     29  C   UNL     1       2.342  -0.038  -0.495  0.00  0.00    +0.023 A 
BRANCH  26  30
ATOM     30  C   UNL     1      -0.716   2.027   1.667  0.00  0.00    +0.417 C 
ATOM     31  F   UNL     1      -0.482   3.405   1.599  0.00  0.00    -0.166 F 
ATOM     32  F   UNL     1      -1.964   1.737   1.104  0.00  0.00    -0.166 F 
ATOM     33  F   UNL     1      -0.701   1.617   3.004  0.00  0.00    -0.166 F 
ENDBRANCH  26  30
ENDBRANCH  20  28
ENDBRANCH  19  21
ENDBRANCH   1  19
TORSDOF 6
