REMARK  Name = ZINC43609856
REMARK  5 active torsions:
REMARK  status: ('A' for Active; 'I' for Inactive)
REMARK    1  A    between atoms: C_3  and  C_11
REMARK    2  A    between atoms: C_5  and  C_7
REMARK    3  A    between atoms: C_11  and  N_12
REMARK    4  A    between atoms: N_17  and  C_25
REMARK    5  A    between atoms: C_25  and  C_26
REMARK                            x       y       z     vdW  Elec       q    Type
REMARK                         _______ _______ _______ _____ _____    ______ ____
ROOT
ATOM      1  N   UNL     1       3.798   2.784   1.671  0.00  0.00    -0.294 N 
ATOM      2  C   UNL     1       3.667   4.025   2.419  0.00  0.00    +0.076 C 
ATOM      3  C   UNL     1       3.733   5.228   1.479  0.00  0.00    +0.004 C 
ATOM      4  C   UNL     1       5.138   5.338   0.884  0.00  0.00    -0.077 C 
ATOM      5  N   UNL     1       6.114   5.504   1.968  0.00  0.00    +0.383 N 
ATOM      6  C   UNL     1       6.120   4.304   2.813  0.00  0.00    -0.073 C 
ATOM      7  C   UNL     1       4.770   4.145   3.470  0.00  0.00    -0.007 C 
ATOM      8  C   UNL     1       4.803   2.848   4.290  0.00  0.00    +0.013 C 
ATOM      9  C   UNL     1       5.273   1.712   3.379  0.00  0.00    +0.096 C 
ATOM     10  C   UNL     1       4.476   1.720   2.105  0.00  0.00    +0.216 C 
ATOM     11  O   UNL     1       4.479   0.721   1.418  0.00  0.00    -0.276 OA
ATOM     12  H   UNL     1       5.864   6.306   2.526  0.00  0.00    -0.081 HD
ENDROOT
BRANCH   1  13
ATOM     13  C   UNL     1       3.140   2.695   0.365  0.00  0.00    +0.143 C 
BRANCH  13  16
ATOM     14  C   UNL     1      -0.592   2.909   0.890  0.00  0.00    +0.001 A 
ATOM     15  C   UNL     1       0.730   3.272   0.717  0.00  0.00    +0.005 A 
ATOM     16  C   UNL     1       1.699   2.299   0.554  0.00  0.00    -0.030 A 
ATOM     17  C   UNL     1       1.345   0.963   0.564  0.00  0.00    +0.017 A 
ATOM     18  C   UNL     1       0.022   0.600   0.738  0.00  0.00    +0.055 A 
ATOM     19  C   UNL     1      -0.946   1.573   0.899  0.00  0.00    +0.012 A 
BRANCH  18  20
ATOM     20  C   UNL     1      -0.364  -0.857   0.748  0.00  0.00    +0.417 C 
ATOM     21  F   UNL     1      -0.301  -1.347   2.057  0.00  0.00    -0.166 F 
ATOM     22  F   UNL     1      -1.667  -0.998   0.260  0.00  0.00    -0.166 F 
ATOM     23  F   UNL     1       0.519  -1.579  -0.063  0.00  0.00    -0.166 F 
ENDBRANCH  18  20
ENDBRANCH  13  16
ENDBRANCH   1  13
BRANCH   5  24
ATOM     24  C   UNL     1       7.452   5.705   1.396  0.00  0.00    -0.041 C 
BRANCH  24  25
ATOM     25  C   UNL     1       7.486   7.013   0.648  0.00  0.00    -0.042 A 
ATOM     26  C   UNL     1       7.453   7.019  -0.735  0.00  0.00    +0.052 A 
ATOM     27  C   UNL     1       7.484   8.219  -1.424  0.00  0.00    +0.167 A 
ATOM     28  C   UNL     1       7.548   9.421  -0.722  0.00  0.00    +0.168 A 
ATOM     29  C   UNL     1       7.581   9.409   0.662  0.00  0.00    +0.069 A 
ATOM     30  C   UNL     1       7.545   8.206   1.345  0.00  0.00    +0.046 A 
ATOM     31 CL   UNL     1       7.579   8.194   3.081  0.00  0.00    -0.083 Cl
ATOM     32  O   UNL     1       7.568  10.449  -1.619  0.00  0.00    -0.453 OA
ATOM     33  C   UNL     1       7.927   9.854  -2.880  0.00  0.00    +0.466 C 
ATOM     34  O   UNL     1       7.463   8.496  -2.761  0.00  0.00    -0.453 OA
ENDBRANCH  24  25
ENDBRANCH   5  24
TORSDOF 5
