REMARK  Name = ZINC22022327
REMARK  4 active torsions:
REMARK  status: ('A' for Active; 'I' for Inactive)
REMARK    1  A    between atoms: C_1  and  C_2
REMARK    2  A    between atoms: C_15  and  C_17
REMARK    3  A    between atoms: C_17  and  S_18
REMARK    4  A    between atoms: S_18  and  C_19
REMARK                            x       y       z     vdW  Elec       q    Type
REMARK                         _______ _______ _______ _____ _____    ______ ____
ROOT
ATOM      1  C   UNL     1      -1.373  -0.533   0.414  0.00  0.00    +0.029 C 
ATOM      2  C   UNL     1       0.002  -0.004   0.002  0.00  0.00    +0.087 C 
ATOM      3  C   UNL     1      -0.019   1.526   0.010  0.00  0.00    +0.118 C 
ATOM      4  C   UNL     1       1.388   2.063  -0.000  0.00  0.00    +0.219 C 
ATOM      5  O   UNL     1       1.846   2.531  -1.021  0.00  0.00    -0.275 OA
ATOM      6  N   UNL     1       2.144   2.027   1.119  0.00  0.00    -0.284 N 
ATOM      7  C   UNL     1       1.666   1.410   2.281  0.00  0.00    +0.055 A 
ATOM      8  C   UNL     1       1.742   2.047   3.509  0.00  0.00    +0.025 A 
ATOM      9  C   UNL     1       1.300   1.399   4.648  0.00  0.00    +0.002 A 
ATOM     10  C   UNL     1       0.781   0.120   4.564  0.00  0.00    +0.002 A 
ATOM     11  C   UNL     1       0.690  -0.517   3.341  0.00  0.00    +0.025 A 
ATOM     12  C   UNL     1       1.122   0.128   2.193  0.00  0.00    +0.058 A 
ATOM     13  N   UNL     1       1.013  -0.492   0.942  0.00  0.00    -0.266 N 
ATOM     14  C   UNL     1       1.821  -1.518   0.610  0.00  0.00    +0.230 C 
ATOM     15  O   UNL     1       1.716  -2.046  -0.477  0.00  0.00    -0.274 OA
ATOM     16  H   UNL     1       3.144   2.485   1.123  0.00  0.00    +0.155 HD
ENDROOT
BRANCH  14  17
ATOM     17  C   UNL     1       2.857  -2.008   1.589  0.00  0.00    +0.172 C 
BRANCH  17  18
ATOM     18  S   UNL     1       3.777  -3.383   0.855  0.00  0.00    -0.090 S 
BRANCH  18  19
ATOM     19  C   UNL     1       4.885  -3.749   2.175  0.00  0.00    +0.132 C 
ATOM     20  N   UNL     1       4.834  -3.045   3.272  0.00  0.00    -0.234 NA
ATOM     21  C   UNL     1       5.625  -3.245   4.362  0.00  0.00    +0.070 A 
ATOM     22  C   UNL     1       5.161  -2.794   5.608  0.00  0.00    +0.028 A 
ATOM     23  C   UNL     1       5.932  -2.959   6.736  0.00  0.00    +0.002 A 
ATOM     24  C   UNL     1       7.171  -3.569   6.648  0.00  0.00    +0.000 A 
ATOM     25  C   UNL     1       7.636  -4.018   5.426  0.00  0.00    +0.006 A 
ATOM     26  C   UNL     1       6.870  -3.862   4.285  0.00  0.00    -0.012 A 
ATOM     27  C   UNL     1       7.413  -4.371   2.974  0.00  0.00    +0.113 C 
ATOM     28  S   UNL     1       6.053  -5.055   1.994  0.00  0.00    -0.094 S 
ENDBRANCH  18  19
ENDBRANCH  17  18
ENDBRANCH  14  17
TORSDOF 3
