REMARK  Name = ZINC15087361
REMARK  7 active torsions:
REMARK  status: ('A' for Active; 'I' for Inactive)
REMARK    1  A    between atoms: C_1  and  C_2
REMARK    2  A    between atoms: C_2  and  O_3
REMARK    3  A    between atoms: O_3  and  C_4
REMARK    4  A    between atoms: C_4  and  C_6
REMARK    5  A    between atoms: C_6  and  N_7
REMARK    6  A    between atoms: C_13  and  C_32
REMARK    7  A    between atoms: N_22  and  C_25
REMARK                            x       y       z     vdW  Elec       q    Type
REMARK                         _______ _______ _______ _____ _____    ______ ____
ROOT
ATOM      1  N   UNL     1       1.422  -3.789   2.463  0.00  0.00    -0.286 N 
ATOM      2  C   UNL     1       0.407  -4.523   3.025  0.00  0.00    +0.091 A 
ATOM      3  C   UNL     1       0.521  -5.861   2.878  0.00  0.00    +0.033 A 
ATOM      4  S   UNL     1       2.026  -6.040   1.957  0.00  0.00    -0.030 S 
ATOM      5  C   UNL     1       2.425  -4.412   1.816  0.00  0.00    +0.292 A 
ATOM      6  O   UNL     1       3.392  -3.917   1.264  0.00  0.00    -0.259 OA
ATOM      7  C   UNL     1      -0.381  -6.956   3.373  0.00  0.00    +0.072 C 
ATOM      8  C   UNL     1      -1.218  -6.412   4.504  0.00  0.00    +0.110 C 
ATOM      9  C   UNL     1      -2.088  -5.239   3.961  0.00  0.00    +0.152 C 
ATOM     10  S   UNL     1      -0.986  -3.804   3.883  0.00  0.00    -0.093 S 
ATOM     11  C   UNL     1      -3.132  -5.173   5.042  0.00  0.00    +0.240 C 
ATOM     12  O   UNL     1      -3.736  -4.189   5.410  0.00  0.00    -0.274 OA
ATOM     13  N   UNL     1      -3.261  -6.436   5.522  0.00  0.00    -0.209 N 
ATOM     14  C   UNL     1      -2.291  -7.269   5.098  0.00  0.00    +0.232 C 
ATOM     15  O   UNL     1      -2.288  -8.478   5.194  0.00  0.00    -0.274 OA
ENDROOT
BRANCH  13  16
ATOM     16  C   UNL     1      -4.313  -6.835   6.360  0.00  0.00    +0.044 A 
ATOM     17  C   UNL     1      -4.378  -8.144   6.818  0.00  0.00    +0.027 A 
ATOM     18  C   UNL     1      -5.415  -8.535   7.643  0.00  0.00    +0.040 A 
ATOM     19  C   UNL     1      -6.388  -7.623   8.014  0.00  0.00    +0.124 A 
ATOM     20  C   UNL     1      -6.325  -6.317   7.557  0.00  0.00    +0.040 A 
ATOM     21  C   UNL     1      -5.287  -5.921   6.737  0.00  0.00    +0.027 A 
ATOM     22  F   UNL     1      -7.401  -8.007   8.820  0.00  0.00    -0.205 F 
ENDBRANCH  13  16
BRANCH   7  23
ATOM     23  C   UNL     1      -1.277  -7.420   2.253  0.00  0.00    -0.039 A 
ATOM     24  C   UNL     1      -1.707  -6.521   1.295  0.00  0.00    +0.004 A 
ATOM     25  C   UNL     1      -2.528  -6.946   0.268  0.00  0.00    +0.000 A 
ATOM     26  C   UNL     1      -2.919  -8.270   0.199  0.00  0.00    +0.000 A 
ATOM     27  C   UNL     1      -2.488  -9.169   1.156  0.00  0.00    +0.000 A 
ATOM     28  C   UNL     1      -1.664  -8.745   2.181  0.00  0.00    +0.004 A 
ENDBRANCH   7  23
BRANCH   1  29
ATOM     29  C   UNL     1       1.411  -2.327   2.562  0.00  0.00    +0.246 C 
BRANCH  29  30
ATOM     30  C   UNL     1       0.673  -1.750   1.382  0.00  0.00    +0.327 C 
ATOM     31  O   UNL     1       0.204  -2.483   0.544  0.00  0.00    -0.249 OA
BRANCH  30  32
ATOM     32  O   UNL     1       0.536  -0.420   1.261  0.00  0.00    -0.464 OA
BRANCH  32  34
ATOM     33  C   UNL     1      -0.228   1.587   0.152  0.00  0.00    +0.048 C 
ATOM     34  C   UNL     1      -0.175   0.058   0.118  0.00  0.00    +0.229 C 
ENDBRANCH  32  34
ENDBRANCH  30  32
ENDBRANCH  29  30
ENDBRANCH   1  29
TORSDOF 6
