REMARK  Name = ZINC60429560
REMARK  9 active torsions:
REMARK  status: ('A' for Active; 'I' for Inactive)
REMARK    1  A    between atoms: C_1  and  C_2
REMARK    2  A    between atoms: C_2  and  C_3
REMARK    3  A    between atoms: C_3  and  C_4
REMARK    4  A    between atoms: C_4  and  C_26
REMARK    5  A    between atoms: N_7  and  C_11
REMARK    6  A    between atoms: C_11  and  C_12
REMARK    7  A    between atoms: N_17  and  C_18
REMARK    8  A    between atoms: C_21  and  C_25
REMARK    9  A    between atoms: C_23  and  C_24
REMARK                            x       y       z     vdW  Elec       q    Type
REMARK                         _______ _______ _______ _____ _____    ______ ____
ROOT
ATOM      1  C   UNL     1      -4.628  -3.095  -2.880  0.00  0.00    +0.238 C 
ATOM      2  O   UNL     1      -4.237  -1.959  -3.040  0.00  0.00    -0.274 OA
ATOM      3  N   UNL     1      -5.713  -3.535  -3.547  0.00  0.00    -0.239 N 
ATOM      4  C   UNL     1      -6.364  -2.712  -4.393  0.00  0.00    +0.310 C 
ATOM      5  O   UNL     1      -5.972  -1.573  -4.554  0.00  0.00    -0.252 OA
ATOM      6  N   UNL     1      -7.449  -3.152  -5.061  0.00  0.00    -0.269 N 
ATOM      7  H   UNL     1      -6.026  -4.444  -3.419  0.00  0.00    +0.159 HD
ATOM      8  H   UNL     1      -7.713  -4.083  -4.996  0.00  0.00    +0.156 HD
ENDROOT
BRANCH   6   9
ATOM      9  C   UNL     1      -8.193  -2.266  -5.847  0.00  0.00    +0.038 A 
ATOM     10  C   UNL     1      -8.174  -0.905  -5.571  0.00  0.00    +0.024 A 
ATOM     11  C   UNL     1      -8.909  -0.033  -6.349  0.00  0.00    +0.005 A 
ATOM     12  C   UNL     1      -9.665  -0.514  -7.402  0.00  0.00    -0.050 A 
ATOM     13  C   UNL     1      -9.687  -1.868  -7.680  0.00  0.00    +0.008 A 
ATOM     14  C   UNL     1      -8.948  -2.745  -6.910  0.00  0.00    -0.029 A 
ATOM     15  C   UNL     1      -8.967  -4.220  -7.217  0.00  0.00    +0.045 C 
ATOM     16  C   UNL     1     -10.468   0.440  -8.249  0.00  0.00    +0.044 C 
ENDBRANCH   6   9
BRANCH   1  17
ATOM     17  C   UNL     1      -3.901  -4.016  -1.934  0.00  0.00    +0.214 C 
BRANCH  17  21
ATOM     18  C   UNL     1      -1.437  -2.049   0.030  0.00  0.00    +0.110 C 
ATOM     19  C   UNL     1      -2.833  -2.597  -0.194  0.00  0.00    +0.247 C 
ATOM     20  O   UNL     1      -3.806  -2.431   0.509  0.00  0.00    -0.273 OA
ATOM     21  N   UNL     1      -2.766  -3.306  -1.338  0.00  0.00    -0.215 N 
ATOM     22  C   UNL     1      -1.535  -3.283  -1.862  0.00  0.00    +0.310 C 
ATOM     23  O   UNL     1      -1.228  -3.851  -2.892  0.00  0.00    -0.252 OA
ATOM     24  N   UNL     1      -0.674  -2.562  -1.121  0.00  0.00    -0.285 N 
ATOM     25  C   UNL     1      -0.852  -2.578   1.342  0.00  0.00    +0.041 C 
ATOM     26  H   UNL     1       0.265  -2.409  -1.308  0.00  0.00    +0.151 HD
BRANCH  18  27
ATOM     27  C   UNL     1      -1.452  -0.519   0.028  0.00  0.00    +0.035 C 
BRANCH  27  29
ATOM     28  C   UNL     1      -0.030   1.535   0.019  0.00  0.00    +0.004 C 
ATOM     29  C   UNL     1      -0.015   0.005   0.022  0.00  0.00    -0.001 C 
ENDBRANCH  27  29
ENDBRANCH  18  27
ENDBRANCH  17  21
ENDBRANCH   1  17
TORSDOF 5
