REMARK  Name = ZINC32101309
REMARK  2 active torsions:
REMARK  status: ('A' for Active; 'I' for Inactive)
REMARK    1  A    between atoms: C_3  and  C_6
REMARK    2  A    between atoms: C_6  and  C_8
REMARK                            x       y       z     vdW  Elec       q    Type
REMARK                         _______ _______ _______ _____ _____    ______ ____
ROOT
ATOM      1  C   UNL     1      -1.943   5.554   0.162  0.00  0.00    +0.023 A 
ATOM      2  C   UNL     1      -0.619   6.002   0.152  0.00  0.00    +0.013 A 
ATOM      3  C   UNL     1      -0.351   7.346   0.262  0.00  0.00    +0.024 A 
ATOM      4  C   UNL     1      -1.395   8.262   0.382  0.00  0.00    +0.030 A 
ATOM      5  C   UNL     1      -2.714   7.824   0.389  0.00  0.00    -0.026 A 
ATOM      6  C   UNL     1      -2.987   6.475   0.276  0.00  0.00    +0.017 A 
ATOM      7  C   UNL     1      -3.863   8.789   0.511  0.00  0.00    +0.038 C 
ATOM      8  C   UNL     1      -3.389  10.112   1.113  0.00  0.00    +0.023 C 
ATOM      9  C   UNL     1      -2.168  10.604   0.326  0.00  0.00    +0.102 C 
ATOM     10  N   UNL     1      -1.093   9.617   0.499  0.00  0.00    -0.344 N 
ATOM     11  H   UNL     1      -0.069   9.953   0.718  0.00  0.00    +0.146 HD
ENDROOT
BRANCH   1  12
ATOM     12  C   UNL     1      -2.239   4.113   0.045  0.00  0.00    +0.200 C 
ATOM     13  O   UNL     1      -3.377   3.710   0.202  0.00  0.00    -0.286 OA
BRANCH  12  16
ATOM     14  C   UNL     1      -0.029   1.131  -0.594  0.00  0.00    +0.008 A 
ATOM     15  C   UNL     1      -1.195   1.780  -0.274  0.00  0.00    +0.019 A 
ATOM     16  C   UNL     1      -1.162   3.167  -0.259  0.00  0.00    +0.059 A 
ATOM     17  S   UNL     1       0.531   3.499  -0.715  0.00  0.00    -0.093 S 
ATOM     18  C   UNL     1       1.079   1.863  -0.885  0.00  0.00    +0.046 A 
ENDBRANCH  12  16
ENDBRANCH   1  12
TORSDOF 2
