REMARK  Name = ZINC36141103
REMARK  6 active torsions:
REMARK  status: ('A' for Active; 'I' for Inactive)
REMARK    1  A    between atoms: C_1  and  C_2
REMARK    2  A    between atoms: C_2  and  O_3
REMARK    3  A    between atoms: O_3  and  C_4
REMARK    4  A    between atoms: C_8  and  O_10
REMARK    5  A    between atoms: O_10  and  C_11
REMARK    6  A    between atoms: C_11  and  C_12
REMARK                            x       y       z     vdW  Elec       q    Type
REMARK                         _______ _______ _______ _____ _____    ______ ____
ROOT
ATOM      1  C   UNL     1       0.777  -1.808  -1.336  0.00  0.00    +0.127 A 
ATOM      2  C   UNL     1       1.421  -2.317  -2.456  0.00  0.00    +0.092 A 
ATOM      3  C   UNL     1       1.536  -3.684  -2.633  0.00  0.00    +0.139 A 
ATOM      4  C   UNL     1       0.998  -4.551  -1.664  0.00  0.00    +0.101 A 
ATOM      5  C   UNL     1       0.344  -4.031  -0.535  0.00  0.00    +0.138 A 
ATOM      6  C   UNL     1       0.244  -2.660  -0.377  0.00  0.00    +0.092 A 
ATOM      7  C   UNL     1       1.134  -6.001  -1.845  0.00  0.00    +0.174 C 
ATOM      8  O   UNL     1       0.896  -6.781  -0.947  0.00  0.00    -0.292 OA
ATOM      9  C   UNL     1       1.586  -6.474  -3.216  0.00  0.00    +0.125 C 
ATOM     10  C   UNL     1       2.663  -5.501  -3.700  0.00  0.00    +0.101 C 
ATOM     11  O   UNL     1       2.159  -4.172  -3.732  0.00  0.00    -0.486 OA
ATOM     12  C   UNL     1       3.153  -5.919  -5.100  0.00  0.00    +0.027 C 
ATOM     13  C   UNL     1       4.681  -5.667  -5.019  0.00  0.00    -0.079 C 
ATOM     14  N   UNL     1       5.019  -6.063  -3.628  0.00  0.00    +0.382 N 
ATOM     15  C   UNL     1       3.896  -5.587  -2.789  0.00  0.00    -0.034 C 
ATOM     16  H   UNL     1       5.101  -7.066  -3.562  0.00  0.00    -0.086 HD
ATOM     17  H   UNL     1       5.880  -5.622  -3.341  0.00  0.00    -0.086 HD
ENDROOT
BRANCH   1  18
ATOM     18  O   UNL     1       0.671  -0.465  -1.174  0.00  0.00    -0.492 OA
BRANCH  18  20
ATOM     19  C   UNL     1      -0.019   1.526   0.010  0.00  0.00    +0.048 C 
ATOM     20  C   UNL     1       0.002  -0.004   0.002  0.00  0.00    +0.225 C 
ENDBRANCH  18  20
ENDBRANCH   1  18
BRANCH   5  21
ATOM     21  O   UNL     1      -0.181  -4.866   0.395  0.00  0.00    -0.491 OA
BRANCH  21  22
ATOM     22  C   UNL     1      -0.832  -4.263   1.515  0.00  0.00    +0.226 C 
ATOM     23  C   UNL     1      -1.356  -5.355   2.449  0.00  0.00    +0.048 C 
ENDBRANCH  21  22
ENDBRANCH   5  21
TORSDOF 4
