REMARK  Name = ZINC55843559
REMARK  8 active torsions:
REMARK  status: ('A' for Active; 'I' for Inactive)
REMARK    1  A    between atoms: C_1  and  C_2
REMARK    2  A    between atoms: C_2  and  C_3
REMARK    3  A    between atoms: C_2  and  O_4
REMARK    4  A    between atoms: O_4  and  C_5
REMARK    5  A    between atoms: C_10  and  N_11
REMARK    6  A    between atoms: N_11  and  C_12
REMARK    7  A    between atoms: C_12  and  C_13
REMARK    8  A    between atoms: N_15  and  N_16
REMARK                            x       y       z     vdW  Elec       q    Type
REMARK                         _______ _______ _______ _____ _____    ______ ____
ROOT
ATOM      1  C   UNL     1      -6.259  -1.026   0.392  0.00  0.00    +0.247 C 
ATOM      2  O   UNL     1      -5.834  -0.044   0.962  0.00  0.00    -0.273 OA
ATOM      3  N   UNL     1      -7.579  -1.297   0.410  0.00  0.00    -0.222 N 
ATOM      4  H   UNL     1      -7.919  -2.083  -0.046  0.00  0.00    +0.174 HD
ENDROOT
BRANCH   3   5
ATOM      5  N   UNL     1      -8.460  -0.444   1.087  0.00  0.00    -0.137 N 
ATOM      6  C   UNL     1      -9.023  -0.728   2.280  0.00  0.00    +0.263 C 
ATOM      7  O   UNL     1      -8.870  -1.731   2.944  0.00  0.00    -0.271 OA
ATOM      8  C   UNL     1      -9.886   0.467   2.614  0.00  0.00    +0.114 C 
ATOM      9  C   UNL     1      -9.407   1.125   3.904  0.00  0.00    +0.035 C 
ATOM     10  C   UNL     1     -10.273   2.349   4.207  0.00  0.00    +0.003 C 
ATOM     11  C   UNL     1     -11.734   1.917   4.348  0.00  0.00    +0.000 C 
ATOM     12  C   UNL     1     -12.207   1.281   3.039  0.00  0.00    +0.003 C 
ATOM     13  C   UNL     1     -11.348   0.052   2.731  0.00  0.00    +0.035 C 
ATOM     14  N   UNL     1      -9.697   1.373   1.474  0.00  0.00    -0.284 N 
ATOM     15  C   UNL     1      -8.843   0.756   0.635  0.00  0.00    +0.326 C 
ATOM     16  O   UNL     1      -8.465   1.234  -0.417  0.00  0.00    -0.251 OA
ATOM     17  H   UNL     1     -10.105   2.244   1.351  0.00  0.00    +0.151 HD
ENDBRANCH   3   5
BRANCH   1  18
ATOM     18  C   UNL     1      -5.311  -1.943  -0.337  0.00  0.00    +0.199 C 
BRANCH  18  19
ATOM     19  N   UNL     1      -3.944  -1.434  -0.209  0.00  0.00    -0.333 N 
ATOM     20  H   UNL     1      -3.774  -0.620   0.290  0.00  0.00    +0.147 HD
BRANCH  19  26
ATOM     21  C   UNL     1      -1.580  -1.640  -0.687  0.00  0.00    +0.142 A 
ATOM     22  C   UNL     1      -0.533  -2.329  -1.276  0.00  0.00    +0.047 A 
ATOM     23  C   UNL     1      -0.780  -3.489  -1.987  0.00  0.00    +0.004 A 
ATOM     24  C   UNL     1      -2.072  -3.965  -2.112  0.00  0.00    +0.002 A 
ATOM     25  C   UNL     1      -3.123  -3.284  -1.527  0.00  0.00    +0.026 A 
ATOM     26  C   UNL     1      -2.882  -2.122  -0.808  0.00  0.00    +0.070 A 
BRANCH  21  27
ATOM     27  O   UNL     1      -1.339  -0.499   0.012  0.00  0.00    -0.488 OA
BRANCH  27  29
ATOM     28  C   UNL     1      -0.011   1.505   0.263  0.00  0.00    +0.051 C 
ATOM     29  C   UNL     1       0.001  -0.002  -0.000  0.00  0.00    +0.167 C 
ATOM     30  C   UNL     1       0.815  -0.703   1.089  0.00  0.00    +0.051 C 
ENDBRANCH  27  29
ENDBRANCH  21  27
ENDBRANCH  19  26
ENDBRANCH  18  19
ENDBRANCH   1  18
TORSDOF 6
