REMARK  Name = ZINC04032981
REMARK  5 active torsions:
REMARK  status: ('A' for Active; 'I' for Inactive)
REMARK    1  A    between atoms: C_1  and  C_2
REMARK    2  A    between atoms: C_8  and  C_10
REMARK    3  A    between atoms: C_11  and  C_27
REMARK    4  A    between atoms: C_14  and  C_18
REMARK    5  A    between atoms: C_22  and  N_24
REMARK                            x       y       z     vdW  Elec       q    Type
REMARK                         _______ _______ _______ _____ _____    ______ ____
ROOT
ATOM      1  C   UNL     1      -0.553   9.786   0.064  0.00  0.00    +0.097 A 
ATOM      2  C   UNL     1      -1.327   8.676   0.065  0.00  0.00    +0.041 A 
ATOM      3  N   UNL     1      -0.758   7.434   0.052  0.00  0.00    -0.296 N 
ATOM      4  C   UNL     1      -1.177   6.107   0.042  0.00  0.00    +0.121 A 
ATOM      5  C   UNL     1      -0.070   5.327   0.033  0.00  0.00    +0.090 A 
ATOM      6  N   UNL     1       1.012   6.134   0.027  0.00  0.00    -0.221 NA
ATOM      7  C   UNL     1       0.615   7.372   0.038  0.00  0.00    +0.179 A 
ATOM      8  S   UNL     1       1.090   9.085   0.044  0.00  0.00    -0.044 S 
ATOM      9  C   UNL     1      -2.827   8.810   0.080  0.00  0.00    +0.065 C 
ENDROOT
BRANCH   1  17
ATOM     10  C   UNL     1       0.697  17.015   0.094  0.00  0.00    +0.066 C 
ATOM     11  C   UNL     1      -0.178  15.788   0.096  0.00  0.00    +0.047 A 
ATOM     12  C   UNL     1      -1.529  15.900   0.111  0.00  0.00    +0.071 A 
ATOM     13  S   UNL     1      -2.005  14.177   0.106  0.00  0.00    -0.060 S 
ATOM     14  C   UNL     1      -0.405  13.502   0.085  0.00  0.00    +0.165 A 
ATOM     15  N   UNL     1       0.353  14.581   0.089  0.00  0.00    -0.230 NA
ATOM     16  N   UNL     1      -0.022  12.167   0.073  0.00  0.00    -0.260 N 
ATOM     17  C   UNL     1      -0.958  11.197   0.076  0.00  0.00    +0.258 C 
ATOM     18  O   UNL     1      -2.139  11.491   0.090  0.00  0.00    -0.269 OA
ATOM     19  H   UNL     1       0.919  11.932   0.062  0.00  0.00    +0.157 HD
ENDBRANCH   1  17
BRANCH   5  20
ATOM     20  C   UNL     1      -0.050   3.844   0.024  0.00  0.00    +0.004 A 
ATOM     21  C   UNL     1      -1.246   3.128   0.031  0.00  0.00    +0.010 A 
ATOM     22  C   UNL     1      -1.222   1.749   0.017  0.00  0.00    +0.003 A 
ATOM     23  C   UNL     1      -0.013   1.076   0.008  0.00  0.00    +0.033 A 
ATOM     24  C   UNL     1       1.177   1.781   0.000  0.00  0.00    +0.127 A 
ATOM     25  C   UNL     1       1.165   3.161   0.008  0.00  0.00    +0.042 A 
BRANCH  24  26
ATOM     26  N   UNL     1       2.467   1.054  -0.016  0.00  0.00    +0.056 N 
ATOM     27  O   UNL     1       2.479  -0.164  -0.022  0.00  0.00    -0.126 OA
ATOM     28  O   UNL     1       3.515   1.674  -0.022  0.00  0.00    -0.126 OA
ENDBRANCH  24  26
ENDBRANCH   5  20
TORSDOF 3
