REMARK  Name = ZINC03400119
REMARK  8 active torsions:
REMARK  status: ('A' for Active; 'I' for Inactive)
REMARK    1  A    between atoms: C_1  and  C_2
REMARK    2  A    between atoms: C_5  and  N_8
REMARK    3  A    between atoms: C_9  and  C_27
REMARK    4  A    between atoms: C_12  and  S_13
REMARK    5  A    between atoms: S_13  and  C_14
REMARK    6  A    between atoms: C_14  and  C_15
REMARK    7  A    between atoms: N_17  and  C_18
REMARK    8  A    between atoms: N_17  and  C_19
REMARK                            x       y       z     vdW  Elec       q    Type
REMARK                         _______ _______ _______ _____ _____    ______ ____
ROOT
ATOM      1  N   UNL     1      -0.068   1.112  -4.073  0.00  0.00    -0.270 N 
ATOM      2  C   UNL     1       0.963   0.409  -4.657  0.00  0.00    +0.169 A 
ATOM      3  N   UNL     1       1.689  -0.089  -3.683  0.00  0.00    -0.128 NA
ATOM      4  N   UNL     1       1.196   0.252  -2.547  0.00  0.00    -0.122 NA
ATOM      5  C   UNL     1       0.122   0.990  -2.724  0.00  0.00    +0.197 A 
ENDROOT
BRANCH   1  10
ATOM      6  C   UNL     1      -4.226   3.932  -6.712  0.00  0.00    +0.044 C 
ATOM      7  C   UNL     1      -3.122   3.183  -6.011  0.00  0.00    -0.050 A 
ATOM      8  C   UNL     1      -2.198   3.872  -5.248  0.00  0.00    +0.005 A 
ATOM      9  C   UNL     1      -1.185   3.189  -4.604  0.00  0.00    +0.026 A 
ATOM     10  C   UNL     1      -1.095   1.809  -4.725  0.00  0.00    +0.051 A 
ATOM     11  C   UNL     1      -2.021   1.120  -5.497  0.00  0.00    +0.026 A 
ATOM     12  C   UNL     1      -3.035   1.809  -6.133  0.00  0.00    +0.005 A 
ENDBRANCH   1  10
BRANCH   2  13
ATOM     13  C   UNL     1       1.203   0.242  -6.106  0.00  0.00    +0.020 A 
ATOM     14  C   UNL     1       0.547   1.064  -7.024  0.00  0.00    +0.013 A 
ATOM     15  C   UNL     1       0.779   0.907  -8.374  0.00  0.00    +0.021 A 
ATOM     16  C   UNL     1       1.652  -0.071  -8.821  0.00  0.00    +0.041 A 
ATOM     17  C   UNL     1       2.301  -0.893  -7.915  0.00  0.00    +0.021 A 
ATOM     18  C   UNL     1       2.082  -0.742  -6.562  0.00  0.00    +0.013 A 
ATOM     19 CL   UNL     1       1.935  -0.266 -10.523  0.00  0.00    -0.084 Cl
ENDBRANCH   2  13
BRANCH   5  20
ATOM     20  S   UNL     1      -0.888   1.685  -1.458  0.00  0.00    -0.076 S 
BRANCH  20  21
ATOM     21  C   UNL     1      -0.013   1.086   0.008  0.00  0.00    +0.173 C 
BRANCH  21  22
ATOM     22  C   UNL     1      -0.718   1.572   1.248  0.00  0.00    +0.226 C 
ATOM     23  O   UNL     1      -1.714   2.256   1.150  0.00  0.00    -0.275 OA
ATOM     24  N   UNL     1      -0.242   1.246   2.466  0.00  0.00    -0.299 N 
ATOM     25  C   UNL     1       0.962   0.419   2.584  0.00  0.00    +0.132 C 
BRANCH  24  26
ATOM     26  C   UNL     1      -0.927   1.718   3.671  0.00  0.00    +0.098 C 
ATOM     27  C   UNL     1       0.040   2.555   4.525  0.00  0.00    +0.046 C 
ATOM     28  C   UNL     1      -0.562   2.786   5.931  0.00  0.00    +0.168 C 
ATOM     29  S   UNL     1      -1.632   1.308   6.161  0.00  0.00    -0.029 S 
ATOM     30  O   UNL     1      -2.984   1.729   6.278  0.00  0.00    -0.174 OA
ATOM     31  O   UNL     1      -1.067   0.480   7.168  0.00  0.00    -0.174 OA
ATOM     32  C   UNL     1      -1.394   0.502   4.521  0.00  0.00    +0.188 C 
ENDBRANCH  24  26
ENDBRANCH  21  22
ENDBRANCH  20  21
ENDBRANCH   5  20
TORSDOF 6
