REMARK  Name = ZINC51296354
REMARK  3 active torsions:
REMARK  status: ('A' for Active; 'I' for Inactive)
REMARK    1  A    between atoms: C_3  and  O_21
REMARK    2  A    between atoms: C_6  and  C_7
REMARK    3  A    between atoms: C_16  and  N_19
REMARK                            x       y       z     vdW  Elec       q    Type
REMARK                         _______ _______ _______ _____ _____    ______ ____
ROOT
ATOM      1  C   UNL     1      -1.269  -0.768  -0.022  0.00  0.00    +0.251 C 
ATOM      2  O   UNL     1      -0.227  -0.142  -0.067  0.00  0.00    -0.270 OA
ATOM      3  N   UNL     1      -1.243  -2.112   0.083  0.00  0.00    -0.267 N 
ATOM      4  C   UNL     1      -2.493  -2.884   0.087  0.00  0.00    +0.114 C 
ATOM      5  C   UNL     1      -2.392  -3.932   1.203  0.00  0.00    +0.024 C 
ATOM      6  C   UNL     1      -1.249  -4.893   0.877  0.00  0.00    +0.038 C 
ATOM      7  C   UNL     1       0.012  -4.128   0.571  0.00  0.00    -0.026 A 
ATOM      8  C   UNL     1      -0.024  -2.795   0.184  0.00  0.00    +0.041 A 
ATOM      9  C   UNL     1       1.155  -2.119  -0.102  0.00  0.00    +0.046 A 
ATOM     10  C   UNL     1       2.373  -2.776  -0.004  0.00  0.00    +0.026 A 
ATOM     11  C   UNL     1       2.407  -4.111   0.380  0.00  0.00    +0.023 A 
ATOM     12  C   UNL     1       1.231  -4.779   0.674  0.00  0.00    +0.007 A 
ENDROOT
BRANCH   1  18
ATOM     13  C   UNL     1      -2.675   1.234   0.438  0.00  0.00    +0.017 A 
ATOM     14  C   UNL     1      -3.882   1.895   0.378  0.00  0.00    +0.047 A 
ATOM     15  C   UNL     1      -4.986   1.279  -0.199  0.00  0.00    +0.135 A 
ATOM     16  C   UNL     1      -4.877  -0.007  -0.719  0.00  0.00    +0.083 A 
ATOM     17  C   UNL     1      -3.672  -0.674  -0.664  0.00  0.00    +0.036 A 
ATOM     18  C   UNL     1      -2.560  -0.057  -0.084  0.00  0.00    +0.039 A 
ATOM     19 CL   UNL     1      -6.259  -0.771  -1.438  0.00  0.00    -0.080 Cl
BRANCH  15  20
ATOM     20  O   UNL     1      -6.174   1.933  -0.255  0.00  0.00    -0.505 OA
ATOM     21  H   UNL     1      -6.295   2.460  -1.056  0.00  0.00    +0.292 HD
ENDBRANCH  15  20
ENDBRANCH   1  18
BRANCH  10  22
ATOM     22  N   UNL     1       3.560  -2.099  -0.291  0.00  0.00    -0.358 N 
ATOM     23  H   UNL     1       3.542  -1.148  -0.481  0.00  0.00    +0.142 HD
ATOM     24  H   UNL     1       4.402  -2.579  -0.301  0.00  0.00    +0.142 HD
ENDBRANCH  10  22
TORSDOF 3
