REMARK  Name = ZINC50375809
REMARK  3 active torsions:
REMARK  status: ('A' for Active; 'I' for Inactive)
REMARK    1  A    between atoms: C_1  and  O_2
REMARK    2  A    between atoms: O_2  and  C_3
REMARK    3  A    between atoms: C_8  and  N_10
REMARK                            x       y       z     vdW  Elec       q    Type
REMARK                         _______ _______ _______ _____ _____    ______ ____
ROOT
ATOM      1  N   UNL     1      -0.557  -2.526  -0.259  0.00  0.00    -0.306 N 
ATOM      2  C   UNL     1       0.092  -2.888   0.910  0.00  0.00    +0.070 A 
ATOM      3  C   UNL     1       1.413  -2.842   1.330  0.00  0.00    +0.029 A 
ATOM      4  C   UNL     1       1.749  -3.292   2.590  0.00  0.00    +0.017 A 
ATOM      5  C   UNL     1       0.773  -3.791   3.442  0.00  0.00    +0.020 A 
ATOM      6  C   UNL     1      -0.544  -3.844   3.041  0.00  0.00    +0.045 A 
ATOM      7  C   UNL     1      -0.900  -3.391   1.768  0.00  0.00    +0.092 A 
ATOM      8  N   UNL     1      -2.081  -3.316   1.100  0.00  0.00    -0.215 NA
ATOM      9  C   UNL     1      -1.883  -2.803  -0.088  0.00  0.00    +0.194 A 
ATOM     10  N   UNL     1      -2.867  -2.580  -1.029  0.00  0.00    -0.329 N 
ATOM     11 BR   UNL     1       1.255  -4.403   5.165  0.00  0.00    -0.050 Br
ATOM     12  H   UNL     1      -2.628  -2.270  -1.916  0.00  0.00    +0.145 HD
ATOM     13  H   UNL     1      -3.798  -2.732  -0.803  0.00  0.00    +0.145 HD
ENDROOT
BRANCH   1  18
ATOM     14  C   UNL     1       0.505  -0.498  -1.171  0.00  0.00    +0.141 C 
ATOM     15  C   UNL     1       2.001  -0.621  -0.788  0.00  0.00    +0.034 C 
ATOM     16  C   UNL     1       2.508  -1.728  -1.746  0.00  0.00    +0.005 C 
ATOM     17  C   UNL     1       1.339  -2.732  -1.818  0.00  0.00    +0.028 C 
ATOM     18  C   UNL     1       0.063  -1.948  -1.454  0.00  0.00    +0.119 C 
BRANCH  14  20
ATOM     19  C   UNL     1      -0.395   1.471  -0.141  0.00  0.00    +0.194 C 
ATOM     20  O   UNL     1      -0.245   0.051  -0.085  0.00  0.00    -0.378 OA
ENDBRANCH  14  20
ENDBRANCH   1  18
TORSDOF 2
