REMARK  Name = ZINC59449050
REMARK  5 active torsions:
REMARK  status: ('A' for Active; 'I' for Inactive)
REMARK    1  A    between atoms: C_9  and  N_11
REMARK    2  A    between atoms: C_12  and  C_14
REMARK    3  A    between atoms: C_14  and  S_15
REMARK    4  A    between atoms: S_15  and  C_16
REMARK    5  A    between atoms: C_22  and  N_26
REMARK                            x       y       z     vdW  Elec       q    Type
REMARK                         _______ _______ _______ _____ _____    ______ ____
ROOT
ATOM      1  C   UNL     1       6.511  -1.062   2.363  0.00  0.00    +0.173 C 
ENDROOT
BRANCH   1   3
ATOM      2  N   UNL     1       4.367  -0.811   1.156  0.00  0.00    -0.304 N 
ATOM      3  C   UNL     1       5.653  -1.215   1.134  0.00  0.00    +0.224 C 
ATOM      4  O   UNL     1       6.119  -1.701   0.126  0.00  0.00    -0.275 OA
ATOM      5  H   UNL     1       3.994  -0.422   1.963  0.00  0.00    +0.150 HD
BRANCH   2  14
ATOM      6  C   UNL     1      -0.017   1.375   0.010  0.00  0.00    +0.001 A 
ATOM      7  C   UNL     1       1.167   2.091   0.002  0.00  0.00    +0.000 A 
ATOM      8  C   UNL     1       2.381   1.425  -0.013  0.00  0.00    +0.006 A 
ATOM      9  C   UNL     1       2.410   0.050  -0.021  0.00  0.00    -0.016 A 
ATOM     10  C   UNL     1       1.223  -0.684  -0.013  0.00  0.00    -0.020 A 
ATOM     11  C   UNL     1       0.002  -0.004   0.002  0.00  0.00    +0.008 A 
ATOM     12  C   UNL     1       1.549  -2.122  -0.025  0.00  0.00    +0.006 C 
ATOM     13  C   UNL     1       2.857  -2.312  -0.039  0.00  0.00    +0.000 C 
ATOM     14  C   UNL     1       3.532  -0.960  -0.038  0.00  0.00    +0.127 C 
ENDBRANCH   2  14
ENDBRANCH   1   3
BRANCH   1  15
ATOM     15  S   UNL     1       8.177  -1.692   2.019  0.00  0.00    -0.079 S 
BRANCH  15  16
ATOM     16  C   UNL     1       9.047  -1.446   3.532  0.00  0.00    +0.168 A 
ATOM     17  N   UNL     1      10.357  -1.770   3.746  0.00  0.00    -0.333 N 
ATOM     18  H   UNL     1      10.963  -2.171   3.103  0.00  0.00    +0.168 HD
ATOM     19  C   UNL     1      10.658  -1.420   5.052  0.00  0.00    +0.067 A 
ATOM     20  C   UNL     1      11.802  -1.504   5.830  0.00  0.00    +0.030 A 
ATOM     21  C   UNL     1      11.780  -1.057   7.135  0.00  0.00    +0.035 A 
ATOM     22  C   UNL     1      10.620  -0.523   7.675  0.00  0.00    +0.128 A 
ATOM     23  C   UNL     1       9.474  -0.432   6.917  0.00  0.00    +0.062 A 
ATOM     24  C   UNL     1       9.480  -0.880   5.594  0.00  0.00    +0.092 A 
ATOM     25  N   UNL     1       8.536  -0.919   4.617  0.00  0.00    -0.222 NA
BRANCH  22  26
ATOM     26  N   UNL     1      10.613  -0.047   9.077  0.00  0.00    +0.056 N 
ATOM     27  O   UNL     1      11.616  -0.125   9.747  0.00  0.00    -0.126 OA
ATOM     28  O   UNL     1       9.603   0.419   9.552  0.00  0.00    -0.126 OA
ENDBRANCH  22  26
ENDBRANCH  15  16
ENDBRANCH   1  15
TORSDOF 5
