REMARK  Name = ZINC17084804
REMARK  3 active torsions:
REMARK  status: ('A' for Active; 'I' for Inactive)
REMARK    1  A    between atoms: C_5  and  N_7
REMARK    2  A    between atoms: C_13  and  C_14
REMARK    3  A    between atoms: C_17  and  C_20
REMARK                            x       y       z     vdW  Elec       q    Type
REMARK                         _______ _______ _______ _____ _____    ______ ____
ROOT
ATOM      1  N   UNL     1       1.195  -2.200  -0.739  0.00  0.00    -0.224 NA
ATOM      2  C   UNL     1       0.085  -2.843  -0.456  0.00  0.00    +0.166 C 
ATOM      3  N   UNL     1      -0.092  -4.194  -0.244  0.00  0.00    -0.260 N 
ATOM      4  C   UNL     1      -1.289  -4.681   0.034  0.00  0.00    +0.256 C 
ATOM      5  O   UNL     1      -1.464  -5.870   0.224  0.00  0.00    -0.269 OA
ATOM      6  C   UNL     1      -2.405  -3.716   0.102  0.00  0.00    +0.078 C 
ATOM      7  C   UNL     1      -3.718  -3.935   0.365  0.00  0.00    +0.028 C 
ATOM      8  S   UNL     1      -1.560  -2.181  -0.245  0.00  0.00    -0.049 S 
ATOM      9  H   UNL     1       0.669  -4.792  -0.299  0.00  0.00    +0.157 HD
ENDROOT
BRANCH   1  14
ATOM     10  C   UNL     1       0.613   1.304   0.115  0.00  0.00    +0.002 A 
ATOM     11  C   UNL     1       1.186   1.933  -0.977  0.00  0.00    +0.002 A 
ATOM     12  C   UNL     1       1.762   1.187  -1.990  0.00  0.00    +0.022 A 
ATOM     13  C   UNL     1       1.769  -0.192  -1.917  0.00  0.00    +0.066 A 
ATOM     14  C   UNL     1       1.192  -0.833  -0.818  0.00  0.00    +0.085 A 
ATOM     15  C   UNL     1       0.613  -0.073   0.201  0.00  0.00    +0.029 A 
ATOM     16 CL   UNL     1       2.492  -1.127  -3.189  0.00  0.00    -0.081 Cl
ENDBRANCH   1  14
BRANCH   7  17
ATOM     17  C   UNL     1      -4.689  -2.841   0.219  0.00  0.00    -0.024 A 
ATOM     18  C   UNL     1      -4.350  -1.691  -0.502  0.00  0.00    +0.008 A 
ATOM     19  C   UNL     1      -5.267  -0.670  -0.634  0.00  0.00    +0.013 A 
ATOM     20  C   UNL     1      -6.520  -0.780  -0.056  0.00  0.00    +0.055 A 
ATOM     21  C   UNL     1      -6.863  -1.915   0.660  0.00  0.00    +0.013 A 
ATOM     22  C   UNL     1      -5.959  -2.947   0.797  0.00  0.00    +0.008 A 
BRANCH  20  23
ATOM     23  C   UNL     1      -7.515   0.341  -0.204  0.00  0.00    +0.417 C 
ATOM     24  F   UNL     1      -8.285   0.132  -1.354  0.00  0.00    -0.166 F 
ATOM     25  F   UNL     1      -8.352   0.374   0.917  0.00  0.00    -0.166 F 
ATOM     26  F   UNL     1      -6.834   1.558  -0.314  0.00  0.00    -0.166 F 
ENDBRANCH  20  23
ENDBRANCH   7  17
TORSDOF 3
