REMARK  Name = ZINC20207744
REMARK  8 active torsions:
REMARK  status: ('A' for Active; 'I' for Inactive)
REMARK    1  A    between atoms: C_1  and  S_2
REMARK    2  A    between atoms: S_2  and  C_5
REMARK    3  A    between atoms: C_11  and  C_12
REMARK    4  A    between atoms: C_15  and  O_18
REMARK    5  A    between atoms: O_18  and  C_19
REMARK    6  A    between atoms: C_19  and  C_20
REMARK    7  A    between atoms: C_20  and  O_21
REMARK    8  A    between atoms: O_21  and  C_22
REMARK                            x       y       z     vdW  Elec       q    Type
REMARK                         _______ _______ _______ _____ _____    ______ ____
ROOT
ATOM      1  C   UNL     1       8.117   2.804  -8.800  0.00  0.00    +0.235 C 
ATOM      2  N   UNL     1       7.841   2.443  -7.580  0.00  0.00    -0.145 NA
ATOM      3  N   UNL     1       6.782   1.605  -7.304  0.00  0.00    -0.150 N 
ATOM      4  C   UNL     1       6.344   1.226  -6.017  0.00  0.00    +0.153 C 
ATOM      5  N   UNL     1       6.596   1.920  -4.939  0.00  0.00    -0.283 NA
ATOM      6  C   UNL     1       5.564  -0.044  -6.009  0.00  0.00    +0.081 C 
ATOM      7  C   UNL     1       5.613  -0.918  -4.946  0.00  0.00    +0.024 C 
ATOM      8  C   UNL     1       4.733  -0.316  -7.208  0.00  0.00    +0.273 C 
ATOM      9  O   UNL     1       3.749  -1.036  -7.140  0.00  0.00    -0.268 OA
ATOM     10  N   UNL     1       5.095   0.255  -8.373  0.00  0.00    -0.152 NA
ATOM     11  C   UNL     1       6.076   1.122  -8.384  0.00  0.00    +0.182 C 
ATOM     12  S   UNL     1       6.852   1.960  -9.740  0.00  0.00    -0.015 S 
ATOM     13  H   UNL     1       7.169   2.701  -4.988  0.00  0.00    +0.188 HD
ENDROOT
BRANCH   7  14
ATOM     14  C   UNL     1       6.579  -0.705  -3.866  0.00  0.00    -0.024 A 
ATOM     15  C   UNL     1       6.238  -1.023  -2.544  0.00  0.00    +0.011 A 
ATOM     16  C   UNL     1       7.144  -0.822  -1.541  0.00  0.00    +0.046 A 
ATOM     17  C   UNL     1       8.402  -0.304  -1.830  0.00  0.00    +0.121 A 
ATOM     18  C   UNL     1       8.746   0.013  -3.140  0.00  0.00    +0.046 A 
ATOM     19  C   UNL     1       7.851  -0.189  -4.152  0.00  0.00    +0.011 A 
BRANCH  17  20
ATOM     20  O   UNL     1       9.297  -0.106  -0.829  0.00  0.00    -0.489 OA
BRANCH  20  21
ATOM     21  C   UNL     1      10.571   0.429  -1.195  0.00  0.00    +0.270 C 
BRANCH  21  22
ATOM     22  C   UNL     1      11.438   0.580   0.056  0.00  0.00    +0.270 C 
BRANCH  22  23
ATOM     23  O   UNL     1      11.714  -0.711   0.604  0.00  0.00    -0.487 OA
BRANCH  23  24
ATOM     24  C   UNL     1      12.478  -0.754   1.727  0.00  0.00    +0.139 A 
ATOM     25  C   UNL     1      12.949   0.422   2.293  0.00  0.00    +0.047 A 
ATOM     26  C   UNL     1      13.726   0.375   3.435  0.00  0.00    +0.004 A 
ATOM     27  C   UNL     1      14.035  -0.842   4.013  0.00  0.00    +0.002 A 
ATOM     28  C   UNL     1      13.568  -2.016   3.452  0.00  0.00    +0.023 A 
ATOM     29  C   UNL     1      12.785  -1.974   2.313  0.00  0.00    +0.083 A 
ATOM     30 CL   UNL     1      12.192  -3.448   1.612  0.00  0.00    -0.080 Cl
ENDBRANCH  23  24
ENDBRANCH  22  23
ENDBRANCH  21  22
ENDBRANCH  20  21
ENDBRANCH  17  20
ENDBRANCH   7  14
BRANCH   1  32
ATOM     31  C   UNL     1      10.750   2.740  -9.851  0.00  0.00    +0.202 C 
ATOM     32  S   UNL     1       9.404   3.861  -9.377  0.00  0.00    +0.019 S 
ATOM     33  O   UNL     1       9.782   4.626  -8.241  0.00  0.00    -0.168 OA
ATOM     34  O   UNL     1       8.865   4.493 -10.530  0.00  0.00    -0.168 OA
ENDBRANCH   1  32
TORSDOF 7
