REMARK  Name = ZINC35453484
REMARK  4 active torsions:
REMARK  status: ('A' for Active; 'I' for Inactive)
REMARK    1  A    between atoms: C_1  and  C_2
REMARK    2  A    between atoms: C_5  and  O_9
REMARK    3  A    between atoms: O_9  and  C_10
REMARK    4  A    between atoms: C_15  and  N_16
REMARK                            x       y       z     vdW  Elec       q    Type
REMARK                         _______ _______ _______ _____ _____    ______ ____
ROOT
ATOM      1  C   UNL     1       0.066  -4.667  -1.272  0.00  0.00    +0.151 A 
ATOM      2  C   UNL     1       0.114  -3.838  -2.382  0.00  0.00    +0.075 A 
ATOM      3  C   UNL     1       0.122  -4.387  -3.654  0.00  0.00    +0.079 A 
ATOM      4  C   UNL     1       0.081  -5.771  -3.819  0.00  0.00    +0.144 A 
ATOM      5  C   UNL     1       0.034  -6.599  -2.711  0.00  0.00    +0.074 A 
ATOM      6  C   UNL     1       0.032  -6.049  -1.436  0.00  0.00    +0.071 A 
ATOM      7  O   UNL     1       0.087  -6.295  -5.074  0.00  0.00    -0.481 OA
ATOM      8  C   UNL     1      -0.564  -5.532  -6.093  0.00  0.00    +0.325 C 
ATOM      9  C   UNL     1      -0.139  -4.089  -5.995  0.00  0.00    +0.255 C 
ATOM     10  O   UNL     1      -0.074  -3.403  -6.993  0.00  0.00    -0.272 OA
ATOM     11  N   UNL     1       0.171  -3.563  -4.790  0.00  0.00    -0.280 N 
ATOM     12  H   UNL     1       0.423  -2.629  -4.710  0.00  0.00    +0.155 HD
ENDROOT
BRANCH   6  13
ATOM     13  N   UNL     1      -0.010  -6.886  -0.313  0.00  0.00    -0.355 N 
ATOM     14  H   UNL     1      -0.016  -6.503   0.578  0.00  0.00    +0.142 HD
ATOM     15  H   UNL     1      -0.034  -7.849  -0.427  0.00  0.00    +0.142 HD
ENDBRANCH   6  13
BRANCH   1  16
ATOM     16  O   UNL     1       0.058  -4.130  -0.022  0.00  0.00    -0.453 OA
BRANCH  16  21
ATOM     17  C   UNL     1       4.986  -3.575   2.649  0.00  0.00    +0.044 C 
ATOM     18  C   UNL     1       3.667  -3.724   1.935  0.00  0.00    -0.049 A 
ATOM     19  C   UNL     1       3.638  -4.162   0.624  0.00  0.00    +0.007 A 
ATOM     20  C   UNL     1       2.431  -4.299  -0.034  0.00  0.00    +0.047 A 
ATOM     21  C   UNL     1       1.247  -3.996   0.622  0.00  0.00    +0.142 A 
ATOM     22  C   UNL     1       1.278  -3.556   1.939  0.00  0.00    +0.060 A 
ATOM     23  C   UNL     1       2.489  -3.426   2.593  0.00  0.00    +0.022 A 
ATOM     24 BR   UNL     1      -0.333  -3.142   2.837  0.00  0.00    -0.046 Br
ENDBRANCH  16  21
ENDBRANCH   1  16
TORSDOF 3
