REMARK  Name = ZINC49776533
REMARK  12 active torsions:
REMARK  status: ('A' for Active; 'I' for Inactive)
REMARK    1  A    between atoms: C_1  and  C_2
REMARK    2  A    between atoms: C_2  and  C_4
REMARK    3  A    between atoms: C_2  and  O_21
REMARK    4  A    between atoms: C_4  and  N_5
REMARK    5  A    between atoms: N_5  and  C_6
REMARK    6  A    between atoms: N_5  and  C_7
REMARK    7  A    between atoms: C_8  and  N_20
REMARK    8  A    between atoms: N_9  and  C_16
REMARK    9  A    between atoms: N_12  and  C_15
REMARK   10  A    between atoms: C_16  and  C_17
REMARK   11  A    between atoms: C_17  and  C_18
REMARK   12  A    between atoms: C_17  and  C_19
REMARK                            x       y       z     vdW  Elec       q    Type
REMARK                         _______ _______ _______ _____ _____    ______ ____
ROOT
ATOM      1  C   UNL     1       1.592  -2.822  -0.736  0.00  0.00    +0.133 A 
ATOM      2  C   UNL     1       1.445  -4.180  -0.828  0.00  0.00    +0.127 A 
ATOM      3  N   UNL     1       2.343  -5.001  -0.184  0.00  0.00    -0.280 N 
ATOM      4  C   UNL     1       3.356  -4.475   0.529  0.00  0.00    +0.333 A 
ATOM      5  O   UNL     1       4.140  -5.215   1.091  0.00  0.00    -0.246 OA
ATOM      6  N   UNL     1       3.516  -3.143   0.629  0.00  0.00    -0.262 N 
ATOM      7  C   UNL     1       2.664  -2.301   0.011  0.00  0.00    +0.279 A 
ATOM      8  O   UNL     1       2.819  -1.095   0.102  0.00  0.00    -0.265 OA
ATOM      9  C   UNL     1       4.629  -2.602   1.413  0.00  0.00    +0.157 C 
ENDROOT
BRANCH   2  10
ATOM     10  N   UNL     1       0.409  -4.719  -1.555  0.00  0.00    -0.343 N 
ATOM     11  H   UNL     1      -0.277  -4.141  -1.923  0.00  0.00    +0.144 HD
ATOM     12  H   UNL     1       0.365  -5.677  -1.701  0.00  0.00    +0.144 HD
ENDBRANCH   2  10
BRANCH   1  13
ATOM     13  N   UNL     1       0.684  -1.957  -1.388  0.00  0.00    -0.324 N 
ATOM     14  C   UNL     1      -0.166  -1.060  -0.601  0.00  0.00    +0.129 C 
BRANCH  13  15
ATOM     15  C   UNL     1       0.592  -1.957  -2.850  0.00  0.00    +0.136 C 
BRANCH  15  17
ATOM     16  C   UNL     1       1.294  -0.769  -4.933  0.00  0.00    +0.039 C 
ATOM     17  C   UNL     1       1.484  -0.851  -3.417  0.00  0.00    +0.129 C 
BRANCH  17  18
ATOM     18  O   UNL     1       2.852  -1.145  -3.124  0.00  0.00    -0.391 OA
ATOM     19  H   UNL     1       3.475  -0.484  -3.455  0.00  0.00    +0.210 HD
ENDBRANCH  17  18
ENDBRANCH  15  17
ENDBRANCH  13  15
ENDBRANCH   1  13
BRANCH   3  20
ATOM     20  C   UNL     1       2.195  -6.455  -0.275  0.00  0.00    +0.131 C 
BRANCH  20  21
ATOM     21  C   UNL     1       2.976  -6.973  -1.483  0.00  0.00    +0.003 C 
ATOM     22  C   UNL     1       4.471  -6.732  -1.266  0.00  0.00    +0.009 C 
ATOM     23  C   UNL     1       2.721  -8.473  -1.651  0.00  0.00    +0.009 C 
ENDBRANCH  20  21
ENDBRANCH   3  20
TORSDOF 7
