REMARK  Name = ZINC11905505
REMARK  10 active torsions:
REMARK  status: ('A' for Active; 'I' for Inactive)
REMARK    1  A    between atoms: C_1  and  C_2
REMARK    2  A    between atoms: C_2  and  O_3
REMARK    3  A    between atoms: O_3  and  C_4
REMARK    4  A    between atoms: C_4  and  C_6
REMARK    5  A    between atoms: C_7  and  C_29
REMARK    6  A    between atoms: C_8  and  C_28
REMARK    7  A    between atoms: C_10  and  N_11
REMARK    8  A    between atoms: C_12  and  C_14
REMARK    9  A    between atoms: C_14  and  S_15
REMARK   10  A    between atoms: S_15  and  C_16
REMARK                            x       y       z     vdW  Elec       q    Type
REMARK                         _______ _______ _______ _____ _____    ______ ____
ROOT
ATOM      1  N   UNL     1      -1.281  -2.340  -2.485  0.00  0.00    -0.279 N 
ATOM      2  C   UNL     1      -1.324  -3.201  -3.521  0.00  0.00    +0.228 C 
ATOM      3  O   UNL     1      -1.368  -4.395  -3.315  0.00  0.00    -0.275 OA
ATOM      4  H   UNL     1      -1.246  -1.384  -2.650  0.00  0.00    +0.155 HD
ENDROOT
BRANCH   1   9
ATOM      5  C   UNL     1      -1.248  -2.096   0.003  0.00  0.00    +0.091 A 
ATOM      6  C   UNL     1      -1.260  -2.860   1.228  0.00  0.00    -0.025 A 
ATOM      7  C   UNL     1      -1.318  -4.199   1.116  0.00  0.00    -0.008 A 
ATOM      8  S   UNL     1      -1.345  -4.463  -0.645  0.00  0.00    -0.078 S 
ATOM      9  C   UNL     1      -1.287  -2.819  -1.185  0.00  0.00    +0.086 A 
ATOM     10  C   UNL     1      -1.348  -5.228   2.216  0.00  0.00    +0.052 C 
ATOM     11  C   UNL     1      -1.215  -2.185   2.575  0.00  0.00    +0.045 C 
BRANCH   5  12
ATOM     12  C   UNL     1      -1.191  -0.633   0.010  0.00  0.00    +0.342 C 
ATOM     13  O   UNL     1      -2.220   0.016   0.023  0.00  0.00    -0.245 OA
BRANCH  12  14
ATOM     14  O   UNL     1       0.002  -0.004   0.002  0.00  0.00    -0.461 OA
BRANCH  14  16
ATOM     15  C   UNL     1       1.418   1.977  -0.001  0.00  0.00    +0.048 C 
ATOM     16  C   UNL     1      -0.018   1.448   0.010  0.00  0.00    +0.229 C 
ENDBRANCH  14  16
ENDBRANCH  12  14
ENDBRANCH   5  12
ENDBRANCH   1   9
BRANCH   2  17
ATOM     17  C   UNL     1      -1.318  -2.680  -4.935  0.00  0.00    +0.173 C 
BRANCH  17  18
ATOM     18  S   UNL     1      -1.382  -4.071  -6.091  0.00  0.00    -0.078 S 
BRANCH  18  19
ATOM     19  C   UNL     1      -1.363  -3.198  -7.622  0.00  0.00    +0.170 A 
ATOM     20  N   UNL     1      -1.395  -3.895  -8.792  0.00  0.00    -0.302 N 
ATOM     21  H   UNL     1      -1.433  -4.864  -8.783  0.00  0.00    +0.171 HD
ATOM     22  C   UNL     1      -1.379  -3.226  -9.962  0.00  0.00    +0.255 A 
ATOM     23  O   UNL     1      -1.409  -3.832 -11.021  0.00  0.00    -0.267 OA
ATOM     24  C   UNL     1      -1.322  -1.816  -9.947  0.00  0.00    +0.038 A 
ATOM     25  C   UNL     1      -1.295  -1.173  -8.751  0.00  0.00    +0.052 A 
ATOM     26  N   UNL     1      -1.312  -1.883  -7.618  0.00  0.00    -0.228 NA
ATOM     27  C   UNL     1      -1.254   0.329  -8.638  0.00  0.00    +0.056 C 
ATOM     28  C   UNL     1      -0.803   0.956  -9.955  0.00  0.00    +0.006 C 
ATOM     29  C   UNL     1      -1.661   0.375 -11.086  0.00  0.00    +0.005 C 
ATOM     30  C   UNL     1      -1.285  -1.095 -11.267  0.00  0.00    +0.042 C 
ENDBRANCH  18  19
ENDBRANCH  17  18
ENDBRANCH   2  17
TORSDOF 7
