REMARK  Name = ZINC30840448
REMARK  6 active torsions:
REMARK  status: ('A' for Active; 'I' for Inactive)
REMARK    1  A    between atoms: C_4  and  C_7
REMARK    2  A    between atoms: C_7  and  O_8
REMARK    3  A    between atoms: O_8  and  C_9
REMARK    4  A    between atoms: C_12  and  C_16
REMARK    5  A    between atoms: C_17  and  C_18
REMARK    6  A    between atoms: C_19  and  N_27
REMARK                            x       y       z     vdW  Elec       q    Type
REMARK                         _______ _______ _______ _____ _____    ______ ____
ROOT
ATOM      1  C   UNL     1       6.577  -0.469   0.414  0.00  0.00    +0.135 A 
ATOM      2  C   UNL     1       7.584  -0.977  -0.396  0.00  0.00    +0.047 A 
ATOM      3  C   UNL     1       8.410  -1.975   0.071  0.00  0.00    +0.011 A 
ATOM      4  C   UNL     1       8.233  -2.478   1.364  0.00  0.00    -0.024 A 
ATOM      5  C   UNL     1       7.218  -1.964   2.177  0.00  0.00    +0.026 A 
ATOM      6  C   UNL     1       6.400  -0.961   1.702  0.00  0.00    +0.060 A 
ATOM      7 BR   UNL     1       5.032  -0.259   2.803  0.00  0.00    -0.046 Br
ENDROOT
BRANCH   4   8
ATOM      8  C   UNL     1       9.113  -3.546   1.868  0.00  0.00    +0.010 C 
ATOM      9  C   UNL     1       9.333  -4.645   1.121  0.00  0.00    +0.031 C 
BRANCH   9  10
ATOM     10  C   UNL     1       8.516  -4.896  -0.074  0.00  0.00    +0.105 A 
ATOM     11  C   UNL     1       8.834  -5.947  -0.930  0.00  0.00    +0.215 A 
ATOM     12  C   UNL     1       8.033  -6.156  -2.060  0.00  0.00    +0.285 A 
ATOM     13  O   UNL     1       8.278  -7.067  -2.836  0.00  0.00    -0.265 OA
ATOM     14  N   UNL     1       6.985  -5.334  -2.277  0.00  0.00    -0.272 N 
ATOM     15  H   UNL     1       6.420  -5.466  -3.054  0.00  0.00    +0.174 HD
ATOM     16  C   UNL     1       6.716  -4.322  -1.410  0.00  0.00    +0.349 A 
ATOM     17  O   UNL     1       5.662  -3.514  -1.647  0.00  0.00    -0.245 OA
ATOM     18  N   UNL     1       7.454  -4.117  -0.344  0.00  0.00    -0.191 NA
BRANCH  11  19
ATOM     19  N   UNL     1       9.994  -6.824  -0.654  0.00  0.00    +0.064 N 
ATOM     20  O   UNL     1      10.739  -6.569   0.264  0.00  0.00    -0.126 OA
ATOM     21  O   UNL     1      10.197  -7.795  -1.345  0.00  0.00    -0.126 OA
ENDBRANCH  11  19
ENDBRANCH   9  10
ENDBRANCH   4   8
BRANCH   1  22
ATOM     22  O   UNL     1       5.766   0.516  -0.051  0.00  0.00    -0.486 OA
BRANCH  22  23
ATOM     23  C   UNL     1       6.002   0.976  -1.383  0.00  0.00    +0.264 C 
BRANCH  23  27
ATOM     24  C   UNL     1       3.199   4.052  -2.348  0.00  0.00    +0.000 A 
ATOM     25  C   UNL     1       4.413   4.378  -1.771  0.00  0.00    +0.000 A 
ATOM     26  C   UNL     1       5.319   3.383  -1.459  0.00  0.00    +0.007 A 
ATOM     27  C   UNL     1       5.013   2.061  -1.722  0.00  0.00    -0.010 A 
ATOM     28  C   UNL     1       3.799   1.735  -2.298  0.00  0.00    +0.007 A 
ATOM     29  C   UNL     1       2.893   2.730  -2.612  0.00  0.00    +0.000 A 
ENDBRANCH  23  27
ENDBRANCH  22  23
ENDBRANCH   1  22
TORSDOF 6
