REMARK  Name = ZINC02710352
REMARK  4 active torsions:
REMARK  status: ('A' for Active; 'I' for Inactive)
REMARK    1  A    between atoms: C_4  and  C_7
REMARK    2  A    between atoms: C_7  and  C_9
REMARK    3  A    between atoms: C_14  and  N_15
REMARK    4  A    between atoms: N_15  and  C_16
REMARK                            x       y       z     vdW  Elec       q    Type
REMARK                         _______ _______ _______ _____ _____    ______ ____
ROOT
ATOM      1  C   UNL     1       3.826  -2.155  -0.140  0.00  0.00    +0.043 A 
ATOM      2  C   UNL     1       2.688  -2.963  -0.207  0.00  0.00    +0.013 A 
ATOM      3  C   UNL     1       2.818  -4.334  -0.212  0.00  0.00    +0.001 A 
ATOM      4  C   UNL     1       4.073  -4.919  -0.149  0.00  0.00    +0.002 A 
ATOM      5  C   UNL     1       5.207  -4.135  -0.082  0.00  0.00    +0.024 A 
ATOM      6  C   UNL     1       5.097  -2.750  -0.083  0.00  0.00    +0.042 A 
ENDROOT
BRANCH   1   7
ATOM      7  C   UNL     1       3.695  -0.686  -0.135  0.00  0.00    +0.195 C 
ATOM      8  O   UNL     1       3.437  -0.095  -1.165  0.00  0.00    -0.287 OA
BRANCH   7  12
ATOM      9  C   UNL     1       4.216   1.480   3.482  0.00  0.00    +0.000 A 
ATOM     10  C   UNL     1       4.037   2.161   2.291  0.00  0.00    +0.001 A 
ATOM     11  C   UNL     1       3.867   1.464   1.113  0.00  0.00    +0.012 A 
ATOM     12  C   UNL     1       3.877   0.067   1.124  0.00  0.00    +0.022 A 
ATOM     13  C   UNL     1       4.059  -0.614   2.329  0.00  0.00    +0.012 A 
ATOM     14  C   UNL     1       4.227   0.096   3.500  0.00  0.00    +0.001 A 
ENDBRANCH   7  12
ENDBRANCH   1   7
BRANCH   6  15
ATOM     15  N   UNL     1       6.239  -1.958  -0.022  0.00  0.00    -0.319 N 
ATOM     16  H   UNL     1       6.157  -0.995   0.059  0.00  0.00    +0.152 HD
BRANCH  15  17
ATOM     17  C   UNL     1       7.461  -2.530  -0.076  0.00  0.00    +0.090 C 
ATOM     18  C   UNL     1       8.593  -1.738  -0.120  0.00  0.00    +0.113 C 
ATOM     19  C   UNL     1       8.514  -0.274   0.033  0.00  0.00    +0.258 C 
ATOM     20  O   UNL     1       7.444   0.280   0.203  0.00  0.00    -0.270 OA
ATOM     21  N   UNL     1       9.661   0.435  -0.021  0.00  0.00    -0.236 N 
ATOM     22  C   UNL     1      10.846  -0.163  -0.208  0.00  0.00    +0.313 C 
ATOM     23  O   UNL     1      11.841   0.533  -0.247  0.00  0.00    -0.252 OA
ATOM     24  N   UNL     1      10.992  -1.487  -0.354  0.00  0.00    -0.236 N 
ATOM     25  C   UNL     1       9.932  -2.321  -0.317  0.00  0.00    +0.258 C 
ATOM     26  O   UNL     1      10.078  -3.522  -0.446  0.00  0.00    -0.270 OA
ATOM     27  H   UNL     1       9.626   1.399   0.077  0.00  0.00    +0.159 HD
ATOM     28  H   UNL     1      11.880  -1.854  -0.486  0.00  0.00    +0.159 HD
ENDBRANCH  15  17
ENDBRANCH   6  15
TORSDOF 4
