REMARK  Name = ZINC38597230
REMARK  6 active torsions:
REMARK  status: ('A' for Active; 'I' for Inactive)
REMARK    1  A    between atoms: C_1  and  O_2
REMARK    2  A    between atoms: O_2  and  C_3
REMARK    3  A    between atoms: C_3  and  C_5
REMARK    4  A    between atoms: C_7  and  N_16
REMARK    5  A    between atoms: C_17  and  C_19
REMARK    6  A    between atoms: C_19  and  N_20
REMARK                            x       y       z     vdW  Elec       q    Type
REMARK                         _______ _______ _______ _____ _____    ______ ____
ROOT
ATOM      1  C   UNL     1       2.667  -3.441  -1.197  0.00  0.00    +0.234 C 
ATOM      2  C   UNL     1       1.692  -2.665  -0.339  0.00  0.00    +0.053 C 
ATOM      3  C   UNL     1       0.752  -2.148  -1.213  0.00  0.00    +0.019 A 
ATOM      4  C   UNL     1      -0.397  -1.344  -1.015  0.00  0.00    +0.031 A 
ATOM      5  C   UNL     1      -1.153  -0.977  -2.080  0.00  0.00    +0.042 A 
ATOM      6  C   UNL     1      -0.827  -1.374  -3.381  0.00  0.00    +0.022 A 
ATOM      7  C   UNL     1       0.257  -2.143  -3.645  0.00  0.00    +0.027 A 
ATOM      8  C   UNL     1       1.097  -2.567  -2.583  0.00  0.00    +0.045 A 
ATOM      9  N   UNL     1       2.191  -3.304  -2.577  0.00  0.00    -0.367 N 
ATOM     10 CL   UNL     1      -2.559   0.008  -1.822  0.00  0.00    -0.084 Cl
ATOM     11  H   UNL     1       2.612  -3.695  -3.359  0.00  0.00    +0.161 HD
ENDROOT
BRANCH   2  12
ATOM     12  N   UNL     1       1.731  -2.508   1.014  0.00  0.00    -0.288 N 
ATOM     13  C   UNL     1       2.806  -2.927   1.710  0.00  0.00    +0.200 C 
ATOM     14  O   UNL     1       3.781  -3.348   1.125  0.00  0.00    -0.278 OA
ATOM     15  H   UNL     1       0.984  -2.095   1.476  0.00  0.00    +0.155 HD
BRANCH  13  16
ATOM     16  C   UNL     1       2.797  -2.871   3.216  0.00  0.00    +0.019 C 
BRANCH  16  17
ATOM     17  N   UNL     1       4.075  -3.379   3.733  0.00  0.00    +0.386 N 
ATOM     18  C   UNL     1       4.218  -4.787   3.359  0.00  0.00    -0.067 C 
ATOM     19  C   UNL     1       5.672  -5.232   3.551  0.00  0.00    +0.050 C 
ATOM     20  S   UNL     1       6.090  -5.070   5.315  0.00  0.00    -0.164 S 
ATOM     21  C   UNL     1       5.540  -3.378   5.701  0.00  0.00    +0.050 C 
ATOM     22  C   UNL     1       4.105  -3.211   5.187  0.00  0.00    -0.067 C 
ATOM     23  H   UNL     1       4.830  -2.851   3.323  0.00  0.00    -0.081 HD
ENDBRANCH  16  17
ENDBRANCH  13  16
ENDBRANCH   2  12
BRANCH   1  24
ATOM     24  C   UNL     1       2.675  -4.892  -0.791  0.00  0.00    +0.335 C 
ATOM     25  O   UNL     1       1.948  -5.679  -1.350  0.00  0.00    -0.248 OA
BRANCH  24  27
ATOM     26  C   UNL     1       3.443  -6.699   0.524  0.00  0.00    +0.280 C 
ATOM     27  O   UNL     1       3.488  -5.310   0.191  0.00  0.00    -0.466 OA
ENDBRANCH  24  27
ENDBRANCH   1  24
TORSDOF 5
