REMARK  Name = ZINC13443753
REMARK  9 active torsions:
REMARK  status: ('A' for Active; 'I' for Inactive)
REMARK    1  A    between atoms: C_1  and  C_2
REMARK    2  A    between atoms: C_2  and  C_4
REMARK    3  A    between atoms: C_2  and  S_16
REMARK    4  A    between atoms: N_9  and  C_10
REMARK    5  A    between atoms: S_16  and  C_17
REMARK    6  A    between atoms: C_20  and  C_27
REMARK    7  A    between atoms: N_21  and  C_22
REMARK    8  A    between atoms: C_22  and  C_23
REMARK    9  A    between atoms: C_23  and  C_24
REMARK                            x       y       z     vdW  Elec       q    Type
REMARK                         _______ _______ _______ _____ _____    ______ ____
ROOT
ATOM      1  C   UNL     1      -0.019   1.538  -0.004  0.00  0.00    +0.029 C 
ATOM      2  C   UNL     1       0.003   0.008  -0.002  0.00  0.00    +0.137 C 
ENDROOT
BRANCH   2   3
ATOM      3  C   UNL     1       0.708  -0.486  -1.239  0.00  0.00    +0.234 C 
ATOM      4  O   UNL     1       0.066  -0.786  -2.223  0.00  0.00    -0.274 OA
ATOM      5  N   UNL     1       2.051  -0.595  -1.251  0.00  0.00    -0.239 N 
ATOM      6  C   UNL     1       2.681  -1.037  -2.358  0.00  0.00    +0.310 C 
ATOM      7  O   UNL     1       2.038  -1.337  -3.344  0.00  0.00    -0.252 OA
ATOM      8  N   UNL     1       4.025  -1.146  -2.370  0.00  0.00    -0.269 N 
ATOM      9  H   UNL     1       2.564  -0.355  -0.464  0.00  0.00    +0.159 HD
ATOM     10  H   UNL     1       4.543  -0.843  -1.608  0.00  0.00    +0.156 HD
BRANCH   8  11
ATOM     11  C   UNL     1       4.672  -1.695  -3.482  0.00  0.00    +0.035 A 
ATOM     12  C   UNL     1       5.811  -2.470  -3.312  0.00  0.00    +0.023 A 
ATOM     13  C   UNL     1       6.448  -3.011  -4.412  0.00  0.00    +0.002 A 
ATOM     14  C   UNL     1       5.952  -2.781  -5.682  0.00  0.00    +0.000 A 
ATOM     15  C   UNL     1       4.818  -2.009  -5.855  0.00  0.00    +0.002 A 
ATOM     16  C   UNL     1       4.173  -1.471  -4.759  0.00  0.00    +0.023 A 
ENDBRANCH   8  11
ENDBRANCH   2   3
BRANCH   2  17
ATOM     17  S   UNL     1      -1.698  -0.622   0.018  0.00  0.00    -0.074 S 
BRANCH  17  18
ATOM     18  C   UNL     1      -2.332  -0.089   1.573  0.00  0.00    +0.193 A 
ATOM     19  N   UNL     1      -1.687   0.609   2.479  0.00  0.00    -0.122 NA
ATOM     20  N   UNL     1      -2.444   0.825   3.494  0.00  0.00    -0.128 NA
ATOM     21  C   UNL     1      -3.623   0.276   3.299  0.00  0.00    +0.172 A 
ATOM     22  N   UNL     1      -3.589  -0.321   2.058  0.00  0.00    -0.301 N 
BRANCH  21  23
ATOM     23  C   UNL     1      -4.765   0.302   4.227  0.00  0.00    +0.056 A 
ATOM     24  C   UNL     1      -4.972   1.102   5.322  0.00  0.00    +0.019 A 
ATOM     25  C   UNL     1      -6.131   0.943   6.048  0.00  0.00    +0.008 A 
ATOM     26  C   UNL     1      -7.032   0.004   5.659  0.00  0.00    +0.046 A 
ATOM     27  S   UNL     1      -6.247  -0.695   4.215  0.00  0.00    -0.094 S 
ENDBRANCH  21  23
BRANCH  22  28
ATOM     28  C   UNL     1      -4.672  -1.055   1.399  0.00  0.00    +0.137 C 
BRANCH  28  29
ATOM     29  C   UNL     1      -4.588  -2.535   1.776  0.00  0.00    +0.147 C 
BRANCH  29  30
ATOM     30  C   UNL     1      -5.702  -3.290   1.097  0.00  0.00    +0.358 C 
ATOM     31  O   UNL     1      -6.490  -2.698   0.378  0.00  0.00    -0.246 OA
ATOM     32  O   UNL     1      -5.816  -4.492   1.266  0.00  0.00    -0.246 OA
ENDBRANCH  29  30
ENDBRANCH  28  29
ENDBRANCH  22  28
ENDBRANCH  17  18
ENDBRANCH   2  17
TORSDOF 8
