REMARK  Name = ZINC39665939
REMARK  8 active torsions:
REMARK  status: ('A' for Active; 'I' for Inactive)
REMARK    1  A    between atoms: C_1  and  C_2
REMARK    2  A    between atoms: C_5  and  O_8
REMARK    3  A    between atoms: O_8  and  C_9
REMARK    4  A    between atoms: C_9  and  C_11
REMARK    5  A    between atoms: C_9  and  C_12
REMARK    6  A    between atoms: C_12  and  N_13
REMARK    7  A    between atoms: C_14  and  C_16
REMARK    8  A    between atoms: C_27  and  C_29
REMARK                            x       y       z     vdW  Elec       q    Type
REMARK                         _______ _______ _______ _____ _____    ______ ____
ROOT
ATOM      1  C   UNL     1      -3.890  -6.928  -0.092  0.00  0.00    +0.100 C 
ATOM      2  C   UNL     1      -3.846  -6.412  -1.548  0.00  0.00    +0.121 C 
ATOM      3  N   UNL     1      -3.910  -7.637  -2.380  0.00  0.00    -0.296 N 
ATOM      4  C   UNL     1      -4.879  -8.511  -1.676  0.00  0.00    +0.115 C 
ATOM      5  C   UNL     1      -4.571  -8.303  -0.180  0.00  0.00    -0.004 C 
ATOM      6  C   UNL     1      -5.864  -8.306   0.630  0.00  0.00    -0.010 C 
ATOM      7  C   UNL     1      -6.493  -9.700   0.576  0.00  0.00    -0.082 C 
ATOM      8  N   UNL     1      -5.550 -10.686   1.119  0.00  0.00    +0.379 N 
ATOM      9  C   UNL     1      -4.348 -10.744   0.279  0.00  0.00    -0.082 C 
ATOM     10  C   UNL     1      -3.628  -9.393   0.321  0.00  0.00    -0.010 C 
ATOM     11  C   UNL     1      -3.240  -7.897  -3.520  0.00  0.00    +0.249 C 
ATOM     12  O   UNL     1      -3.402  -8.957  -4.092  0.00  0.00    -0.270 OA
ATOM     13  H   UNL     1      -5.291 -10.421   2.057  0.00  0.00    -0.086 HD
ATOM     14  H   UNL     1      -5.989 -11.594   1.138  0.00  0.00    -0.086 HD
ENDROOT
BRANCH  11  15
ATOM     15  C   UNL     1      -2.309  -6.893  -4.075  0.00  0.00    +0.073 A 
ATOM     16  C   UNL     1      -0.962  -6.903  -3.702  0.00  0.00    +0.054 A 
ATOM     17  C   UNL     1      -0.098  -5.962  -4.225  0.00  0.00    +0.021 A 
ATOM     18  C   UNL     1      -0.562  -5.011  -5.115  0.00  0.00    +0.003 A 
ATOM     19  C   UNL     1      -1.894  -4.994  -5.489  0.00  0.00    +0.021 A 
ATOM     20  C   UNL     1      -2.769  -5.933  -4.979  0.00  0.00    +0.054 A 
ATOM     21 CL   UNL     1      -4.439  -5.915  -5.456  0.00  0.00    -0.083 Cl
ATOM     22 CL   UNL     1      -0.378  -8.095  -2.583  0.00  0.00    -0.083 Cl
ENDBRANCH  11  15
BRANCH   1  24
ATOM     23  N   UNL     1      -2.284  -7.020   1.787  0.00  0.00    -0.312 N 
ATOM     24  C   UNL     1      -2.493  -7.068   0.457  0.00  0.00    +0.218 C 
ATOM     25  O   UNL     1      -1.558  -7.224  -0.299  0.00  0.00    -0.275 OA
ATOM     26  H   UNL     1      -3.032  -6.895   2.392  0.00  0.00    +0.149 HD
BRANCH  23  27
ATOM     27  C   UNL     1      -0.926  -7.156   2.321  0.00  0.00    +0.148 C 
BRANCH  27  28
ATOM     28  C   UNL     1      -0.967  -7.066   3.847  0.00  0.00    +0.187 C 
ATOM     29  C   UNL     1       0.451  -7.209   4.404  0.00  0.00    +0.053 C 
BRANCH  28  30
ATOM     30  O   UNL     1      -1.507  -5.802   4.236  0.00  0.00    -0.488 OA
BRANCH  30  35
ATOM     31  C   UNL     1      -3.882  -5.494   9.334  0.00  0.00    +0.044 C 
ATOM     32  C   UNL     1      -3.247  -5.576   7.970  0.00  0.00    -0.050 A 
ATOM     33  C   UNL     1      -2.611  -6.738   7.574  0.00  0.00    +0.007 A 
ATOM     34  C   UNL     1      -2.027  -6.816   6.324  0.00  0.00    +0.046 A 
ATOM     35  C   UNL     1      -2.080  -5.728   5.466  0.00  0.00    +0.121 A 
ATOM     36  C   UNL     1      -2.719  -4.563   5.865  0.00  0.00    +0.046 A 
ATOM     37  C   UNL     1      -3.306  -4.492   7.114  0.00  0.00    +0.007 A 
ENDBRANCH  30  35
ENDBRANCH  28  30
ENDBRANCH  27  28
ENDBRANCH  23  27
ENDBRANCH   1  24
TORSDOF 6
