REMARK  Name = ZINC38557429
REMARK  9 active torsions:
REMARK  status: ('A' for Active; 'I' for Inactive)
REMARK    1  A    between atoms: C_1  and  C_2
REMARK    2  A    between atoms: C_14  and  C_19
REMARK    3  A    between atoms: C_16  and  C_18
REMARK    4  A    between atoms: C_19  and  C_20
REMARK    5  A    between atoms: C_20  and  C_21
REMARK    6  A    between atoms: N_23  and  CA_24
REMARK    7  A    between atoms: CA_24  and  CB_26
REMARK    8  A    between atoms: CA_24  and  C_36
REMARK    9  A    between atoms: CB_26  and  CG_27
REMARK                            x       y       z     vdW  Elec       q    Type
REMARK                         _______ _______ _______ _____ _____    ______ ____
ROOT
ATOM      1  C   UNK A   0      -3.880  -4.188   6.252  0.00  0.00    +0.214 C 
ATOM      2  O   UNK A   0      -4.507  -3.403   5.572  0.00  0.00    -0.276 OA
ATOM      3  N   TRP A   1      -4.522  -5.176   6.905  0.00  0.00    -0.302 N 
ATOM      4  H   TRP A   1      -4.020  -5.804   7.449  0.00  0.00    +0.150 HD
ENDROOT
BRANCH   1   5
ATOM      5  C   UNK A   0      -2.383  -4.056   6.367  0.00  0.00    +0.096 C 
BRANCH   5   6
ATOM      6  C   UNK A   0      -1.911  -2.862   5.535  0.00  0.00    +0.024 C 
BRANCH   6  20
ATOM      7  C   UNK A   0      -0.018   1.503   0.010  0.00  0.00    +0.047 C 
ATOM      8  C   UNK A   0       0.002  -0.004   0.002  0.00  0.00    -0.005 A 
ATOM      9  C   UNK A   0       0.009  -0.802  -1.074  0.00  0.00    +0.199 A 
ATOM     10  O   UNK A   0       0.028  -2.092  -0.694  0.00  0.00    -0.463 OA
ATOM     11  C   UNK A   0       0.033  -2.197   0.651  0.00  0.00    +0.139 A 
ATOM     12  C   UNK A   0       0.025  -0.892   1.171  0.00  0.00    +0.024 A 
ATOM     13  C   UNK A   0       0.039  -0.690   2.549  0.00  0.00    +0.019 A 
ATOM     14  C   UNK A   0       0.059  -1.762   3.403  0.00  0.00    -0.001 A 
ATOM     15  C   UNK A   0       0.064  -3.056   2.897  0.00  0.00    +0.139 A 
ATOM     16  C   UNK A   0       0.048  -3.273   1.526  0.00  0.00    +0.093 A 
ATOM     17  O   UNK A   0       0.063  -4.144   3.715  0.00  0.00    -0.425 OA
ATOM     18  C   UNK A   0       0.281  -3.937   5.029  0.00  0.00    +0.316 C 
ATOM     19  O   UNK A   0       0.978  -4.678   5.680  0.00  0.00    -0.250 OA
ATOM     20  C   UNK A   0      -0.391  -2.729   5.652  0.00  0.00    +0.106 C 
ATOM     21  C   UNK A   0       0.084  -1.490   4.887  0.00  0.00    +0.033 C 
ATOM     22  C   UNK A   0      -0.841  -0.312   5.202  0.00  0.00    +0.013 C 
ENDBRANCH   6  20
ENDBRANCH   5   6
ENDBRANCH   1   5
BRANCH   3  23
ATOM     23  CA  TRP A   1      -5.977  -5.304   6.794  0.00  0.00    +0.191 C 
BRANCH  23  24
ATOM     24  C   TRP A   1      -6.639  -4.403   7.804  0.00  0.00    +0.376 C 
ATOM     25  O   TRP A   1      -5.959  -3.718   8.548  0.00  0.00    -0.244 OA
ATOM     26  OXT TRP A   1      -7.855  -4.359   7.877  0.00  0.00    -0.244 OA
ENDBRANCH  23  24
BRANCH  23  27
ATOM     27  CB  TRP A   1      -6.383  -6.755   7.060  0.00  0.00    +0.071 C 
BRANCH  27  28
ATOM     28  CG  TRP A   1      -5.821  -7.641   5.978  0.00  0.00    -0.020 A 
ATOM     29  CD2 TRP A   1      -4.480  -8.228   5.942  0.00  0.00    +0.003 A 
ATOM     30  CE3 TRP A   1      -3.377  -8.180   6.796  0.00  0.00    +0.010 A 
ATOM     31  CZ3 TRP A   1      -2.236  -8.858   6.470  0.00  0.00    +0.001 A 
ATOM     32  CH2 TRP A   1      -2.164  -9.593   5.294  0.00  0.00    +0.002 A 
ATOM     33  CZ2 TRP A   1      -3.241  -9.653   4.437  0.00  0.00    +0.026 A 
ATOM     34  CE2 TRP A   1      -4.413  -8.972   4.750  0.00  0.00    +0.047 A 
ATOM     35  NE1 TRP A   1      -5.629  -8.838   4.119  0.00  0.00    -0.360 N 
ATOM     36  CD1 TRP A   1      -6.457  -8.047   4.868  0.00  0.00    +0.087 A 
ATOM     37  HE1 TRP A   1      -5.865  -9.247   3.272  0.00  0.00    +0.165 HD
ENDBRANCH  27  28
ENDBRANCH  23  27
ENDBRANCH   3  23
TORSDOF 7
