REMARK  Name = ZINC03390992
REMARK  4 active torsions:
REMARK  status: ('A' for Active; 'I' for Inactive)
REMARK    1  A    between atoms: C_1  and  C_2
REMARK    2  A    between atoms: C_9  and  C_11
REMARK    3  A    between atoms: N_13  and  N_14
REMARK    4  A    between atoms: C_15  and  C_16
REMARK                            x       y       z     vdW  Elec       q    Type
REMARK                         _______ _______ _______ _____ _____    ______ ____
ROOT
ATOM      1  C   UNL     1      -4.799   1.456   0.033  0.00  0.00    +0.270 C 
ATOM      2  O   UNL     1      -4.786   0.239   0.026  0.00  0.00    -0.268 OA
ATOM      3  N   UNL     1      -3.639   2.143   0.031  0.00  0.00    -0.203 N 
ATOM      4  H   UNL     1      -3.650   3.113   0.036  0.00  0.00    +0.178 HD
ENDROOT
BRANCH   1  12
ATOM      5  C   UNL     1     -12.227   2.916  -0.226  0.00  0.00    +0.008 C 
ATOM      6  C   UNL     1     -10.753   3.289  -0.391  0.00  0.00    -0.009 C 
ATOM      7  C   UNL     1     -10.443   4.527   0.455  0.00  0.00    +0.009 C 
ATOM      8  C   UNL     1      -9.050   5.049   0.076  0.00  0.00    +0.043 C 
ATOM      9  C   UNL     1      -8.100   3.891   0.064  0.00  0.00    -0.006 A 
ATOM     10  C   UNL     1      -8.419   2.563   0.057  0.00  0.00    -0.036 A 
ATOM     11  C   UNL     1      -7.363   1.667   0.046  0.00  0.00    +0.024 A 
ATOM     12  C   UNL     1      -6.076   2.175   0.043  0.00  0.00    +0.076 A 
ATOM     13  S   UNL     1      -6.378   3.934   0.061  0.00  0.00    -0.088 S 
ATOM     14  C   UNL     1      -9.879   2.118   0.060  0.00  0.00    +0.039 C 
ENDBRANCH   1  12
BRANCH   3  15
ATOM     15  N   UNL     1      -2.419   1.456   0.021  0.00  0.00    -0.187 NA
ATOM     16  C   UNL     1      -1.302   2.117   0.020  0.00  0.00    +0.139 C 
BRANCH  16  17
ATOM     17  C   UNL     1      -0.017   1.394   0.010  0.00  0.00    +0.013 A 
ATOM     18  C   UNL     1       1.187   2.102   0.002  0.00  0.00    +0.012 A 
ATOM     19  C   UNL     1       2.385   1.420  -0.013  0.00  0.00    +0.021 A 
ATOM     20  C   UNL     1       2.398   0.035  -0.021  0.00  0.00    +0.042 A 
ATOM     21  C   UNL     1       1.209  -0.674  -0.013  0.00  0.00    +0.040 A 
ATOM     22  C   UNL     1       0.002  -0.004   0.002  0.00  0.00    +0.051 A 
ATOM     23 CL   UNL     1      -1.488  -0.895   0.011  0.00  0.00    -0.083 Cl
ATOM     24 CL   UNL     1       3.911  -0.815  -0.041  0.00  0.00    -0.083 Cl
ENDBRANCH  16  17
ENDBRANCH   3  15
TORSDOF 3
