REMARK  Name = ZINC33804029
REMARK  8 active torsions:
REMARK  status: ('A' for Active; 'I' for Inactive)
REMARK    1  A    between atoms: C_1  and  C_2
REMARK    2  A    between atoms: C_5  and  C_38
REMARK    3  A    between atoms: N_8  and  C_10
REMARK    4  A    between atoms: C_11  and  C_21
REMARK    5  A    between atoms: N_25  and  C_29
REMARK    6  A    between atoms: C_29  and  C_30
REMARK    7  A    between atoms: C_33  and  O_36
REMARK    8  A    between atoms: O_36  and  C_37
REMARK                            x       y       z     vdW  Elec       q    Type
REMARK                         _______ _______ _______ _____ _____    ______ ____
ROOT
ATOM      1  C   UNL     1       2.923  -0.265   2.686  0.00  0.00    +0.136 A 
ATOM      2  C   UNL     1       4.328  -0.272   2.520  0.00  0.00    +0.081 A 
ATOM      3  C   UNL     1       5.117  -0.923   3.499  0.00  0.00    +0.267 A 
ATOM      4  O   UNL     1       6.332  -0.950   3.397  0.00  0.00    -0.267 OA
ATOM      5  N   UNL     1       4.501  -1.517   4.543  0.00  0.00    -0.268 N 
ATOM      6  C   UNL     1       5.253  -2.150   5.488  0.00  0.00    +0.096 A 
ATOM      7  C   UNL     1       4.668  -2.755   6.547  0.00  0.00    +0.018 A 
ATOM      8  C   UNL     1       3.274  -2.737   6.685  0.00  0.00    +0.005 A 
ATOM      9  C   UNL     1       2.513  -2.107   5.745  0.00  0.00    +0.047 A 
ATOM     10  C   UNL     1       3.139  -1.483   4.651  0.00  0.00    +0.142 A 
ATOM     11  N   UNL     1       2.387  -0.869   3.737  0.00  0.00    -0.214 NA
ENDROOT
BRANCH   1  17
ATOM     12  C   UNL     1       1.887   2.509  -0.186  0.00  0.00    +0.009 C 
ATOM     13  C   UNL     1       1.017   2.437   1.070  0.00  0.00    +0.004 C 
ATOM     14  C   UNL     1      -0.263   1.655   0.761  0.00  0.00    +0.009 C 
ATOM     15  C   UNL     1       0.107   0.222   0.368  0.00  0.00    +0.004 C 
ATOM     16  C   UNL     1       0.903  -0.425   1.503  0.00  0.00    +0.109 C 
ATOM     17  N   UNL     1       2.118   0.360   1.759  0.00  0.00    -0.314 N 
ATOM     18  C   UNL     1       1.788   1.726   2.185  0.00  0.00    +0.109 C 
ATOM     19  C   UNL     1      -1.170  -0.584   0.116  0.00  0.00    +0.009 C 
ENDBRANCH   1  17
BRANCH   2  20
ATOM     20  C   UNL     1       4.929   0.358   1.406  0.00  0.00    +0.037 C 
ATOM     21  C   UNL     1       5.713   1.461   1.587  0.00  0.00    +0.077 C 
ATOM     22  C   UNL     1       6.000   2.182   2.780  0.00  0.00    +0.259 C 
ATOM     23  O   UNL     1       5.522   1.842   3.848  0.00  0.00    -0.269 OA
ATOM     24  N   UNL     1       6.803   3.229   2.698  0.00  0.00    -0.251 N 
ATOM     25  C   UNL     1       7.328   3.611   1.512  0.00  0.00    +0.121 C 
ATOM     26  S   UNL     1       8.373   4.924   1.173  0.00  0.00    -0.027 S 
ATOM     27  S   UNL     1       6.653   2.397   0.388  0.00  0.00    -0.061 S 
BRANCH  24  28
ATOM     28  C   UNL     1       7.124   3.990   3.908  0.00  0.00    +0.150 C 
BRANCH  28  29
ATOM     29  C   UNL     1       6.109   5.088   4.094  0.00  0.00    -0.029 A 
ATOM     30  C   UNL     1       6.330   6.334   3.537  0.00  0.00    +0.009 A 
ATOM     31  C   UNL     1       5.398   7.341   3.701  0.00  0.00    +0.046 A 
ATOM     32  C   UNL     1       4.245   7.104   4.436  0.00  0.00    +0.120 A 
ATOM     33  C   UNL     1       4.029   5.855   4.999  0.00  0.00    +0.046 A 
ATOM     34  C   UNL     1       4.961   4.850   4.827  0.00  0.00    +0.009 A 
BRANCH  32  35
ATOM     35  O   UNL     1       3.330   8.094   4.603  0.00  0.00    -0.495 OA
ATOM     36  C   UNL     1       3.619   9.355   3.995  0.00  0.00    +0.277 C 
ENDBRANCH  32  35
ENDBRANCH  28  29
ENDBRANCH  24  28
ENDBRANCH   2  20
TORSDOF 5
