REMARK  Name = ZINC09408691
REMARK  7 active torsions:
REMARK  status: ('A' for Active; 'I' for Inactive)
REMARK    1  A    between atoms: C_1  and  C_2
REMARK    2  A    between atoms: C_2  and  N_3
REMARK    3  A    between atoms: C_13  and  S_16
REMARK    4  A    between atoms: S_16  and  C_17
REMARK    5  A    between atoms: C_17  and  C_18
REMARK    6  A    between atoms: C_24  and  C_27
REMARK    7  A    between atoms: C_30  and  C_33
REMARK                            x       y       z     vdW  Elec       q    Type
REMARK                         _______ _______ _______ _____ _____    ______ ____
ROOT
ATOM      1  C   UNL     1       1.212   7.168   3.527  0.00  0.00    +0.173 C 
ENDROOT
BRANCH   1   2
ATOM      2  C   UNL     1       2.095   8.388   3.473  0.00  0.00    +0.229 C 
ATOM      3  O   UNL     1       2.916   8.503   2.588  0.00  0.00    -0.275 OA
ATOM      4  N   UNL     1       1.973   9.350   4.408  0.00  0.00    -0.263 N 
ATOM      5  C   UNL     1       2.781  10.467   4.359  0.00  0.00    +0.182 C 
ATOM      6  N   UNL     1       3.669  10.595   3.403  0.00  0.00    -0.126 NA
ATOM      7  N   UNL     1       4.469  11.575   3.275  0.00  0.00    -0.151 NA
ATOM      8  C   UNL     1       4.836  12.407   4.191  0.00  0.00    +0.081 C 
ATOM      9  C   UNL     1       4.349  12.295   5.615  0.00  0.00    +0.135 C 
ATOM     10  S   UNL     1       2.619  11.735   5.577  0.00  0.00    -0.082 S 
ATOM     11  H   UNL     1       1.316   9.258   5.116  0.00  0.00    +0.157 HD
BRANCH   8  12
ATOM     12  C   UNL     1       5.757  13.499   3.835  0.00  0.00    -0.001 A 
ATOM     13  C   UNL     1       6.166  14.418   4.806  0.00  0.00    +0.010 A 
ATOM     14  C   UNL     1       7.034  15.434   4.467  0.00  0.00    +0.004 A 
ATOM     15  C   UNL     1       7.491  15.553   3.166  0.00  0.00    -0.050 A 
ATOM     16  C   UNL     1       7.086  14.651   2.197  0.00  0.00    +0.004 A 
ATOM     17  C   UNL     1       6.223  13.626   2.522  0.00  0.00    +0.010 A 
ATOM     18  C   UNL     1       8.434  16.670   2.802  0.00  0.00    +0.044 C 
ENDBRANCH   8  12
ENDBRANCH   1   2
BRANCH   1  19
ATOM     19  S   UNL     1       1.615   6.069   2.146  0.00  0.00    -0.075 S 
BRANCH  19  30
ATOM     20  N   UNL     1      -0.698   1.558   1.213  0.00  0.00    -0.324 N 
ATOM     21  C   UNL     1      -1.713   0.875   1.865  0.00  0.00    +0.053 A 
ATOM     22  C   UNL     1      -2.335  -0.342   1.610  0.00  0.00    +0.026 A 
ATOM     23  C   UNL     1      -3.339  -0.792   2.442  0.00  0.00    +0.002 A 
ATOM     24  C   UNL     1      -3.739  -0.039   3.535  0.00  0.00    +0.001 A 
ATOM     25  C   UNL     1      -3.135   1.170   3.804  0.00  0.00    +0.012 A 
ATOM     26  C   UNL     1      -2.119   1.636   2.972  0.00  0.00    +0.029 A 
ATOM     27  C   UNL     1      -1.285   2.850   2.971  0.00  0.00    +0.138 A 
ATOM     28  C   UNL     1      -0.423   2.737   1.860  0.00  0.00    +0.165 A 
ATOM     29  N   UNL     1       0.439   3.723   1.628  0.00  0.00    -0.201 NA
ATOM     30  C   UNL     1       0.468   4.766   2.447  0.00  0.00    +0.212 A 
ATOM     31  N   UNL     1      -0.351   4.847   3.491  0.00  0.00    -0.122 NA
ATOM     32  N   UNL     1      -1.206   3.918   3.751  0.00  0.00    -0.143 NA
BRANCH  20  34
ATOM     33  C   UNL     1      -0.753   1.593  -1.232  0.00  0.00    +0.027 C 
ATOM     34  C   UNL     1      -0.013   1.086   0.008  0.00  0.00    +0.120 C 
ENDBRANCH  20  34
ENDBRANCH  19  30
ENDBRANCH   1  19
TORSDOF 5
