REMARK  Name = ZINC65776605
REMARK  4 active torsions:
REMARK  status: ('A' for Active; 'I' for Inactive)
REMARK    1  A    between atoms: C_1  and  N_2
REMARK    2  A    between atoms: C_4  and  C_11
REMARK    3  A    between atoms: N_13  and  N_14
REMARK    4  A    between atoms: N_17  and  C_18
REMARK                            x       y       z     vdW  Elec       q    Type
REMARK                         _______ _______ _______ _____ _____    ______ ____
ROOT
ATOM      1  N   UNL     1       0.058  -4.134  -3.890  0.00  0.00    -0.218 N 
ATOM      2  C   UNL     1       0.036  -3.934  -5.223  0.00  0.00    +0.320 C 
ATOM      3  O   UNL     1       0.037  -4.886  -5.980  0.00  0.00    -0.251 OA
ATOM      4  N   UNL     1       0.014  -2.680  -5.716  0.00  0.00    -0.266 N 
ATOM      5  H   UNL     1       0.074  -5.037  -3.535  0.00  0.00    +0.174 HD
ATOM      6  H   UNL     1      -0.069  -1.924  -5.114  0.00  0.00    +0.156 HD
ENDROOT
BRANCH   4   7
ATOM      7  C   UNL     1       0.110  -2.470  -7.094  0.00  0.00    +0.061 A 
ATOM      8  C   UNL     1       0.720  -3.408  -7.898  0.00  0.00    +0.025 A 
ATOM      9  C   UNL     1       0.823  -3.210  -9.272  0.00  0.00    +0.003 A 
ATOM     10  C   UNL     1       0.324  -2.087  -9.858  0.00  0.00    +0.010 A 
ATOM     11  C   UNL     1      -0.305  -1.108  -9.072  0.00  0.00    +0.002 A 
ATOM     12  C   UNL     1      -0.421  -1.297  -7.673  0.00  0.00    +0.092 A 
ATOM     13  N   UNL     1      -1.023  -0.370  -6.923  0.00  0.00    -0.253 NA
ATOM     14  C   UNL     1      -1.518   0.721  -7.455  0.00  0.00    +0.111 A 
ATOM     15  C   UNL     1      -1.443   0.968  -8.825  0.00  0.00    +0.020 A 
ATOM     16  C   UNL     1      -0.830   0.066  -9.647  0.00  0.00    +0.011 A 
ENDBRANCH   4   7
BRANCH   1  19
ATOM     17  C   UNL     1       0.079  -3.237  -1.685  0.00  0.00    +0.262 C 
ATOM     18  O   UNL     1       0.099  -4.370  -1.239  0.00  0.00    -0.269 OA
ATOM     19  N   UNL     1       0.057  -3.038  -3.017  0.00  0.00    -0.229 N 
ATOM     20  H   UNL     1       0.041  -2.135  -3.372  0.00  0.00    +0.173 HD
BRANCH  17  24
ATOM     21  C   UNL     1       0.045   1.463   0.009  0.00  0.00    +0.149 C 
ATOM     22  N   UNL     1       0.063  -0.002   0.001  0.00  0.00    -0.349 N 
ATOM     23  C   UNL     1       0.057  -0.769  -1.116  0.00  0.00    +0.099 A 
ATOM     24  C   UNL     1       0.078  -2.088  -0.769  0.00  0.00    +0.063 A 
ATOM     25  C   UNL     1       0.100  -2.133   0.704  0.00  0.00    +0.012 A 
ATOM     26  C   UNL     1       0.095  -0.795   1.130  0.00  0.00    +0.050 A 
ATOM     27  C   UNL     1       0.117  -0.512   2.491  0.00  0.00    +0.026 A 
ATOM     28  C   UNL     1       0.148  -1.541   3.407  0.00  0.00    +0.002 A 
ATOM     29  C   UNL     1       0.157  -2.863   2.985  0.00  0.00    +0.001 A 
ATOM     30  C   UNL     1       0.126  -3.163   1.640  0.00  0.00    +0.011 A 
ENDBRANCH  17  24
ENDBRANCH   1  19
TORSDOF 3
