REMARK  Name = ZINC34747679
REMARK  5 active torsions:
REMARK  status: ('A' for Active; 'I' for Inactive)
REMARK    1  A    between atoms: C_1  and  C_2
REMARK    2  A    between atoms: C_2  and  N_3
REMARK    3  A    between atoms: N_21  and  C_22
REMARK    4  A    between atoms: C_22  and  C_23
REMARK    5  A    between atoms: N_25  and  C_26
REMARK                            x       y       z     vdW  Elec       q    Type
REMARK                         _______ _______ _______ _____ _____    ______ ____
ROOT
ATOM      1  N   UNL     1       1.118   0.447  -2.275  0.00  0.00    +0.382 N 
ATOM      2  C   UNL     1       1.651   0.188  -3.618  0.00  0.00    -0.060 C 
ATOM      3  C   UNL     1       1.771  -1.324  -3.836  0.00  0.00    +0.089 C 
ATOM      4  N   UNL     1       2.577  -1.890  -2.743  0.00  0.00    -0.304 N 
ATOM      5  C   UNL     1       2.209  -1.547  -1.361  0.00  0.00    +0.089 C 
ATOM      6  C   UNL     1       2.069  -0.024  -1.260  0.00  0.00    -0.060 C 
ATOM      7  C   UNL     1       3.642  -2.716  -3.006  0.00  0.00    +0.202 A 
ATOM      8  N   UNL     1       4.838  -2.195  -3.183  0.00  0.00    -0.208 NA
ATOM      9  C   UNL     1       5.886  -2.972  -3.438  0.00  0.00    +0.117 A 
ATOM     10  C   UNL     1       5.774  -4.366  -3.532  0.00  0.00    +0.076 A 
ATOM     11  C   UNL     1       7.020  -5.096  -3.820  0.00  0.00    -0.023 A 
ATOM     12  C   UNL     1       8.135  -4.362  -3.962  0.00  0.00    -0.004 A 
ATOM     13  S   UNL     1       7.610  -2.679  -3.730  0.00  0.00    -0.073 S 
ATOM     14  C   UNL     1       9.343  -5.213  -4.248  0.00  0.00    +0.043 C 
ATOM     15  C   UNL     1       8.916  -6.641  -3.842  0.00  0.00    +0.010 C 
ATOM     16  C   UNL     1       7.386  -6.570  -4.013  0.00  0.00    +0.037 C 
ATOM     17  C   UNL     1       4.464  -4.905  -3.335  0.00  0.00    +0.264 A 
ATOM     18  O   UNL     1       4.273  -6.107  -3.397  0.00  0.00    -0.267 OA
ATOM     19  N   UNL     1       3.446  -4.064  -3.075  0.00  0.00    -0.271 N 
ATOM     20  H   UNL     1       0.241  -0.040  -2.164  0.00  0.00    -0.082 HD
ENDROOT
BRANCH   1  22
ATOM     21  C   UNL     1      -0.183   2.359  -3.080  0.00  0.00    -0.017 C 
ATOM     22  C   UNL     1       0.899   1.890  -2.106  0.00  0.00    -0.082 C 
ENDBRANCH   1  22
BRANCH  19  23
ATOM     23  C   UNL     1       2.101  -4.606  -2.866  0.00  0.00    +0.223 C 
BRANCH  23  24
ATOM     24  C   UNL     1       1.413  -4.768  -4.197  0.00  0.00    +0.233 C 
ATOM     25  O   UNL     1       1.990  -4.461  -5.219  0.00  0.00    -0.274 OA
ATOM     26  N   UNL     1       0.157  -5.254  -4.252  0.00  0.00    -0.311 N 
ATOM     27  H   UNL     1      -0.304  -5.499  -3.435  0.00  0.00    +0.149 HD
BRANCH  26  28
ATOM     28  C   UNL     1      -0.512  -5.412  -5.546  0.00  0.00    +0.073 C 
ATOM     29  C   UNL     1      -1.164  -4.087  -5.948  0.00  0.00    +0.022 C 
ATOM     30  C   UNL     1      -1.862  -4.252  -7.299  0.00  0.00    +0.002 C 
ATOM     31  C   UNL     1      -2.936  -5.337  -7.190  0.00  0.00    +0.000 C 
ATOM     32  C   UNL     1      -2.284  -6.661  -6.788  0.00  0.00    +0.002 C 
ATOM     33  C   UNL     1      -1.585  -6.496  -5.436  0.00  0.00    +0.022 C 
ENDBRANCH  26  28
ENDBRANCH  23  24
ENDBRANCH  19  23
TORSDOF 4
