REMARK  Name = ZINC06015018
REMARK  15 active torsions:
REMARK  status: ('A' for Active; 'I' for Inactive)
REMARK    1  A    between atoms: C_1  and  C_2
REMARK    2  A    between atoms: C_2  and  C_3
REMARK    3  A    between atoms: C_2  and  C_4
REMARK    4  A    between atoms: C_2  and  N_5
REMARK    5  A    between atoms: C_6  and  C_10
REMARK    6  A    between atoms: C_10  and  C_12
REMARK    7  A    between atoms: C_10  and  N_71
REMARK    8  A    between atoms: C_16  and  O_24
REMARK    9  A    between atoms: O_24  and  C_25
REMARK   10  A    between atoms: C_26  and  C_27
REMARK   11  A    between atoms: C_26  and  N_71
REMARK   12  A    between atoms: C_31  and  O_33
REMARK   13  A    between atoms: O_33  and  C_34
REMARK   14  A    between atoms: C_35  and  C_36
REMARK   15  A    between atoms: C_35  and  N_71
REMARK                            x       y       z     vdW  Elec       q    Type
REMARK                         _______ _______ _______ _____ _____    ______ ____
ROOT
ATOM      1  C   UNL     1       4.015   1.495   0.387  0.00  0.00    +0.040 C 
ENDROOT
BRANCH   1   2
ATOM      2  C   UNL     1       4.916   1.912   1.521  0.00  0.00    +0.011 A 
ATOM      3  C   UNL     1       5.614   0.976   2.209  0.00  0.00    +0.017 A 
ATOM      4  C   UNL     1       6.484   1.414   3.302  0.00  0.00    +0.002 A 
ATOM      5  C   UNL     1       7.231   0.493   4.044  0.00  0.00    +0.055 A 
ATOM      6  C   UNL     1       8.038   0.940   5.071  0.00  0.00    +0.121 A 
ATOM      7  C   UNL     1       8.109   2.299   5.369  0.00  0.00    +0.047 A 
ATOM      8  C   UNL     1       7.378   3.216   4.646  0.00  0.00    +0.030 A 
ATOM      9  C   UNL     1       6.559   2.786   3.606  0.00  0.00    +0.049 A 
ATOM     10  N   UNL     1       5.819   3.689   2.870  0.00  0.00    -0.322 N 
ATOM     11  H   UNL     1       5.873   4.663   3.087  0.00  0.00    +0.169 HD
ATOM     12  C   UNL     1       5.026   3.276   1.865  0.00  0.00    +0.251 A 
ATOM     13  O   UNL     1       4.387   4.102   1.236  0.00  0.00    -0.268 OA
BRANCH   6  14
ATOM     14  O   UNL     1       8.766   0.050   5.796  0.00  0.00    -0.495 OA
ATOM     15  C   UNL     1       9.580   0.579   6.844  0.00  0.00    +0.277 C 
ENDBRANCH   6  14
ENDBRANCH   1   2
BRANCH   1  17
ATOM     16  N   UNL     1       1.641   0.912   1.115  0.00  0.00    -0.225 N 
ATOM     17  C   UNL     1       2.583   1.800   0.745  0.00  0.00    +0.143 A 
ATOM     18  N   UNL     1       2.014   2.980   0.757  0.00  0.00    -0.115 NA
ATOM     19  N   UNL     1       0.786   2.826   1.115  0.00  0.00    -0.023 NA
ATOM     20  N   UNL     1       0.557   1.578   1.333  0.00  0.00    -0.043 NA
BRANCH  16  22
ATOM     21  C   UNL     1       0.527  -1.155   1.797  0.00  0.00    +0.036 C 
ATOM     22  C   UNL     1       1.813  -0.536   1.247  0.00  0.00    +0.059 C 
ATOM     23  C   UNL     1       2.124  -1.140  -0.125  0.00  0.00    +0.036 C 
ATOM     24  C   UNL     1       2.970  -0.827   2.205  0.00  0.00    +0.036 C 
ENDBRANCH  16  22
ENDBRANCH   1  17
BRANCH   1  25
ATOM     25  N   UNL     1       4.377   2.260  -0.824  0.00  0.00    +0.397 N 
ATOM     26  H   UNL     1       4.157   3.251  -0.671  0.00  0.00    -0.079 HD
BRANCH  25  27
ATOM     27  C   UNL     1       3.601   1.769  -1.983  0.00  0.00    -0.041 C 
BRANCH  27  28
ATOM     28  C   UNL     1       2.256   2.450  -1.983  0.00  0.00    -0.060 A 
ATOM     29  C   UNL     1       2.123   3.716  -2.524  0.00  0.00    +0.002 A 
ATOM     30  C   UNL     1       0.890   4.342  -2.527  0.00  0.00    +0.004 A 
ATOM     31  C   UNL     1      -0.211   3.704  -1.989  0.00  0.00    +0.045 A 
ATOM     32  C   UNL     1      -0.080   2.435  -1.446  0.00  0.00    +0.120 A 
ATOM     33  C   UNL     1       1.157   1.806  -1.449  0.00  0.00    +0.047 A 
BRANCH  32  34
ATOM     34  O   UNL     1      -1.162   1.806  -0.917  0.00  0.00    -0.495 OA
ATOM     35  C   UNL     1      -2.405   2.510  -0.954  0.00  0.00    +0.277 C 
ENDBRANCH  32  34
ENDBRANCH  27  28
ENDBRANCH  25  27
BRANCH  25  36
ATOM     36  C   UNL     1       5.824   2.125  -1.093  0.00  0.00    -0.001 C 
BRANCH  36  37
ATOM     37  C   UNL     1       6.232   3.179  -2.090  0.00  0.00    +0.089 A 
ATOM     38  C   UNL     1       6.646   4.424  -1.794  0.00  0.00    +0.042 A 
ATOM     39  C   UNL     1       6.923   5.067  -3.022  0.00  0.00    +0.041 A 
ATOM     40  C   UNL     1       6.661   4.176  -3.996  0.00  0.00    +0.195 A 
ATOM     41  O   UNL     1       6.249   3.033  -3.425  0.00  0.00    -0.470 OA
ENDBRANCH  36  37
ENDBRANCH  25  36
ENDBRANCH   1  25
TORSDOF 10
