REMARK  Name = ZINC09001202
REMARK  9 active torsions:
REMARK  status: ('A' for Active; 'I' for Inactive)
REMARK    1  A    between atoms: C_1  and  C_2
REMARK    2  A    between atoms: N_5  and  S_11
REMARK    3  A    between atoms: C_7  and  C_10
REMARK    4  A    between atoms: S_11  and  C_14
REMARK    5  A    between atoms: C_17  and  C_20
REMARK    6  A    between atoms: C_20  and  N_22
REMARK    7  A    between atoms: N_24  and  C_35
REMARK    8  A    between atoms: C_28  and  N_32
REMARK    9  A    between atoms: C_35  and  C_36
REMARK                            x       y       z     vdW  Elec       q    Type
REMARK                         _______ _______ _______ _____ _____    ______ ____
ROOT
ATOM      1  C   UNL     1      -1.357  -4.473  -0.008  0.00  0.00    +0.269 C 
ATOM      2  O   UNL     1      -0.168  -4.740  -0.021  0.00  0.00    -0.268 OA
ENDROOT
BRANCH   1   3
ATOM      3  N   UNL     1      -1.756  -3.197   0.003  0.00  0.00    -0.152 NA
ATOM      4  C   UNL     1      -0.857  -2.220  -0.001  0.00  0.00    +0.168 A 
ATOM      5  N   UNL     1      -1.070  -0.876   0.008  0.00  0.00    -0.310 N 
ATOM      6  C   UNL     1       0.002  -0.004   0.002  0.00  0.00    +0.059 A 
ATOM      7  C   UNL     1      -0.017   1.400   0.010  0.00  0.00    +0.029 A 
ATOM      8  C   UNL     1       1.155   2.119   0.002  0.00  0.00    +0.035 A 
ATOM      9  C   UNL     1       2.386   1.485  -0.014  0.00  0.00    +0.127 A 
ATOM     10  C   UNL     1       2.434   0.102  -0.021  0.00  0.00    +0.050 A 
ATOM     11  C   UNL     1       1.263  -0.618  -0.013  0.00  0.00    +0.041 A 
ATOM     12  S   UNL     1       0.873  -2.350  -0.018  0.00  0.00    -0.052 S 
BRANCH   9  13
ATOM     13  N   UNL     1       3.636   2.277  -0.022  0.00  0.00    +0.056 N 
ATOM     14  O   UNL     1       4.715   1.713  -0.036  0.00  0.00    -0.126 OA
ATOM     15  O   UNL     1       3.586   3.494  -0.016  0.00  0.00    -0.126 OA
ENDBRANCH   9  13
BRANCH   5  16
ATOM     16  C   UNL     1      -2.439  -0.353   0.024  0.00  0.00    +0.212 C 
BRANCH  16  17
ATOM     17  C   UNL     1      -2.911  -0.171  -1.358  0.00  0.00    -0.084 C 
ATOM     18  C   UNL     1      -3.287  -0.026  -2.461  0.00  0.00    +0.005 C 
ENDBRANCH  16  17
ENDBRANCH   5  16
ENDBRANCH   1   3
BRANCH   1  22
ATOM     19  C   UNL     1      -4.236  -7.600   0.005  0.00  0.00    +0.106 A 
ATOM     20  C   UNL     1      -2.887  -7.906  -0.010  0.00  0.00    +0.029 A 
ATOM     21  C   UNL     1      -1.947  -6.895  -0.015  0.00  0.00    +0.015 A 
ATOM     22  C   UNL     1      -2.361  -5.563  -0.004  0.00  0.00    +0.039 A 
ATOM     23  C   UNL     1      -3.722  -5.261   0.018  0.00  0.00    +0.015 A 
ATOM     24  C   UNL     1      -4.652  -6.281   0.016  0.00  0.00    +0.029 A 
BRANCH  19  25
ATOM     25  S   UNL     1      -5.429  -8.897   0.011  0.00  0.00    +0.061 S 
ATOM     26  O   UNL     1      -6.626  -8.349  -0.524  0.00  0.00    -0.153 OA
ATOM     27  O   UNL     1      -4.794 -10.036  -0.552  0.00  0.00    -0.153 OA
BRANCH  25  31
ATOM     28  C   UNL     1      -5.228  -6.953   3.376  0.00  0.00    +0.039 C 
ATOM     29  C   UNL     1      -6.239  -8.066   3.657  0.00  0.00    +0.131 C 
ATOM     30  C   UNL     1      -6.816  -8.579   2.333  0.00  0.00    +0.140 C 
ATOM     31  N   UNL     1      -5.744  -9.265   1.595  0.00  0.00    -0.172 NA
ATOM     32  C   UNL     1      -4.964 -10.292   2.303  0.00  0.00    +0.140 C 
ATOM     33  C   UNL     1      -4.474  -9.691   3.630  0.00  0.00    +0.131 C 
ATOM     34  O   UNL     1      -5.589  -9.142   4.336  0.00  0.00    -0.371 OA
ATOM     35  C   UNL     1      -3.823 -10.788   4.476  0.00  0.00    +0.039 C 
ENDBRANCH  25  31
ENDBRANCH  19  25
ENDBRANCH   1  22
TORSDOF 7
