REMARK  Name = ZINC13346516
REMARK  8 active torsions:
REMARK  status: ('A' for Active; 'I' for Inactive)
REMARK    1  A    between atoms: C_3  and  C_26
REMARK    2  A    between atoms: C_5  and  S_7
REMARK    3  A    between atoms: S_7  and  N_10
REMARK    4  A    between atoms: N_10  and  N_11
REMARK    5  A    between atoms: C_12  and  C_14
REMARK    6  A    between atoms: C_14  and  O_15
REMARK    7  A    between atoms: O_15  and  C_16
REMARK    8  A    between atoms: C_20  and  C_22
REMARK                            x       y       z     vdW  Elec       q    Type
REMARK                         _______ _______ _______ _____ _____    ______ ____
ROOT
ATOM      1  N   UNL     1       1.193   1.683  -0.000  0.00  0.00    -0.229 N 
ATOM      2  C   UNL     1       2.123   1.447   0.946  0.00  0.00    +0.265 C 
ATOM      3  O   UNL     1       1.919   0.615   1.804  0.00  0.00    -0.271 OA
ATOM      4  H   UNL     1       1.356   2.349  -0.686  0.00  0.00    +0.171 HD
ENDROOT
BRANCH   1   5
ATOM      5  N   UNL     1      -0.011   0.966   0.007  0.00  0.00    -0.108 NA
ATOM      6  H   UNL     1       0.002  -0.004   0.002  0.00  0.00    +0.172 HD
BRANCH   5   7
ATOM      7  S   UNL     1      -1.456   1.774   0.019  0.00  0.00    +0.074 S 
ATOM      8  O   UNL     1      -2.472   0.792  -0.128  0.00  0.00    -0.152 OA
ATOM      9  O   UNL     1      -1.413   2.667   1.123  0.00  0.00    -0.152 OA
BRANCH   7  14
ATOM     10  C   UNL     1      -1.053   4.854  -2.536  0.00  0.00    +0.003 A 
ATOM     11  C   UNL     1      -1.578   4.356  -3.710  0.00  0.00    +0.015 A 
ATOM     12  C   UNL     1      -2.074   3.051  -3.751  0.00  0.00    +0.065 A 
ATOM     13  C   UNL     1      -2.035   2.260  -2.601  0.00  0.00    +0.043 A 
ATOM     14  C   UNL     1      -1.507   2.771  -1.433  0.00  0.00    +0.108 A 
ATOM     15  C   UNL     1      -1.022   4.067  -1.399  0.00  0.00    +0.028 A 
BRANCH  12  16
ATOM     16  C   UNL     1      -2.639   2.511  -5.004  0.00  0.00    +0.387 C 
ATOM     17  O   UNL     1      -3.070   1.376  -5.036  0.00  0.00    -0.241 OA
ATOM     18  O   UNL     1      -2.675   3.277  -6.112  0.00  0.00    -0.241 OA
ENDBRANCH  12  16
ENDBRANCH   7  14
ENDBRANCH   5   7
ENDBRANCH   1   5
BRANCH   2  19
ATOM     19  C   UNL     1       3.418   2.219   0.938  0.00  0.00    +0.325 C 
BRANCH  19  20
ATOM     20  O   UNL     1       4.233   1.792   2.031  0.00  0.00    -0.483 OA
BRANCH  20  21
ATOM     21  C   UNL     1       5.444   2.393   2.169  0.00  0.00    +0.122 A 
ATOM     22  C   UNL     1       5.842   3.369   1.266  0.00  0.00    +0.046 A 
ATOM     23  C   UNL     1       7.072   3.982   1.411  0.00  0.00    +0.004 A 
ATOM     24  C   UNL     1       7.910   3.617   2.449  0.00  0.00    +0.012 A 
ATOM     25  C   UNL     1       7.518   2.641   3.346  0.00  0.00    +0.058 A 
ATOM     26  C   UNL     1       6.287   2.028   3.208  0.00  0.00    +0.058 A 
BRANCH  25  27
ATOM     27  C   UNL     1       8.434   2.244   4.475  0.00  0.00    +0.418 C 
ATOM     28  F   UNL     1       9.263   1.198   4.057  0.00  0.00    -0.166 F 
ATOM     29  F   UNL     1       9.219   3.341   4.846  0.00  0.00    -0.166 F 
ATOM     30  F   UNL     1       7.670   1.826   5.570  0.00  0.00    -0.166 F 
ENDBRANCH  25  27
ENDBRANCH  20  21
ENDBRANCH  19  20
ENDBRANCH   2  19
TORSDOF 8
