REMARK  Name = ZINC60040314
REMARK  6 active torsions:
REMARK  status: ('A' for Active; 'I' for Inactive)
REMARK    1  A    between atoms: C_3  and  C_6
REMARK    2  A    between atoms: N_8  and  C_9
REMARK    3  A    between atoms: N_12  and  C_15
REMARK    4  A    between atoms: C_15  and  C_16
REMARK    5  A    between atoms: N_18  and  C_19
REMARK    6  A    between atoms: C_19  and  C_20
REMARK                            x       y       z     vdW  Elec       q    Type
REMARK                         _______ _______ _______ _____ _____    ______ ____
ROOT
ATOM      1  C   UNL     1       6.107   1.160  -0.050  0.00  0.00    +0.070 C 
ATOM      2  C   UNL     1       6.579   1.409   1.385  0.00  0.00    +0.004 C 
ATOM      3  C   UNL     1       8.067   1.766   1.373  0.00  0.00    -0.076 C 
ATOM      4  N   UNL     1       8.835   0.660   0.789  0.00  0.00    +0.385 N 
ATOM      5  C   UNL     1       8.438   0.463  -0.610  0.00  0.00    -0.076 C 
ATOM      6  C   UNL     1       6.965   0.055  -0.674  0.00  0.00    +0.004 C 
ATOM      7  H   UNL     1       8.655  -0.185   1.311  0.00  0.00    -0.081 HD
ENDROOT
BRANCH   1  10
ATOM      8  C   UNL     1       3.725   1.670  -0.025  0.00  0.00    +0.251 C 
ATOM      9  O   UNL     1       4.008   2.853  -0.021  0.00  0.00    -0.270 OA
ATOM     10  N   UNL     1       4.703   0.743  -0.039  0.00  0.00    -0.308 N 
ATOM     11  H   UNL     1       4.477  -0.201  -0.042  0.00  0.00    +0.149 HD
BRANCH   8  14
ATOM     12  C   UNL     1      -0.016   1.352   0.009  0.00  0.00    +0.008 A 
ATOM     13  C   UNL     1       1.175   2.036   0.002  0.00  0.00    +0.021 A 
ATOM     14  C   UNL     1       2.320   1.253  -0.013  0.00  0.00    +0.074 A 
ATOM     15  S   UNL     1       1.636  -0.394  -0.016  0.00  0.00    -0.092 S 
ATOM     16  C   UNL     1       0.002  -0.004   0.002  0.00  0.00    +0.046 A 
ENDBRANCH   8  14
ENDBRANCH   1  10
BRANCH   4  17
ATOM     17  C   UNL     1      10.268   0.975   0.850  0.00  0.00    +0.019 C 
BRANCH  17  18
ATOM     18  C   UNL     1      11.064  -0.209   0.365  0.00  0.00    +0.197 C 
ATOM     19  O   UNL     1      10.493  -1.216   0.003  0.00  0.00    -0.278 OA
ATOM     20  N   UNL     1      12.410  -0.149   0.332  0.00  0.00    -0.313 N 
ATOM     21  H   UNL     1      12.866   0.657   0.621  0.00  0.00    +0.149 HD
BRANCH  20  22
ATOM     22  C   UNL     1      13.183  -1.300  -0.140  0.00  0.00    +0.139 C 
BRANCH  22  23
ATOM     23  C   UNL     1      14.654  -0.977  -0.077  0.00  0.00    -0.027 A 
ATOM     24  C   UNL     1      15.280  -0.396  -1.165  0.00  0.00    +0.009 A 
ATOM     25  C   UNL     1      16.628  -0.097  -1.112  0.00  0.00    +0.050 A 
ATOM     26  C   UNL     1      17.357  -0.380   0.033  0.00  0.00    +0.166 A 
ATOM     27  C   UNL     1      16.726  -0.965   1.128  0.00  0.00    +0.167 A 
ATOM     28  C   UNL     1      15.373  -1.256   1.070  0.00  0.00    +0.054 A 
ATOM     29  O   UNL     1      17.648  -1.141   2.119  0.00  0.00    -0.453 OA
ATOM     30  C   UNL     1      18.931  -1.035   1.474  0.00  0.00    +0.466 C 
ATOM     31  O   UNL     1      18.674  -0.189   0.337  0.00  0.00    -0.453 OA
ENDBRANCH  22  23
ENDBRANCH  20  22
ENDBRANCH  17  18
ENDBRANCH   4  17
TORSDOF 6
