REMARK  Name = ZINC19263496
REMARK  5 active torsions:
REMARK  status: ('A' for Active; 'I' for Inactive)
REMARK    1  A    between atoms: C_1  and  C_2
REMARK    2  A    between atoms: C_4  and  C_9
REMARK    3  A    between atoms: C_7  and  N_8
REMARK    4  A    between atoms: N_11  and  C_12
REMARK    5  A    between atoms: C_17  and  C_18
REMARK                            x       y       z     vdW  Elec       q    Type
REMARK                         _______ _______ _______ _____ _____    ______ ____
ROOT
ATOM      1  C   UNL     1      -2.414  -0.302  -0.091  0.00  0.00    +0.248 C 
ATOM      2  O   UNL     1      -1.356  -0.901  -0.099  0.00  0.00    -0.270 OA
ATOM      3  N   UNL     1      -2.428   1.041   0.019  0.00  0.00    -0.281 N 
ATOM      4  H   UNL     1      -3.384   1.575   0.118  0.00  0.00    +0.155 HD
ENDROOT
BRANCH   3   5
ATOM      5  C   UNL     1      -1.225   1.756   0.006  0.00  0.00    +0.037 A 
ATOM      6  C   UNL     1      -0.102   1.218  -0.611  0.00  0.00    +0.024 A 
ATOM      7  C   UNL     1       1.081   1.929  -0.627  0.00  0.00    +0.017 A 
ATOM      8  C   UNL     1       1.152   3.172  -0.025  0.00  0.00    +0.018 A 
ATOM      9  C   UNL     1       0.037   3.707   0.596  0.00  0.00    +0.020 A 
ATOM     10  C   UNL     1      -1.150   3.001   0.615  0.00  0.00    -0.028 A 
ATOM     11  C   UNL     1      -2.364   3.584   1.292  0.00  0.00    +0.046 C 
ATOM     12 BR   UNL     1       2.775   4.143  -0.049  0.00  0.00    -0.050 Br
ENDBRANCH   3   5
BRANCH   1  16
ATOM     13  C   UNL     1      -4.845  -4.632  -0.539  0.00  0.00    +0.045 C 
ATOM     14  C   UNL     1      -4.857  -3.130  -0.416  0.00  0.00    -0.029 A 
ATOM     15  C   UNL     1      -3.671  -2.439  -0.314  0.00  0.00    +0.018 A 
ATOM     16  C   UNL     1      -3.683  -1.046  -0.201  0.00  0.00    +0.037 A 
ATOM     17  C   UNL     1      -4.901  -0.359  -0.185  0.00  0.00    +0.015 A 
ATOM     18  C   UNL     1      -6.083  -1.056  -0.292  0.00  0.00    +0.024 A 
ATOM     19  C   UNL     1      -6.067  -2.443  -0.406  0.00  0.00    +0.028 A 
BRANCH  19  20
ATOM     20  N   UNL     1      -7.264  -3.144  -0.509  0.00  0.00    -0.358 N 
ATOM     21  H   UNL     1      -8.221  -2.603  -0.502  0.00  0.00    +0.142 HD
ATOM     22  H   UNL     1      -7.253  -4.241  -0.599  0.00  0.00    +0.142 HD
ENDBRANCH  19  20
ENDBRANCH   1  16
TORSDOF 3
