REMARK  Name = ZINC39941699
REMARK  3 active torsions:
REMARK  status: ('A' for Active; 'I' for Inactive)
REMARK    1  A    between atoms: C_10  and  C_11
REMARK    2  A    between atoms: N_13  and  N_14
REMARK    3  A    between atoms: C_15  and  C_16
REMARK                            x       y       z     vdW  Elec       q    Type
REMARK                         _______ _______ _______ _____ _____    ______ ____
ROOT
ATOM      1  C   UNL     1       4.986   0.094  -0.046  0.00  0.00    +0.264 C 
ATOM      2  O   UNL     1       4.985   1.307  -0.131  0.00  0.00    -0.268 OA
ATOM      3  N   UNL     1       6.153  -0.575   0.041  0.00  0.00    -0.203 N 
ATOM      4  H   UNL     1       6.154  -1.542   0.110  0.00  0.00    +0.178 HD
ENDROOT
BRANCH   1  14
ATOM      5  C   UNL     1      -0.016   1.357   0.064  0.00  0.00    +0.001 A 
ATOM      6  C   UNL     1       1.168   2.090   0.057  0.00  0.00    +0.001 A 
ATOM      7  C   UNL     1       2.379   1.466   0.024  0.00  0.00    +0.009 A 
ATOM      8  C   UNL     1       2.436   0.067  -0.002  0.00  0.00    -0.006 A 
ATOM      9  C   UNL     1       1.233  -0.682   0.005  0.00  0.00    -0.017 A 
ATOM     10  C   UNL     1       0.003  -0.004   0.038  0.00  0.00    +0.008 A 
ATOM     11  C   UNL     1       1.294  -2.086  -0.021  0.00  0.00    +0.008 A 
ATOM     12  C   UNL     1       2.494  -2.728  -0.052  0.00  0.00    +0.001 A 
ATOM     13  C   UNL     1       3.696  -2.034  -0.060  0.00  0.00    +0.014 A 
ATOM     14  C   UNL     1       3.711  -0.646  -0.037  0.00  0.00    +0.046 A 
ENDBRANCH   1  14
BRANCH   3  15
ATOM     15  N   UNL     1       7.365   0.128   0.033  0.00  0.00    -0.191 NA
ATOM     16  C   UNL     1       8.473  -0.507   0.116  0.00  0.00    +0.120 C 
BRANCH  16  17
ATOM     17  C   UNL     1       9.777   0.249   0.107  0.00  0.00    +0.141 C 
ATOM     18  C   UNL     1      10.454   0.025   1.445  0.00  0.00    +0.001 C 
ATOM     19  C   UNL     1      11.701  -0.526   1.430  0.00  0.00    -0.007 A 
ATOM     20  C   UNL     1      12.426  -0.777   2.676  0.00  0.00    +0.009 A 
ATOM     21  C   UNL     1      13.666  -1.327   2.613  0.00  0.00    +0.001 A 
ATOM     22  C   UNL     1      14.254  -1.654   1.391  0.00  0.00    +0.002 A 
ATOM     23  C   UNL     1      13.634  -1.446   0.200  0.00  0.00    +0.024 A 
ATOM     24  C   UNL     1      12.347  -0.881   0.154  0.00  0.00    +0.040 A 
ATOM     25  N   UNL     1      11.748  -0.682  -1.020  0.00  0.00    -0.284 N 
ATOM     26  C   UNL     1      10.540  -0.157  -1.134  0.00  0.00    +0.229 C 
ATOM     27  O   UNL     1      10.045   0.000  -2.234  0.00  0.00    -0.274 OA
ATOM     28  H   UNL     1      12.220  -0.935  -1.828  0.00  0.00    +0.155 HD
ENDBRANCH  16  17
ENDBRANCH   3  15
TORSDOF 3
