REMARK  Name = ZINC19863103
REMARK  6 active torsions:
REMARK  status: ('A' for Active; 'I' for Inactive)
REMARK    1  A    between atoms: C_3  and  O_13
REMARK    2  A    between atoms: C_4  and  C_8
REMARK    3  A    between atoms: O_13  and  C_14
REMARK    4  A    between atoms: C_14  and  C_15
REMARK    5  A    between atoms: N_17  and  N_18
REMARK    6  A    between atoms: C_19  and  C_20
REMARK                            x       y       z     vdW  Elec       q    Type
REMARK                         _______ _______ _______ _____ _____    ______ ____
ROOT
ATOM      1  C   UNL     1       6.408   7.683  -0.021  0.00  0.00    +0.270 C 
ATOM      2  O   UNL     1       5.401   8.360  -0.008  0.00  0.00    -0.270 OA
ATOM      3  N   UNL     1       6.315   6.338  -0.027  0.00  0.00    -0.204 N 
ATOM      4  H   UNL     1       7.228   5.724  -0.040  0.00  0.00    +0.177 HD
ENDROOT
BRANCH   3   5
ATOM      5  N   UNL     1       5.057   5.722  -0.018  0.00  0.00    -0.187 NA
ATOM      6  C   UNL     1       4.968   4.427  -0.023  0.00  0.00    +0.145 C 
BRANCH   6   7
ATOM      7  C   UNL     1       3.645   3.779  -0.013  0.00  0.00    +0.077 A 
ATOM      8  C   UNL     1       3.535   2.420  -0.019  0.00  0.00    +0.209 A 
ATOM      9  O   UNL     1       2.356   1.796  -0.011  0.00  0.00    -0.461 OA
ATOM     10  C   UNL     1       1.174   2.444   0.004  0.00  0.00    +0.157 A 
ATOM     11  C   UNL     1       1.134   3.848   0.011  0.00  0.00    +0.067 A 
ATOM     12  C   UNL     1       2.412   4.587   0.003  0.00  0.00    +0.201 A 
ATOM     13  O   UNL     1       2.445   5.805   0.009  0.00  0.00    -0.286 OA
ATOM     14  C   UNL     1      -0.088   4.517   0.027  0.00  0.00    +0.035 A 
ATOM     15  C   UNL     1      -1.261   3.792   0.035  0.00  0.00    +0.043 A 
ATOM     16  C   UNL     1      -1.225   2.405   0.021  0.00  0.00    +0.043 A 
ATOM     17  C   UNL     1      -0.021   1.732   0.012  0.00  0.00    +0.085 A 
ATOM     18 CL   UNL     1       0.002  -0.004   0.002  0.00  0.00    -0.080 Cl
ATOM     19 CL   UNL     1      -2.788   4.618   0.055  0.00  0.00    -0.083 Cl
ENDBRANCH   6   7
ENDBRANCH   3   5
BRANCH   1  20
ATOM     20  C   UNL     1       7.761   8.345  -0.032  0.00  0.00    +0.326 C 
BRANCH  20  21
ATOM     21  O   UNL     1       7.597   9.765  -0.023  0.00  0.00    -0.482 OA
BRANCH  21  24
ATOM     22  C   UNL     1      11.120  10.669  -0.053  0.00  0.00    +0.023 A 
ATOM     23  C   UNL     1       9.970   9.903  -0.040  0.00  0.00    +0.048 A 
ATOM     24  C   UNL     1       8.728  10.517  -0.031  0.00  0.00    +0.132 A 
ATOM     25  C   UNL     1       8.642  11.915  -0.023  0.00  0.00    +0.063 A 
ATOM     26  C   UNL     1       9.811  12.678  -0.030  0.00  0.00    +0.035 A 
ATOM     27  C   UNL     1      11.041  12.052  -0.045  0.00  0.00    +0.042 A 
ATOM     28 CL   UNL     1      12.494  13.002  -0.054  0.00  0.00    -0.084 Cl
BRANCH  25  29
ATOM     29  C   UNL     1       7.323  12.578  -0.006  0.00  0.00    +0.171 A 
ATOM     30  C   UNL     1       6.910  13.568   0.845  0.00  0.00    +0.072 A 
ATOM     31  C   UNL     1       5.589  13.838   0.434  0.00  0.00    +0.157 A 
ATOM     32  N   UNL     1       5.336  13.034  -0.559  0.00  0.00    -0.086 NA
ATOM     33  O   UNL     1       6.282  12.327  -0.820  0.00  0.00    -0.355 OA
ENDBRANCH  25  29
ENDBRANCH  21  24
ENDBRANCH  20  21
ENDBRANCH   1  20
TORSDOF 6
