REMARK  Name = ZINC08747402
REMARK  10 active torsions:
REMARK  status: ('A' for Active; 'I' for Inactive)
REMARK    1  A    between atoms: C_1  and  C_2
REMARK    2  A    between atoms: C_6  and  C_9
REMARK    3  A    between atoms: C_10  and  C_11
REMARK    4  A    between atoms: C_10  and  C_12
REMARK    5  A    between atoms: C_10  and  C_13
REMARK    6  A    between atoms: C_10  and  N_51
REMARK    7  A    between atoms: C_13  and  N_14
REMARK    8  A    between atoms: C_15  and  C_17
REMARK    9  A    between atoms: C_20  and  N_26
REMARK   10  A    between atoms: C_21  and  N_23
REMARK                            x       y       z     vdW  Elec       q    Type
REMARK                         _______ _______ _______ _____ _____    ______ ____
ROOT
ATOM      1  N   UNL     1       5.282   0.278   1.530  0.00  0.00    -0.313 N 
ATOM      2  C   UNL     1       4.494  -0.791   1.764  0.00  0.00    +0.244 C 
ATOM      3  O   UNL     1       3.702  -1.159   0.917  0.00  0.00    -0.270 OA
ATOM      4  H   UNL     1       5.913   0.571   2.205  0.00  0.00    +0.149 HD
ENDROOT
BRANCH   2   5
ATOM      5  C   UNL     1       4.593  -1.515   3.045  0.00  0.00    +0.039 A 
ATOM      6  C   UNL     1       5.504  -1.093   4.019  0.00  0.00    +0.015 A 
ATOM      7  C   UNL     1       5.595  -1.770   5.213  0.00  0.00    +0.026 A 
ATOM      8  C   UNL     1       4.780  -2.874   5.453  0.00  0.00    +0.055 A 
ATOM      9  C   UNL     1       3.869  -3.293   4.488  0.00  0.00    +0.147 A 
ATOM     10  C   UNL     1       3.778  -2.623   3.289  0.00  0.00    +0.047 A 
BRANCH   9  11
ATOM     11  N   UNL     1       3.001  -4.463   4.749  0.00  0.00    +0.058 N 
ATOM     12  O   UNL     1       2.287  -4.901   3.865  0.00  0.00    -0.126 OA
ATOM     13  O   UNL     1       3.001  -4.988   5.848  0.00  0.00    -0.126 OA
ENDBRANCH   9  11
BRANCH   8  14
ATOM     14  N   UNL     1       4.874  -3.557   6.661  0.00  0.00    -0.356 N 
ATOM     15  H   UNL     1       5.207  -3.101   7.450  0.00  0.00    +0.142 HD
ATOM     16  H   UNL     1       4.607  -4.488   6.714  0.00  0.00    +0.142 HD
ENDBRANCH   8  14
ENDBRANCH   2   5
BRANCH   1  17
ATOM     17  C   UNL     1       5.183   0.996   0.257  0.00  0.00    +0.092 C 
BRANCH  17  18
ATOM     18  C   UNL     1       6.263   2.078   0.197  0.00  0.00    -0.055 C 
ATOM     19  C   UNL     1       7.644   1.419   0.181  0.00  0.00    -0.008 C 
ATOM     20  C   UNL     1       6.081   2.911  -1.073  0.00  0.00    -0.008 C 
BRANCH  18  28
ATOM     21  C   UNL     1       8.077   5.989   2.572  0.00  0.00    +0.036 C 
ATOM     22  C   UNL     1       7.062   4.845   2.625  0.00  0.00    +0.099 C 
ATOM     23  C   UNL     1       7.179   3.999   1.354  0.00  0.00    -0.046 C 
ATOM     24  C   UNL     1       4.806   3.538   1.467  0.00  0.00    -0.046 C 
ATOM     25  C   UNL     1       4.714   4.388   2.737  0.00  0.00    +0.099 C 
ATOM     26  O   UNL     1       5.741   5.383   2.714  0.00  0.00    -0.378 OA
ATOM     27  C   UNL     1       4.897   3.494   3.965  0.00  0.00    +0.036 C 
ATOM     28  N   UNL     1       6.154   2.935   1.398  0.00  0.00    +0.387 N 
ATOM     29  H   UNL     1       6.306   2.359   2.234  0.00  0.00    -0.081 HD
ENDBRANCH  18  28
ENDBRANCH  17  18
ENDBRANCH   1  17
TORSDOF 6
