REMARK  Name = ZINC35947879
REMARK  8 active torsions:
REMARK  status: ('A' for Active; 'I' for Inactive)
REMARK    1  A    between atoms: C_3  and  C_6
REMARK    2  A    between atoms: N_8  and  C_9
REMARK    3  A    between atoms: N_8  and  C_17
REMARK    4  A    between atoms: C_9  and  C_10
REMARK    5  A    between atoms: C_10  and  N_11
REMARK    6  A    between atoms: C_17  and  C_18
REMARK    7  A    between atoms: C_21  and  C_31
REMARK    8  A    between atoms: C_24  and  C_26
REMARK                            x       y       z     vdW  Elec       q    Type
REMARK                         _______ _______ _______ _____ _____    ______ ____
ROOT
ATOM      1  C   UNL     1       3.078  -1.699  -1.969  0.00  0.00    +0.253 C 
ATOM      2  O   UNL     1       3.413  -0.744  -2.638  0.00  0.00    -0.272 OA
ATOM      3  N   UNL     1       2.376  -2.703  -2.531  0.00  0.00    -0.184 N 
ATOM      4  C   UNL     1       1.957  -2.770  -3.940  0.00  0.00    +0.137 C 
ATOM      5  C   UNL     1       1.200  -4.109  -4.030  0.00  0.00    +0.087 C 
ATOM      6  C   UNL     1       1.276  -4.666  -2.626  0.00  0.00    +0.075 C 
ATOM      7  N   UNL     1       1.934  -3.849  -1.873  0.00  0.00    -0.180 NA
ENDROOT
BRANCH   4   8
ATOM      8  C   UNL     1       1.046  -1.618  -4.277  0.00  0.00    -0.025 A 
ATOM      9  C   UNL     1       0.113  -1.183  -3.356  0.00  0.00    +0.007 A 
ATOM     10  C   UNL     1      -0.724  -0.126  -3.665  0.00  0.00    +0.020 A 
ATOM     11  C   UNL     1      -0.626   0.495  -4.897  0.00  0.00    +0.041 A 
ATOM     12  C   UNL     1       0.309   0.059  -5.819  0.00  0.00    +0.020 A 
ATOM     13  C   UNL     1       1.148  -0.994  -5.507  0.00  0.00    +0.007 A 
ATOM     14 CL   UNL     1      -1.676   1.822  -5.286  0.00  0.00    -0.084 Cl
ENDBRANCH   4   8
BRANCH   6  15
ATOM     15  C   UNL     1       0.697  -5.941  -2.188  0.00  0.00    +0.035 A 
ATOM     16  C   UNL     1       0.713  -6.521  -0.932  0.00  0.00    +0.017 A 
ATOM     17  C   UNL     1       0.093  -7.737  -0.766  0.00  0.00    +0.008 A 
ATOM     18  C   UNL     1      -0.511  -8.327  -1.830  0.00  0.00    +0.046 A 
ATOM     19  S   UNL     1      -0.220  -7.145  -3.136  0.00  0.00    -0.095 S 
ENDBRANCH   6  15
BRANCH   1  20
ATOM     20  C   UNL     1       3.446  -1.762  -0.509  0.00  0.00    +0.205 C 
BRANCH  20  23
ATOM     21  C   UNL     1       3.549   0.564   0.209  0.00  0.00    +0.282 C 
ATOM     22  O   UNL     1       2.334   0.562   0.293  0.00  0.00    -0.267 OA
ATOM     23  N   UNL     1       4.201  -0.561  -0.143  0.00  0.00    -0.285 N 
BRANCH  21  26
ATOM     24  C   UNL     1       4.842   3.896   0.950  0.00  0.00    +0.042 A 
ATOM     25  C   UNL     1       3.765   3.023   0.732  0.00  0.00    +0.054 A 
ATOM     26  C   UNL     1       4.301   1.791   0.490  0.00  0.00    +0.189 A 
ATOM     27  O   UNL     1       5.644   1.900   0.556  0.00  0.00    -0.458 OA
ATOM     28  C   UNL     1       5.974   3.168   0.834  0.00  0.00    +0.196 A 
ENDBRANCH  21  26
BRANCH  23  29
ATOM     29  C   UNL     1       5.666  -0.583  -0.160  0.00  0.00    +0.124 C 
BRANCH  29  30
ATOM     30  C   UNL     1       6.189  -0.852   1.252  0.00  0.00    +0.103 C 
BRANCH  30  31
ATOM     31  N   UNL     1       7.657  -0.874   1.235  0.00  0.00    -0.297 NA
ATOM     32  C   UNL     1       8.158  -2.019   0.461  0.00  0.00    +0.112 C 
ATOM     33  C   UNL     1       9.688  -1.970   0.418  0.00  0.00    +0.175 C 
ATOM     34  O   UNL     1      10.196  -1.957   1.755  0.00  0.00    -0.377 OA
ATOM     35  C   UNL     1       9.729  -0.855   2.538  0.00  0.00    +0.175 C 
ATOM     36  C   UNL     1       8.200  -0.893   2.602  0.00  0.00    +0.112 C 
ENDBRANCH  30  31
ENDBRANCH  29  30
ENDBRANCH  23  29
ENDBRANCH  20  23
ENDBRANCH   1  20
TORSDOF 8
