REMARK  Name = ZINC12531939
REMARK  10 active torsions:
REMARK  status: ('A' for Active; 'I' for Inactive)
REMARK    1  A    between atoms: C_1  and  C_2
REMARK    2  A    between atoms: C_2  and  C_4
REMARK    3  A    between atoms: C_2  and  N_73
REMARK    4  A    between atoms: C_7  and  S_16
REMARK    5  A    between atoms: N_8  and  C_9
REMARK    6  A    between atoms: S_16  and  C_17
REMARK    7  A    between atoms: C_17  and  C_18
REMARK    8  A    between atoms: C_22  and  C_31
REMARK    9  A    between atoms: C_27  and  C_29
REMARK   10  A    between atoms: C_27  and  C_30
REMARK                            x       y       z     vdW  Elec       q    Type
REMARK                         _______ _______ _______ _____ _____    ______ ____
ROOT
ATOM      1  C   UNL     1       7.205   3.430  -3.232  0.00  0.00    +0.125 A 
ATOM      2  N   UNL     1       6.824   2.686  -2.232  0.00  0.00    -0.135 NA
ATOM      3  N   UNL     1       5.614   2.968  -1.906  0.00  0.00    -0.122 NA
ATOM      4  C   UNL     1       5.147   3.910  -2.693  0.00  0.00    +0.197 A 
ATOM      5  N   UNL     1       6.150   4.238  -3.563  0.00  0.00    -0.275 N 
ENDROOT
BRANCH   5   6
ATOM      6  C   UNL     1       6.107   5.201  -4.582  0.00  0.00    +0.050 A 
ATOM      7  C   UNL     1       6.211   4.812  -5.911  0.00  0.00    +0.028 A 
ATOM      8  C   UNL     1       6.164   5.761  -6.913  0.00  0.00    +0.022 A 
ATOM      9  C   UNL     1       6.023   7.100  -6.593  0.00  0.00    +0.041 A 
ATOM     10  C   UNL     1       5.923   7.490  -5.269  0.00  0.00    +0.022 A 
ATOM     11  C   UNL     1       5.965   6.544  -4.263  0.00  0.00    +0.028 A 
ATOM     12 CL   UNL     1       5.970   8.292  -7.854  0.00  0.00    -0.084 Cl
ENDBRANCH   5   6
BRANCH   1  14
ATOM     13  C   UNL     1       9.590   4.062  -2.984  0.00  0.00    -0.005 C 
ATOM     14  C   UNL     1       8.556   3.405  -3.900  0.00  0.00    -0.002 C 
BRANCH  14  20
ATOM     15  C   UNL     1      10.248   1.952  -4.840  0.00  0.00    -0.078 C 
ATOM     16  C   UNL     1      10.691   0.493  -4.966  0.00  0.00    -0.019 C 
ATOM     17  C   UNL     1       9.641  -0.287  -5.763  0.00  0.00    -0.004 C 
ATOM     18  C   UNL     1       8.286  -0.167  -5.061  0.00  0.00    -0.019 C 
ATOM     19  C   UNL     1       7.913   1.312  -4.932  0.00  0.00    -0.078 C 
ATOM     20  N   UNL     1       8.950   2.001  -4.135  0.00  0.00    +0.386 N 
ATOM     21  H   UNL     1       9.044   1.525  -3.230  0.00  0.00    -0.081 HD
ENDBRANCH  14  20
ENDBRANCH   1  14
BRANCH   4  22
ATOM     22  S   UNL     1       3.536   4.621  -2.634  0.00  0.00    -0.076 S 
BRANCH  22  23
ATOM     23  C   UNL     1       2.828   3.683  -1.257  0.00  0.00    +0.173 C 
BRANCH  23  24
ATOM     24  C   UNL     1       1.411   4.136  -1.017  0.00  0.00    +0.226 C 
ATOM     25  O   UNL     1       0.927   5.006  -1.709  0.00  0.00    -0.275 OA
ATOM     26  N   UNL     1       0.681   3.572  -0.033  0.00  0.00    -0.297 N 
ATOM     27  C   UNL     1       1.143   2.521   0.886  0.00  0.00    +0.114 C 
ATOM     28  C   UNL     1      -0.064   2.165   1.784  0.00  0.00    -0.014 C 
ATOM     29  C   UNL     1      -0.864   3.496   1.804  0.00  0.00    +0.030 C 
ATOM     30  C   UNL     1      -0.712   3.910   0.317  0.00  0.00    +0.077 C 
ATOM     31  C   UNL     1      -1.665   3.029  -0.489  0.00  0.00    +0.029 C 
ATOM     32  C   UNL     1      -1.437   1.541  -0.293  0.00  0.00    -0.033 C 
ATOM     33  C   UNL     1      -0.924   1.123   1.072  0.00  0.00    +0.014 C 
ATOM     34  C   UNL     1      -0.502   1.011  -1.391  0.00  0.00    +0.011 C 
ATOM     35  C   UNL     1      -2.801   0.838  -0.505  0.00  0.00    +0.011 C 
ATOM     36  C   UNL     1       0.366   1.720   3.190  0.00  0.00    +0.013 C 
ENDBRANCH  23  24
ENDBRANCH  22  23
ENDBRANCH   4  22
TORSDOF 6
