REMARK  Name = ZINC01639132
REMARK  3 active torsions:
REMARK  status: ('A' for Active; 'I' for Inactive)
REMARK    1  A    between atoms: C_1  and  C_2
REMARK    2  A    between atoms: C_5  and  C_16
REMARK    3  A    between atoms: C_8  and  N_10
REMARK                            x       y       z     vdW  Elec       q    Type
REMARK                         _______ _______ _______ _____ _____    ______ ____
ROOT
ATOM      1  C   UNL     1      -3.549  -1.858   2.900  0.00  0.00    +0.007 C 
ATOM      2  C   UNL     1      -3.060  -1.697   1.459  0.00  0.00    -0.012 C 
ATOM      3  C   UNL     1      -2.835  -3.078   0.840  0.00  0.00    +0.006 C 
ATOM      4  C   UNL     1      -2.346  -2.918  -0.601  0.00  0.00    -0.012 C 
ATOM      5  C   UNL     1      -1.032  -2.135  -0.609  0.00  0.00    +0.025 C 
ATOM      6  C   UNL     1      -1.256  -0.754   0.010  0.00  0.00    +0.075 C 
ATOM      7  C   UNL     1      -1.745  -0.914   1.451  0.00  0.00    +0.025 C 
ATOM      8  C   UNL     1      -3.397  -2.159  -1.414  0.00  0.00    +0.007 C 
ENDROOT
BRANCH   6   9
ATOM      9  N   UNL     1       0.002  -0.004   0.002  0.00  0.00    -0.297 N 
ATOM     10  C   UNL     1      -0.017   1.369   0.010  0.00  0.00    +0.278 C 
ATOM     11  N   UNL     1      -1.113   2.062   0.018  0.00  0.00    -0.233 NA
ATOM     12  C   UNL     1      -0.759   3.495   0.038  0.00  0.00    +0.187 C 
ATOM     13  C   UNL     1       0.740   3.452   0.422  0.00  0.00    +0.255 C 
ATOM     14  O   UNL     1       1.103   2.120   0.003  0.00  0.00    -0.464 OA
ATOM     15  H   UNL     1       0.849  -0.478  -0.009  0.00  0.00    +0.151 HD
ENDBRANCH   6   9
TORSDOF 1
