REMARK  Name = ZINC52283687
REMARK  6 active torsions:
REMARK  status: ('A' for Active; 'I' for Inactive)
REMARK    1  A    between atoms: C_1  and  C_2
REMARK    2  A    between atoms: C_7  and  S_23
REMARK    3  A    between atoms: N_11  and  C_12
REMARK    4  A    between atoms: C_12  and  C_13
REMARK    5  A    between atoms: C_18  and  N_19
REMARK    6  A    between atoms: S_23  and  N_26
REMARK                            x       y       z     vdW  Elec       q    Type
REMARK                         _______ _______ _______ _____ _____    ______ ____
ROOT
ATOM      1  C   UNL     1       0.165   1.392  -0.071  0.00  0.00    +0.028 C 
ATOM      2  C   UNL     1       0.177  -0.137  -0.011  0.00  0.00    +0.075 C 
ATOM      3  C   UNL     1       1.020  -0.709  -1.163  0.00  0.00    +0.059 C 
ATOM      4  C   UNL     1       2.133  -1.469  -0.477  0.00  0.00    -0.023 A 
ATOM      5  C   UNL     1       3.191  -2.190  -0.996  0.00  0.00    +0.034 A 
ATOM      6  C   UNL     1       4.093  -2.807  -0.148  0.00  0.00    +0.105 A 
ATOM      7  C   UNL     1       3.933  -2.700   1.221  0.00  0.00    +0.030 A 
ATOM      8  C   UNL     1       2.879  -1.982   1.744  0.00  0.00    +0.025 A 
ATOM      9  C   UNL     1       1.964  -1.356   0.894  0.00  0.00    +0.034 A 
ATOM     10  N   UNL     1       0.839  -0.591   1.215  0.00  0.00    -0.322 N 
ENDROOT
BRANCH   6  11
ATOM     11  S   UNL     1       5.442  -3.725  -0.812  0.00  0.00    +0.056 S 
ATOM     12  O   UNL     1       5.829  -4.658   0.188  0.00  0.00    -0.153 OA
ATOM     13  O   UNL     1       5.057  -4.126  -2.120  0.00  0.00    -0.153 OA
BRANCH  11  14
ATOM     14  N   UNL     1       6.708  -2.674  -0.994  0.00  0.00    -0.204 NA
ATOM     15  H   UNL     1       6.605  -1.742  -0.744  0.00  0.00    +0.144 HD
ATOM     16  H   UNL     1       7.554  -2.989  -1.349  0.00  0.00    +0.144 HD
ENDBRANCH  11  14
ENDBRANCH   6  11
BRANCH  10  17
ATOM     17  C   UNL     1       0.387  -0.287   2.575  0.00  0.00    +0.143 C 
BRANCH  17  18
ATOM     18  C   UNL     1      -0.643  -1.301   3.000  0.00  0.00    +0.003 A 
ATOM     19  C   UNL     1      -0.996  -2.328   2.145  0.00  0.00    +0.045 A 
ATOM     20  C   UNL     1      -1.943  -3.259   2.536  0.00  0.00    +0.124 A 
ATOM     21  C   UNL     1      -2.536  -3.160   3.783  0.00  0.00    +0.040 A 
ATOM     22  C   UNL     1      -2.182  -2.133   4.637  0.00  0.00    +0.036 A 
ATOM     23  C   UNL     1      -1.232  -1.207   4.247  0.00  0.00    +0.131 A 
ATOM     24  F   UNL     1      -2.289  -4.263   1.700  0.00  0.00    -0.205 F 
BRANCH  23  25
ATOM     25  N   UNL     1      -0.848  -0.111   5.165  0.00  0.00    +0.057 N 
ATOM     26  O   UNL     1      -1.283  -0.086   6.293  0.00  0.00    -0.126 OA
ATOM     27  O   UNL     1      -0.100   0.761   4.786  0.00  0.00    -0.126 OA
ENDBRANCH  23  25
ENDBRANCH  17  18
ENDBRANCH  10  17
TORSDOF 5
