REMARK  Name = ZINC11592392
REMARK  7 active torsions:
REMARK  status: ('A' for Active; 'I' for Inactive)
REMARK    1  A    between atoms: C_1  and  C_2
REMARK    2  A    between atoms: C_5  and  C_8
REMARK    3  A    between atoms: C_10  and  C_13
REMARK    4  A    between atoms: C_13  and  S_14
REMARK    5  A    between atoms: S_14  and  C_15
REMARK    6  A    between atoms: C_18  and  C_21
REMARK    7  A    between atoms: N_19  and  N_20
REMARK                            x       y       z     vdW  Elec       q    Type
REMARK                         _______ _______ _______ _____ _____    ______ ____
ROOT
ATOM      1  S   UNL     1      -4.950  -1.808   0.445  0.00  0.00    -0.075 S 
ENDROOT
BRANCH   1   2
ATOM      2  C   UNL     1      -3.214  -1.659   0.183  0.00  0.00    +0.209 A 
ATOM      3  N   UNL     1      -2.393  -2.623  -0.170  0.00  0.00    -0.120 NA
ATOM      4  N   UNL     1      -1.196  -2.167  -0.278  0.00  0.00    -0.123 NA
ATOM      5  C   UNL     1      -1.177  -0.884   0.008  0.00  0.00    +0.217 A 
ATOM      6  N   UNL     1      -2.471  -0.519   0.309  0.00  0.00    -0.221 N 
BRANCH   5   7
ATOM      7  C   UNL     1       0.002  -0.004   0.002  0.00  0.00    +0.173 A 
ATOM      8  C   UNL     1       1.303  -0.409  -0.013  0.00  0.00    +0.053 A 
ATOM      9  C   UNL     1       2.091   0.758  -0.014  0.00  0.00    +0.042 A 
ATOM     10  C   UNL     1       1.245   1.807  -0.000  0.00  0.00    +0.196 A 
ATOM     11  O   UNL     1      -0.016   1.343   0.009  0.00  0.00    -0.460 OA
ENDBRANCH   5   7
BRANCH   6  12
ATOM     12  N   UNL     1      -2.917   0.723   0.660  0.00  0.00    -0.294 N 
ATOM     13  H   UNL     1      -3.190   1.253  -0.154  0.00  0.00    +0.163 HD
ATOM     14  H   UNL     1      -3.677   0.661   1.322  0.00  0.00    +0.163 HD
ENDBRANCH   6  12
ENDBRANCH   1   2
BRANCH   1  15
ATOM     15  C   UNL     1      -5.170  -3.570   0.092  0.00  0.00    +0.176 C 
BRANCH  15  18
ATOM     16  C   UNL     1      -8.683  -4.314  -0.070  0.00  0.00    +0.202 A 
ATOM     17  N   UNL     1      -7.545  -3.898  -0.671  0.00  0.00    -0.191 NA
ATOM     18  C   UNL     1      -6.622  -3.938   0.257  0.00  0.00    +0.238 A 
ATOM     19  O   UNL     1      -7.212  -4.360   1.380  0.00  0.00    -0.337 OA
ATOM     20  N   UNL     1      -8.389  -4.571   1.178  0.00  0.00    -0.056 NA
BRANCH  16  25
ATOM     21  C   UNL     1     -13.861  -4.832  -2.538  0.00  0.00    +0.044 C 
ATOM     22  C   UNL     1     -12.506  -4.697  -1.893  0.00  0.00    -0.050 A 
ATOM     23  C   UNL     1     -12.346  -5.009  -0.555  0.00  0.00    +0.004 A 
ATOM     24  C   UNL     1     -11.108  -4.886   0.042  0.00  0.00    +0.012 A 
ATOM     25  C   UNL     1     -10.017  -4.448  -0.706  0.00  0.00    +0.022 A 
ATOM     26  C   UNL     1     -10.185  -4.130  -2.053  0.00  0.00    +0.012 A 
ATOM     27  C   UNL     1     -11.427  -4.262  -2.640  0.00  0.00    +0.004 A 
ENDBRANCH  16  25
ENDBRANCH  15  18
ENDBRANCH   1  15
TORSDOF 6
