REMARK  Name = ZINC03437689
REMARK  10 active torsions:
REMARK  status: ('A' for Active; 'I' for Inactive)
REMARK    1  A    between atoms: C_1  and  C_2
REMARK    2  A    between atoms: C_2  and  O_3
REMARK    3  A    between atoms: O_3  and  C_4
REMARK    4  A    between atoms: C_4  and  C_6
REMARK    5  A    between atoms: C_7  and  C_29
REMARK    6  A    between atoms: N_8  and  C_28
REMARK    7  A    between atoms: C_12  and  C_14
REMARK    8  A    between atoms: C_15  and  C_27
REMARK    9  A    between atoms: N_17  and  C_20
REMARK   10  A    between atoms: C_23  and  C_26
REMARK                            x       y       z     vdW  Elec       q    Type
REMARK                         _______ _______ _______ _____ _____    ______ ____
ROOT
ATOM      1  C   UNL     1       1.157  -2.482  -2.618  0.00  0.00    +0.078 C 
ATOM      2  C   UNL     1       1.506  -3.773  -2.804  0.00  0.00    +0.024 C 
ATOM      3  N   UNL     1       2.396  -4.130  -3.776  0.00  0.00    -0.262 N 
ATOM      4  C   UNL     1       2.983  -3.256  -4.603  0.00  0.00    +0.307 C 
ATOM      5  O   UNL     1       3.764  -3.669  -5.438  0.00  0.00    -0.252 OA
ATOM      6  N   UNL     1       2.736  -1.932  -4.540  0.00  0.00    -0.288 N 
ATOM      7  C   UNL     1       1.784  -1.444  -3.528  0.00  0.00    +0.148 C 
ATOM      8  C   UNL     1       2.728  -5.550  -3.922  0.00  0.00    +0.139 C 
ATOM      9  C   UNL     1       0.902  -4.838  -1.925  0.00  0.00    +0.061 C 
ATOM     10  H   UNL     1       3.173  -1.316  -5.148  0.00  0.00    +0.151 HD
ENDROOT
BRANCH   7  11
ATOM     11  C   UNL     1       0.671  -0.720  -4.241  0.00  0.00    +0.037 A 
ATOM     12  C   UNL     1       0.225   0.577  -3.965  0.00  0.00    +0.067 A 
ATOM     13  N   UNL     1      -0.752   0.861  -4.788  0.00  0.00    -0.170 NA
ATOM     14  N   UNL     1      -0.962  -0.247  -5.619  0.00  0.00    -0.221 N 
ATOM     15  C   UNL     1      -0.068  -1.207  -5.266  0.00  0.00    +0.138 A 
ATOM     16 CL   UNL     1       0.094  -2.775  -5.993  0.00  0.00    -0.062 Cl
ATOM     17  C   UNL     1       0.774   1.491  -2.900  0.00  0.00    +0.068 C 
BRANCH  14  18
ATOM     18  C   UNL     1      -1.921  -0.346  -6.637  0.00  0.00    +0.067 A 
ATOM     19  C   UNL     1      -1.637  -1.060  -7.793  0.00  0.00    +0.028 A 
ATOM     20  C   UNL     1      -2.583  -1.156  -8.794  0.00  0.00    +0.005 A 
ATOM     21  C   UNL     1      -3.813  -0.542  -8.646  0.00  0.00    -0.050 A 
ATOM     22  C   UNL     1      -4.099   0.170  -7.496  0.00  0.00    +0.005 A 
ATOM     23  C   UNL     1      -3.159   0.265  -6.489  0.00  0.00    +0.028 A 
ATOM     24  C   UNL     1      -4.843  -0.648  -9.741  0.00  0.00    +0.044 C 
ENDBRANCH  14  18
ENDBRANCH   7  11
BRANCH   1  25
ATOM     25  C   UNL     1       0.235  -2.111  -1.612  0.00  0.00    +0.339 C 
ATOM     26  O   UNL     1      -0.350  -2.968  -0.977  0.00  0.00    -0.245 OA
BRANCH  25  27
ATOM     27  O   UNL     1       0.004  -0.806  -1.356  0.00  0.00    -0.462 OA
BRANCH  27  29
ATOM     28  C   UNL     1      -1.069   1.014  -0.183  0.00  0.00    +0.048 C 
ATOM     29  C   UNL     1      -0.941  -0.504  -0.327  0.00  0.00    +0.229 C 
ENDBRANCH  27  29
ENDBRANCH  25  27
ENDBRANCH   1  25
TORSDOF 5
