REMARK  Name = ZINC39734147
REMARK  10 active torsions:
REMARK  status: ('A' for Active; 'I' for Inactive)
REMARK    1  A    between atoms: C_1  and  C_2
REMARK    2  A    between atoms: C_2  and  O_3
REMARK    3  A    between atoms: O_3  and  C_4
REMARK    4  A    between atoms: N_9  and  S_12
REMARK    5  A    between atoms: S_12  and  C_15
REMARK    6  A    between atoms: C_18  and  C_21
REMARK    7  A    between atoms: C_21  and  N_23
REMARK    8  A    between atoms: N_30  and  C_33
REMARK    9  A    between atoms: C_33  and  C_34
REMARK   10  A    between atoms: C_33  and  C_35
REMARK                            x       y       z     vdW  Elec       q    Type
REMARK                         _______ _______ _______ _____ _____    ______ ____
ROOT
ATOM      1  C   UNL     1      -7.016  -4.194  -2.832  0.00  0.00    +0.106 A 
ATOM      2  C   UNL     1      -7.677  -3.169  -3.485  0.00  0.00    +0.029 A 
ATOM      3  C   UNL     1      -8.065  -3.323  -4.800  0.00  0.00    +0.015 A 
ATOM      4  C   UNL     1      -7.789  -4.514  -5.471  0.00  0.00    +0.039 A 
ATOM      5  C   UNL     1      -7.122  -5.544  -4.807  0.00  0.00    +0.015 A 
ATOM      6  C   UNL     1      -6.735  -5.376  -3.493  0.00  0.00    +0.029 A 
ENDROOT
BRANCH   1   7
ATOM      7  S   UNL     1      -6.524  -3.991  -1.152  0.00  0.00    +0.061 S 
ATOM      8  O   UNL     1      -6.402  -5.296  -0.604  0.00  0.00    -0.153 OA
ATOM      9  O   UNL     1      -7.385  -3.007  -0.593  0.00  0.00    -0.153 OA
BRANCH   7  15
ATOM     10  C   UNL     1      -1.497  -1.836   0.006  0.00  0.00    +0.403 C 
ATOM     11  O   UNL     1      -0.523  -2.563  -0.007  0.00  0.00    -0.226 OA
ATOM     12  N   UNL     1      -2.735  -2.368   0.015  0.00  0.00    -0.265 N 
ATOM     13  C   UNL     1      -3.922  -1.501   0.025  0.00  0.00    +0.128 C 
ATOM     14  C   UNL     1      -4.815  -1.879  -1.162  0.00  0.00    +0.128 C 
ATOM     15  N   UNL     1      -5.003  -3.337  -1.163  0.00  0.00    -0.174 NA
ATOM     16  C   UNL     1      -3.817  -4.204  -1.173  0.00  0.00    +0.128 C 
ATOM     17  C   UNL     1      -2.923  -3.825   0.009  0.00  0.00    +0.128 C 
BRANCH  10  18
ATOM     18  O   UNL     1      -1.339  -0.499   0.012  0.00  0.00    -0.451 OA
BRANCH  18  20
ATOM     19  C   UNL     1      -0.019   1.526   0.010  0.00  0.00    +0.048 C 
ATOM     20  C   UNL     1       0.002  -0.004   0.002  0.00  0.00    +0.230 C 
ENDBRANCH  18  20
ENDBRANCH  10  18
ENDBRANCH   7  15
ENDBRANCH   1   7
BRANCH   4  21
ATOM     21  C   UNL     1      -8.203  -4.685  -6.883  0.00  0.00    +0.269 C 
ATOM     22  O   UNL     1      -8.786  -3.784  -7.461  0.00  0.00    -0.268 OA
BRANCH  21  23
ATOM     23  N   UNL     1      -7.938  -5.826  -7.522  0.00  0.00    -0.152 NA
ATOM     24  C   UNL     1      -8.310  -5.981  -8.792  0.00  0.00    +0.164 A 
ATOM     25  N   UNL     1      -8.957  -5.095  -9.597  0.00  0.00    -0.339 N 
ATOM     26  C   UNL     1      -9.254  -5.445 -10.885  0.00  0.00    +0.030 A 
ATOM     27  C   UNL     1      -8.864  -6.678 -11.248  0.00  0.00    +0.026 A 
ATOM     28  S   UNL     1      -8.086  -7.316  -9.793  0.00  0.00    -0.056 S 
ATOM     29  C   UNL     1      -9.056  -7.322 -12.582  0.00  0.00    +0.129 C 
ATOM     30  N   UNL     1     -10.051  -6.535 -13.335  0.00  0.00    -0.295 NA
ATOM     31  C   UNL     1      -9.721  -5.103 -13.291  0.00  0.00    +0.091 C 
ATOM     32  C   UNL     1      -9.971  -4.548 -11.886  0.00  0.00    +0.069 C 
ATOM     33  H   UNL     1      -9.207  -4.221  -9.258  0.00  0.00    +0.167 HD
BRANCH  30  34
ATOM     34  C   UNL     1     -10.156  -7.008 -14.722  0.00  0.00    +0.051 C 
ATOM     35  C   UNL     1     -10.490  -8.501 -14.727  0.00  0.00    +0.024 C 
ATOM     36  C   UNL     1     -11.264  -6.236 -15.442  0.00  0.00    +0.024 C 
ENDBRANCH  30  34
ENDBRANCH  21  23
ENDBRANCH   4  21
TORSDOF 7
