REMARK  Name = ZINC34756543
REMARK  11 active torsions:
REMARK  status: ('A' for Active; 'I' for Inactive)
REMARK    1  A    between atoms: C_1  and  C_2
REMARK    2  A    between atoms: C_2  and  N_3
REMARK    3  A    between atoms: N_3  and  C_4
REMARK    4  A    between atoms: C_4  and  C_5
REMARK    5  A    between atoms: C_6  and  C_8
REMARK    6  A    between atoms: C_8  and  N_9
REMARK    7  A    between atoms: C_22  and  S_24
REMARK    8  A    between atoms: S_24  and  C_25
REMARK    9  A    between atoms: C_25  and  C_26
REMARK   10  A    between atoms: N_28  and  C_29
REMARK   11  A    between atoms: N_28  and  C_30
REMARK                            x       y       z     vdW  Elec       q    Type
REMARK                         _______ _______ _______ _____ _____    ______ ____
ROOT
ATOM      1  N   UNL     1      -1.175  -1.194  -4.636  0.00  0.00    +0.387 N 
ATOM      2  C   UNL     1      -1.360  -1.442  -6.071  0.00  0.00    -0.059 C 
ATOM      3  C   UNL     1      -2.830  -1.218  -6.441  0.00  0.00    +0.088 C 
ATOM      4  N   UNL     1      -3.665  -2.057  -5.567  0.00  0.00    -0.318 N 
ATOM      5  C   UNL     1      -3.432  -1.992  -4.116  0.00  0.00    +0.088 C 
ATOM      6  C   UNL     1      -1.933  -2.180  -3.856  0.00  0.00    -0.059 C 
ATOM      7  C   UNL     1      -4.641  -2.882  -6.094  0.00  0.00    +0.134 A 
ATOM      8  C   UNL     1      -5.993  -2.443  -6.167  0.00  0.00    +0.051 A 
ATOM      9  C   UNL     1      -6.563  -1.163  -5.740  0.00  0.00    -0.025 A 
ATOM     10  C   UNL     1      -7.888  -0.994  -5.920  0.00  0.00    -0.004 A 
ATOM     11  S   UNL     1      -8.451  -2.505  -6.659  0.00  0.00    -0.073 S 
ATOM     12  C   UNL     1      -6.902  -3.365  -6.723  0.00  0.00    +0.115 A 
ATOM     13  N   UNL     1      -6.512  -4.553  -7.143  0.00  0.00    -0.214 NA
ATOM     14  C   UNL     1      -5.237  -4.910  -7.050  0.00  0.00    +0.191 A 
ATOM     15  N   UNL     1      -4.327  -4.087  -6.541  0.00  0.00    -0.206 NA
ATOM     16  C   UNL     1      -8.705   0.212  -5.570  0.00  0.00    +0.043 C 
ATOM     17  C   UNL     1      -7.880   1.100  -4.628  0.00  0.00    +0.005 C 
ATOM     18  C   UNL     1      -6.474   1.264  -5.215  0.00  0.00    +0.005 C 
ATOM     19  C   UNL     1      -5.714  -0.059  -5.117  0.00  0.00    +0.037 C 
ATOM     20  H   UNL     1      -1.502  -0.266  -4.412  0.00  0.00    -0.081 HD
ENDROOT
BRANCH   1  21
ATOM     21  C   UNL     1       0.252  -1.302  -4.303  0.00  0.00    +0.019 C 
BRANCH  21  23
ATOM     22  N   UNL     1       2.352  -0.114  -4.851  0.00  0.00    -0.304 N 
ATOM     23  C   UNL     1       1.017  -0.212  -5.009  0.00  0.00    +0.199 C 
ATOM     24  O   UNL     1       0.431   0.577  -5.719  0.00  0.00    -0.278 OA
BRANCH  22  26
ATOM     25  C   UNL     1       3.108  -0.527  -2.562  0.00  0.00    +0.024 C 
ATOM     26  C   UNL     1       3.059  -1.067  -3.992  0.00  0.00    +0.104 C 
ENDBRANCH  22  26
BRANCH  22  27
ATOM     27  C   UNL     1       3.095   0.946  -5.537  0.00  0.00    +0.104 C 
ATOM     28  C   UNL     1       3.551   0.443  -6.908  0.00  0.00    +0.024 C 
ENDBRANCH  22  27
ENDBRANCH  21  23
ENDBRANCH   1  21
BRANCH  14  29
ATOM     29  S   UNL     1      -4.742  -6.502  -7.618  0.00  0.00    -0.077 S 
BRANCH  29  30
ATOM     30  C   UNL     1      -6.280  -7.251  -8.221  0.00  0.00    +0.173 C 
BRANCH  30  31
ATOM     31  C   UNL     1      -5.993  -8.636  -8.742  0.00  0.00    +0.225 C 
ATOM     32  O   UNL     1      -4.863  -9.074  -8.710  0.00  0.00    -0.275 OA
ATOM     33  N   UNL     1      -6.993  -9.387  -9.244  0.00  0.00    -0.307 N 
ATOM     34  C   UNL     1      -6.715 -10.734  -9.751  0.00  0.00    +0.131 C 
ATOM     35  C   UNL     1      -8.359  -8.858  -9.282  0.00  0.00    +0.131 C 
ENDBRANCH  30  31
ENDBRANCH  29  30
ENDBRANCH  14  29
TORSDOF 7
