REMARK  Name = ZINC40923420
REMARK  7 active torsions:
REMARK  status: ('A' for Active; 'I' for Inactive)
REMARK    1  A    between atoms: C_1  and  C_2
REMARK    2  A    between atoms: C_7  and  C_8
REMARK    3  A    between atoms: C_8  and  O_9
REMARK    4  A    between atoms: O_9  and  C_10
REMARK    5  A    between atoms: C_15  and  C_16
REMARK    6  A    between atoms: C_18  and  C_27
REMARK    7  A    between atoms: C_19  and  C_26
REMARK                            x       y       z     vdW  Elec       q    Type
REMARK                         _______ _______ _______ _____ _____    ______ ____
ROOT
ATOM      1  C   UNL     1       0.074  -2.646   5.791  0.00  0.00    +0.182 C 
ATOM      2  C   UNL     1       1.335  -3.113   6.468  0.00  0.00    +0.060 C 
ATOM      3  C   UNL     1       1.336  -3.914   7.543  0.00  0.00    +0.018 C 
ATOM      4  N   UNL     1       0.175  -4.384   8.108  0.00  0.00    -0.286 N 
ATOM      5  C   UNL     1      -0.998  -4.220   7.386  0.00  0.00    +0.240 A 
ATOM      6  N   UNL     1      -1.059  -3.412   6.295  0.00  0.00    -0.201 N 
ATOM      7  N   UNL     1      -2.371  -3.504   5.835  0.00  0.00    -0.042 NA
ATOM      8  N   UNL     1      -2.986  -4.312   6.636  0.00  0.00    -0.021 NA
ATOM      9  N   UNL     1      -2.182  -4.735   7.552  0.00  0.00    -0.092 NA
ATOM     10  C   UNL     1       2.655  -4.313   8.153  0.00  0.00    +0.061 C 
ATOM     11  H   UNL     1       0.176  -4.814   8.978  0.00  0.00    +0.155 HD
ENDROOT
BRANCH   1  17
ATOM     12  C   UNL     1      -0.194  -0.269   5.038  0.00  0.00    +0.127 A 
ATOM     13  C   UNL     1      -0.397   1.077   5.308  0.00  0.00    +0.046 A 
ATOM     14  C   UNL     1      -0.538   1.505   6.614  0.00  0.00    +0.004 A 
ATOM     15  C   UNL     1      -0.478   0.593   7.652  0.00  0.00    +0.001 A 
ATOM     16  C   UNL     1      -0.276  -0.749   7.386  0.00  0.00    +0.009 A 
ATOM     17  C   UNL     1      -0.140  -1.182   6.081  0.00  0.00    +0.023 A 
BRANCH  12  18
ATOM     18  O   UNL     1      -0.055  -0.692   3.755  0.00  0.00    -0.487 OA
BRANCH  18  19
ATOM     19  C   UNL     1      -0.122   0.304   2.732  0.00  0.00    +0.264 C 
BRANCH  19  26
ATOM     20  C   UNL     1      -0.182   1.912   0.333  0.00  0.00    +0.044 C 
ATOM     21  C   UNL     1       0.023   0.422   0.236  0.00  0.00    -0.044 A 
ATOM     22  C   UNL     1       0.188  -0.174  -1.000  0.00  0.00    +0.004 A 
ATOM     23  C   UNL     1       0.375  -1.541  -1.088  0.00  0.00    +0.000 A 
ATOM     24  C   UNL     1       0.399  -2.311   0.059  0.00  0.00    +0.000 A 
ATOM     25  C   UNL     1       0.235  -1.714   1.296  0.00  0.00    +0.007 A 
ATOM     26  C   UNL     1       0.051  -0.347   1.384  0.00  0.00    -0.007 A 
ENDBRANCH  19  26
ENDBRANCH  18  19
ENDBRANCH  12  18
ENDBRANCH   1  17
BRANCH   2  27
ATOM     27  C   UNL     1       2.579  -2.686   5.946  0.00  0.00    +0.241 C 
ATOM     28  O   UNL     1       3.003  -3.169   4.911  0.00  0.00    -0.271 OA
ATOM     29  N   UNL     1       3.296  -1.746   6.593  0.00  0.00    -0.325 N 
ATOM     30  H   UNL     1       2.958  -1.361   7.417  0.00  0.00    +0.145 HD
ATOM     31  H   UNL     1       4.148  -1.453   6.234  0.00  0.00    +0.145 HD
ENDBRANCH   2  27
TORSDOF 5
