REMARK  Name = ZINC12975057
REMARK  7 active torsions:
REMARK  status: ('A' for Active; 'I' for Inactive)
REMARK    1  A    between atoms: C_1  and  C_2
REMARK    2  A    between atoms: C_9  and  N_14
REMARK    3  A    between atoms: C_15  and  C_17
REMARK    4  A    between atoms: C_17  and  C_18
REMARK    5  A    between atoms: C_18  and  N_19
REMARK    6  A    between atoms: N_22  and  C_23
REMARK    7  A    between atoms: C_23  and  C_24
REMARK                            x       y       z     vdW  Elec       q    Type
REMARK                         _______ _______ _______ _____ _____    ______ ____
ROOT
ATOM      1  N   UNL     1       3.844  -4.782  -0.060  0.00  0.00    -0.285 N 
ATOM      2  C   UNL     1       2.668  -4.124  -0.044  0.00  0.00    +0.219 C 
ATOM      3  O   UNL     1       1.626  -4.745  -0.029  0.00  0.00    -0.275 OA
ATOM      4  H   UNL     1       4.675  -4.288  -0.140  0.00  0.00    +0.155 HD
ENDROOT
BRANCH   1  12
ATOM      5  C   UNL     1       2.847 -12.453   0.149  0.00  0.00    +0.062 C 
ATOM      6  C   UNL     1       2.662 -10.954   0.390  0.00  0.00    +0.256 C 
ATOM      7  C   UNL     1       1.749 -10.385  -0.665  0.00  0.00    +0.258 C 
ATOM      8  O   UNL     1       0.903 -11.085  -1.181  0.00  0.00    -0.271 OA
ATOM      9  N   UNL     1       1.875  -9.092  -1.035  0.00  0.00    -0.279 N 
ATOM     10  C   UNL     1       2.884  -8.313  -0.449  0.00  0.00    +0.077 A 
ATOM     11  C   UNL     1       2.857  -6.932  -0.549  0.00  0.00    +0.050 A 
ATOM     12  C   UNL     1       3.866  -6.179   0.038  0.00  0.00    +0.035 A 
ATOM     13  C   UNL     1       4.900  -6.811   0.716  0.00  0.00    +0.027 A 
ATOM     14  C   UNL     1       4.923  -8.189   0.821  0.00  0.00    +0.049 A 
ATOM     15  C   UNL     1       3.920  -8.944   0.238  0.00  0.00    +0.143 A 
ATOM     16  O   UNL     1       3.933 -10.301   0.328  0.00  0.00    -0.478 OA
ATOM     17  H   UNL     1       1.278  -8.707  -1.695  0.00  0.00    +0.155 HD
ENDBRANCH   1  12
BRANCH   2  18
ATOM     18  C   UNL     1       2.647  -2.617  -0.044  0.00  0.00    +0.115 C 
BRANCH  18  19
ATOM     19  C   UNL     1       1.198  -2.127  -0.024  0.00  0.00    +0.115 C 
BRANCH  19  20
ATOM     20  N   UNL     1       1.179  -0.662  -0.024  0.00  0.00    -0.299 N 
ATOM     21  C   UNL     1       0.003  -0.004  -0.007  0.00  0.00    +0.300 C 
ATOM     22  O   UNL     1      -1.042  -0.626   0.008  0.00  0.00    -0.253 OA
ATOM     23  N   UNL     1      -0.016   1.344  -0.008  0.00  0.00    -0.295 N 
ATOM     24  H   UNL     1       2.012  -0.165  -0.036  0.00  0.00    +0.150 HD
ATOM     25  H   UNL     1       0.818   1.840  -0.020  0.00  0.00    +0.151 HD
BRANCH  23  26
ATOM     26  C   UNL     1      -1.294   2.059   0.004  0.00  0.00    +0.141 C 
BRANCH  26  27
ATOM     27  C   UNL     1      -1.039   3.545   0.001  0.00  0.00    -0.030 A 
ATOM     28  C   UNL     1      -0.916   4.227   1.197  0.00  0.00    +0.005 A 
ATOM     29  C   UNL     1      -0.677   5.589   1.194  0.00  0.00    +0.000 A 
ATOM     30  C   UNL     1      -0.571   6.269  -0.004  0.00  0.00    +0.000 A 
ATOM     31  C   UNL     1      -0.699   5.588  -1.200  0.00  0.00    +0.000 A 
ATOM     32  C   UNL     1      -0.933   4.225  -1.197  0.00  0.00    +0.005 A 
ENDBRANCH  26  27
ENDBRANCH  23  26
ENDBRANCH  19  20
ENDBRANCH  18  19
ENDBRANCH   2  18
TORSDOF 6
