REMARK  Name = ZINC63351500
REMARK  9 active torsions:
REMARK  status: ('A' for Active; 'I' for Inactive)
REMARK    1  A    between atoms: C_1  and  C_2
REMARK    2  A    between atoms: C_2  and  O_3
REMARK    3  A    between atoms: O_3  and  C_4
REMARK    4  A    between atoms: C_4  and  C_6
REMARK    5  A    between atoms: C_6  and  C_8
REMARK    6  A    between atoms: N_25  and  C_26
REMARK    7  A    between atoms: C_31  and  C_32
REMARK    8  A    between atoms: C_32  and  O_34
REMARK    9  A    between atoms: O_34  and  C_35
REMARK                            x       y       z     vdW  Elec       q    Type
REMARK                         _______ _______ _______ _____ _____    ______ ____
ROOT
ATOM      1  C   UNL     1      -3.044  -3.933   0.020  0.00  0.00    +0.182 C 
ATOM      2  C   UNL     1      -2.864  -4.492   1.436  0.00  0.00    +0.135 C 
ATOM      3  C   UNL     1      -4.079  -4.044   2.238  0.00  0.00    -0.035 C 
ATOM      4  C   UNL     1      -3.611  -3.387   3.293  0.00  0.00    -0.001 A 
ATOM      5  C   UNL     1      -4.289  -2.784   4.451  0.00  0.00    +0.010 A 
ATOM      6  C   UNL     1      -3.489  -2.165   5.359  0.00  0.00    +0.001 A 
ATOM      7  C   UNL     1      -2.099  -2.086   5.232  0.00  0.00    +0.002 A 
ATOM      8  C   UNL     1      -1.392  -2.616   4.202  0.00  0.00    +0.026 A 
ATOM      9  C   UNL     1      -2.123  -3.297   3.186  0.00  0.00    +0.043 A 
ATOM     10  N   UNL     1      -1.692  -3.918   2.102  0.00  0.00    -0.375 N 
ATOM     11  C   UNL     1      -5.493  -4.292   1.773  0.00  0.00    +0.052 C 
ATOM     12  C   UNL     1      -5.575  -3.791   0.320  0.00  0.00    +0.114 C 
ATOM     13  N   UNL     1      -4.405  -4.268  -0.427  0.00  0.00    -0.272 N 
ATOM     14  C   UNL     1      -4.579  -5.019  -1.533  0.00  0.00    +0.307 C 
ATOM     15  O   UNL     1      -3.619  -5.339  -2.207  0.00  0.00    -0.252 OA
ATOM     16  N   UNL     1      -5.816  -5.416  -1.891  0.00  0.00    -0.269 N 
ATOM     17  H   UNL     1      -6.589  -5.097  -1.399  0.00  0.00    +0.156 HD
ATOM     18  H   UNL     1      -0.775  -3.984   1.793  0.00  0.00    +0.160 HD
ENDROOT
BRANCH  16  19
ATOM     19  C   UNL     1      -5.985  -6.283  -2.967  0.00  0.00    +0.049 A 
ATOM     20  C   UNL     1      -5.046  -7.275  -3.218  0.00  0.00    +0.024 A 
ATOM     21  C   UNL     1      -5.215  -8.133  -4.286  0.00  0.00    +0.002 A 
ATOM     22  C   UNL     1      -6.320  -8.014  -5.114  0.00  0.00    +0.001 A 
ATOM     23  C   UNL     1      -7.262  -7.036  -4.880  0.00  0.00    +0.017 A 
ATOM     24  C   UNL     1      -7.108  -6.163  -3.800  0.00  0.00    +0.080 A 
BRANCH  24  25
ATOM     25  C   UNL     1      -8.115  -5.119  -3.541  0.00  0.00    +0.341 C 
ATOM     26  O   UNL     1      -8.022  -4.417  -2.553  0.00  0.00    -0.245 OA
BRANCH  25  27
ATOM     27  O   UNL     1      -9.138  -4.942  -4.399  0.00  0.00    -0.464 OA
ATOM     28  C   UNL     1     -10.077  -3.912  -4.086  0.00  0.00    +0.280 C 
ENDBRANCH  25  27
ENDBRANCH  24  25
ENDBRANCH  16  19
BRANCH   1  29
ATOM     29  C   UNL     1      -2.866  -2.437   0.035  0.00  0.00    +0.262 C 
ATOM     30  O   UNL     1      -3.833  -1.713   0.052  0.00  0.00    -0.283 OA
BRANCH  29  31
ATOM     31  C   UNL     1      -1.496  -1.850   0.029  0.00  0.00    +0.377 C 
ATOM     32  O   UNL     1      -0.525  -2.576   0.013  0.00  0.00    -0.242 OA
BRANCH  31  33
ATOM     33  O   UNL     1      -1.336  -0.514   0.043  0.00  0.00    -0.459 OA
BRANCH  33  35
ATOM     34  C   UNL     1      -0.014   1.509   0.053  0.00  0.00    +0.048 C 
ATOM     35  C   UNL     1       0.005  -0.020   0.036  0.00  0.00    +0.229 C 
ENDBRANCH  33  35
ENDBRANCH  31  33
ENDBRANCH  29  31
ENDBRANCH   1  29
TORSDOF 7
