REMARK  Name = ZINC05566791
REMARK  0 active torsions:
REMARK  status: ('A' for Active; 'I' for Inactive)
REMARK                            x       y       z     vdW  Elec       q    Type
REMARK                         _______ _______ _______ _____ _____    ______ ____
ROOT
ATOM      1  C   UNL     1       0.757  -0.511   1.233  0.00  0.00    +0.000 C 
ATOM      2  C   UNL     1       0.002  -0.004   0.002  0.00  0.00    +0.002 C 
ATOM      3  C   UNL     1      -0.019   1.526   0.010  0.00  0.00    +0.026 C 
ATOM      4  C   UNL     1       1.412   2.058  -0.000  0.00  0.00    +0.042 C 
ATOM      5  C   UNL     1       2.179   1.542   1.215  0.00  0.00    +0.026 C 
ATOM      6  C   UNL     1       2.195   0.012   1.200  0.00  0.00    +0.002 C 
ATOM      7  C   UNL     1       1.392   3.600   0.019  0.00  0.00    +0.047 C 
ATOM      8  C   UNL     1      -0.019   4.060   0.347  0.00  0.00    +0.010 C 
ATOM      9  C   UNL     1      -0.165   5.547   0.402  0.00  0.00    +0.001 C 
ATOM     10  C   UNL     1      -0.240   6.229  -0.937  0.00  0.00    +0.004 C 
ATOM     11  C   UNL     1       1.117   6.431  -1.577  0.00  0.00    +0.027 C 
ATOM     12  C   UNL     1       1.736   5.139  -1.974  0.00  0.00    -0.018 C 
ATOM     13  C   UNL     1       1.783   3.980  -1.395  0.00  0.00    +0.015 C 
ATOM     14  C   UNL     1       2.369   2.753  -1.981  0.00  0.00    +0.241 C 
ATOM     15  O   UNL     1       3.017   2.727  -3.010  0.00  0.00    -0.271 OA
ATOM     16  N   UNL     1       2.094   1.677  -1.235  0.00  0.00    -0.305 N 
ATOM     17  H   UNL     1       2.317   0.765  -1.481  0.00  0.00    +0.150 HD
ENDROOT
TORSDOF 0
