REMARK  Name = ZINC38605053
REMARK  10 active torsions:
REMARK  status: ('A' for Active; 'I' for Inactive)
REMARK    1  A    between atoms: C_1  and  C_2
REMARK    2  A    between atoms: C_6  and  N_8
REMARK    3  A    between atoms: N_11  and  C_16
REMARK    4  A    between atoms: C_13  and  C_15
REMARK    5  A    between atoms: C_16  and  C_17
REMARK    6  A    between atoms: N_19  and  C_20
REMARK    7  A    between atoms: C_23  and  C_34
REMARK    8  A    between atoms: C_28  and  C_30
REMARK    9  A    between atoms: C_30  and  O_32
REMARK   10  A    between atoms: O_32  and  C_33
REMARK                            x       y       z     vdW  Elec       q    Type
REMARK                         _______ _______ _______ _____ _____    ______ ____
ROOT
ATOM      1  C   UNL     1       1.847  -5.319   7.551  0.00  0.00    +0.200 C 
ATOM      2  O   UNL     1       1.317  -4.263   7.276  0.00  0.00    -0.278 OA
ATOM      3  N   UNL     1       2.262  -5.556   8.811  0.00  0.00    -0.288 N 
ATOM      4  H   UNL     1       2.751  -6.369   9.016  0.00  0.00    +0.155 HD
ENDROOT
BRANCH   3   5
ATOM      5  C   UNL     1       1.996  -4.655   9.797  0.00  0.00    +0.053 C 
ATOM      6  C   UNL     1       2.430  -4.701  11.111  0.00  0.00    +0.018 A 
ATOM      7  C   UNL     1       3.235  -5.625  11.819  0.00  0.00    +0.015 A 
ATOM      8  C   UNL     1       3.506  -5.413  13.130  0.00  0.00    -0.050 A 
ATOM      9  C   UNL     1       3.009  -4.298  13.810  0.00  0.00    +0.005 A 
ATOM     10  C   UNL     1       2.232  -3.373  13.197  0.00  0.00    +0.026 A 
ATOM     11  C   UNL     1       1.905  -3.524  11.824  0.00  0.00    +0.045 A 
ATOM     12  N   UNL     1       1.182  -2.779  11.013  0.00  0.00    -0.367 N 
ATOM     13  C   UNL     1       1.169  -3.394   9.682  0.00  0.00    +0.234 C 
ATOM     14  C   UNL     1       4.364  -6.405  13.873  0.00  0.00    +0.044 C 
ATOM     15  H   UNL     1       0.734  -1.954  11.256  0.00  0.00    +0.161 HD
BRANCH  13  16
ATOM     16  C   UNL     1      -0.245  -3.734   9.285  0.00  0.00    +0.335 C 
ATOM     17  O   UNL     1      -1.032  -4.113  10.119  0.00  0.00    -0.248 OA
BRANCH  16  18
ATOM     18  O   UNL     1      -0.629  -3.616   8.004  0.00  0.00    -0.466 OA
ATOM     19  C   UNL     1      -1.983  -3.956   7.699  0.00  0.00    +0.280 C 
ENDBRANCH  16  18
ENDBRANCH  13  16
ENDBRANCH   3   5
BRANCH   1  20
ATOM     20  C   UNL     1       2.042  -6.365   6.484  0.00  0.00    +0.019 C 
BRANCH  20  24
ATOM     21  N   UNL     1       1.558  -5.192   2.496  0.00  0.00    -0.331 N 
ATOM     22  C   UNL     1       1.676  -4.122   3.498  0.00  0.00    +0.087 C 
ATOM     23  C   UNL     1       2.300  -4.711   4.767  0.00  0.00    -0.059 C 
ATOM     24  N   UNL     1       1.510  -5.868   5.208  0.00  0.00    +0.388 N 
ATOM     25  C   UNL     1       1.581  -6.934   4.201  0.00  0.00    -0.056 C 
ATOM     26  C   UNL     1       0.917  -6.453   2.902  0.00  0.00    +0.054 C 
ATOM     27  C   UNL     1       1.109  -7.503   1.805  0.00  0.00    +0.026 C 
ATOM     28  H   UNL     1       0.548  -5.589   5.333  0.00  0.00    -0.081 HD
BRANCH  21  34
ATOM     29  C   UNL     1       5.241  -5.524  -0.741  0.00  0.00    +0.044 C 
ATOM     30  C   UNL     1       3.816  -5.167  -0.403  0.00  0.00    -0.049 A 
ATOM     31  C   UNL     1       2.979  -4.664  -1.381  0.00  0.00    +0.003 A 
ATOM     32  C   UNL     1       1.672  -4.335  -1.075  0.00  0.00    +0.002 A 
ATOM     33  C   UNL     1       1.197  -4.509   0.210  0.00  0.00    +0.023 A 
ATOM     34  C   UNL     1       2.034  -5.015   1.195  0.00  0.00    +0.030 A 
ATOM     35  C   UNL     1       3.346  -5.349   0.883  0.00  0.00    +0.026 A 
ENDBRANCH  21  34
ENDBRANCH  20  24
ENDBRANCH   1  20
TORSDOF 6
