REMARK  Name = ZINC09368287
REMARK  5 active torsions:
REMARK  status: ('A' for Active; 'I' for Inactive)
REMARK    1  A    between atoms: C_1  and  N_2
REMARK    2  A    between atoms: C_3  and  C_11
REMARK    3  A    between atoms: N_7  and  C_10
REMARK    4  A    between atoms: C_11  and  S_12
REMARK    5  A    between atoms: S_12  and  C_13
REMARK                            x       y       z     vdW  Elec       q    Type
REMARK                         _______ _______ _______ _____ _____    ______ ____
ROOT
ATOM      1  S   UNL     1       1.527   3.962   0.608  0.00  0.00    -0.080 S 
ENDROOT
BRANCH   1   2
ATOM      2  C   UNL     1       1.900   5.158  -0.630  0.00  0.00    +0.191 A 
ATOM      3  N   UNL     1       3.164   5.508  -0.838  0.00  0.00    -0.207 NA
ATOM      4  C   UNL     1       3.505   6.399  -1.753  0.00  0.00    +0.129 A 
ATOM      5  C   UNL     1       2.492   7.008  -2.545  0.00  0.00    +0.047 A 
ATOM      6  C   UNL     1       2.610   8.001  -3.599  0.00  0.00    +0.021 A 
ATOM      7  C   UNL     1       1.502   8.436  -4.216  0.00  0.00    +0.048 A 
ATOM      8  S   UNL     1       0.194   7.529  -3.413  0.00  0.00    -0.077 S 
ATOM      9  C   UNL     1       1.172   6.589  -2.270  0.00  0.00    +0.114 A 
ATOM     10  N   UNL     1       0.914   5.689  -1.341  0.00  0.00    -0.215 NA
ATOM     11  N   UNL     1       4.834   6.736  -1.940  0.00  0.00    -0.343 N 
ATOM     12  H   UNL     1       5.521   6.318  -1.397  0.00  0.00    +0.144 HD
ATOM     13  H   UNL     1       5.078   7.391  -2.612  0.00  0.00    +0.144 HD
ENDBRANCH   1   2
BRANCH   1  14
ATOM     14  C   UNL     1      -0.275   3.891   0.444  0.00  0.00    +0.131 C 
BRANCH  14  17
ATOM     15  C   UNL     1      -0.013   1.086   0.008  0.00  0.00    +0.154 C 
ATOM     16  N   UNL     1      -0.698   1.558   1.213  0.00  0.00    -0.300 N 
ATOM     17  C   UNL     1      -0.831   2.902   1.435  0.00  0.00    +0.038 A 
ATOM     18  C   UNL     1      -1.468   3.337   2.543  0.00  0.00    +0.092 A 
ATOM     19  C   UNL     1      -1.977   2.389   3.462  0.00  0.00    +0.257 A 
ATOM     20  O   UNL     1      -2.551   2.757   4.471  0.00  0.00    -0.268 OA
ATOM     21  N   UNL     1      -1.821   1.073   3.210  0.00  0.00    -0.264 N 
ATOM     22  C   UNL     1      -1.187   0.667   2.095  0.00  0.00    +0.332 A 
ATOM     23  O   UNL     1      -1.054  -0.522   1.881  0.00  0.00    -0.246 OA
ATOM     24  C   UNL     1      -2.344   0.083   4.154  0.00  0.00    +0.157 C 
ENDBRANCH  14  17
ENDBRANCH   1  14
TORSDOF 3
