REMARK  Name = ZINC39453263
REMARK  8 active torsions:
REMARK  status: ('A' for Active; 'I' for Inactive)
REMARK    1  A    between atoms: C_1  and  C_2
REMARK    2  A    between atoms: C_2  and  O_3
REMARK    3  A    between atoms: O_3  and  C_4
REMARK    4  A    between atoms: N_16  and  S_19
REMARK    5  A    between atoms: S_19  and  O_22
REMARK    6  A    between atoms: O_22  and  C_23
REMARK    7  A    between atoms: C_32  and  S_35
REMARK    8  A    between atoms: S_35  and  C_36
REMARK                            x       y       z     vdW  Elec       q    Type
REMARK                         _______ _______ _______ _____ _____    ______ ____
ROOT
ATOM      1  C   UNL     1       0.984  -1.824   1.202  0.00  0.00    +0.130 A 
ATOM      2  C   UNL     1       0.442  -2.674   0.262  0.00  0.00    +0.046 A 
ATOM      3  C   UNL     1       0.479  -4.053   0.429  0.00  0.00    +0.006 A 
ATOM      4  C   UNL     1       1.049  -4.630   1.523  0.00  0.00    +0.028 A 
ATOM      5  C   UNL     1       1.620  -3.824   2.523  0.00  0.00    +0.075 A 
ATOM      6  C   UNL     1       1.591  -2.369   2.352  0.00  0.00    +0.043 A 
ATOM      7  C   UNL     1       2.165  -1.558   3.340  0.00  0.00    +0.029 A 
ATOM      8  C   UNL     1       2.739  -2.184   4.438  0.00  0.00    +0.069 A 
ATOM      9  C   UNL     1       2.735  -3.600   4.538  0.00  0.00    +0.100 A 
ATOM     10  N   UNL     1       2.184  -4.357   3.607  0.00  0.00    -0.244 NA
ATOM     11  C   UNL     1       3.354  -4.210   5.728  0.00  0.00    +0.084 A 
ATOM     12  C   UNL     1       3.919  -3.406   6.698  0.00  0.00    +0.137 A 
ATOM     13  N   UNL     1       3.910  -2.020   6.574  0.00  0.00    -0.141 N 
ATOM     14  C   UNL     1       3.361  -1.399   5.516  0.00  0.00    +0.283 A 
ATOM     15  O   UNL     1       3.377  -0.183   5.449  0.00  0.00    -0.265 OA
ATOM     16  C   UNL     1       4.521  -3.993   7.835  0.00  0.00    +0.186 C 
ATOM     17  O   UNL     1       4.974  -3.282   8.710  0.00  0.00    -0.290 OA
ATOM     18  C   UNL     1       4.606  -5.490   7.971  0.00  0.00    +0.114 C 
ATOM     19  C   UNL     1       3.423  -6.135   7.240  0.00  0.00    +0.136 C 
ATOM     20  N   UNL     1       3.368  -5.583   5.878  0.00  0.00    -0.328 N 
ATOM     21  H   UNL     1       3.341  -6.168   5.105  0.00  0.00    +0.147 HD
ENDROOT
BRANCH  13  22
ATOM     22  S   UNL     1       4.599  -1.105   7.770  0.00  0.00    +0.224 S 
ATOM     23  O   UNL     1       4.609   0.236   7.300  0.00  0.00    -0.113 OA
ATOM     24  O   UNL     1       3.966  -1.482   8.985  0.00  0.00    -0.113 OA
BRANCH  22  25
ATOM     25  O   UNL     1       6.054  -1.537   7.885  0.00  0.00    -0.329 OA
BRANCH  25  26
ATOM     26  C   UNL     1       6.847  -1.081   6.881  0.00  0.00    +0.158 A 
ATOM     27  C   UNL     1       7.006  -1.832   5.725  0.00  0.00    +0.048 A 
ATOM     28  C   UNL     1       7.813  -1.366   4.705  0.00  0.00    +0.004 A 
ATOM     29  C   UNL     1       8.462  -0.152   4.835  0.00  0.00    +0.000 A 
ATOM     30  C   UNL     1       8.306   0.598   5.986  0.00  0.00    +0.004 A 
ATOM     31  C   UNL     1       7.495   0.139   7.006  0.00  0.00    +0.048 A 
ENDBRANCH  25  26
ENDBRANCH  22  25
ENDBRANCH  13  22
BRANCH  19  32
ATOM     32  S   UNL     1       1.882  -5.756   8.118  0.00  0.00    -0.142 S 
ATOM     33  C   UNL     1       0.730  -5.284   6.799  0.00  0.00    +0.086 C 
ENDBRANCH  19  32
BRANCH   1  34
ATOM     34  O   UNL     1       0.938  -0.480   1.021  0.00  0.00    -0.492 OA
BRANCH  34  36
ATOM     35  C   UNL     1       0.349   1.522  -0.199  0.00  0.00    +0.048 C 
ATOM     36  C   UNL     1       0.305  -0.007  -0.170  0.00  0.00    +0.226 C 
ENDBRANCH  34  36
ENDBRANCH   1  34
TORSDOF 6
