REMARK  Name = ZINC39678510
REMARK  8 active torsions:
REMARK  status: ('A' for Active; 'I' for Inactive)
REMARK    1  A    between atoms: C_3  and  C_11
REMARK    2  A    between atoms: C_5  and  O_7
REMARK    3  A    between atoms: O_7  and  C_8
REMARK    4  A    between atoms: C_11  and  N_12
REMARK    5  A    between atoms: C_13  and  C_15
REMARK    6  A    between atoms: C_26  and  C_28
REMARK    7  A    between atoms: C_28  and  O_29
REMARK    8  A    between atoms: O_29  and  C_30
REMARK                            x       y       z     vdW  Elec       q    Type
REMARK                         _______ _______ _______ _____ _____    ______ ____
ROOT
ATOM      1  C   UNL     1       5.686   3.366   3.014  0.00  0.00    +0.100 C 
ATOM      2  C   UNL     1       4.716   4.342   3.717  0.00  0.00    +0.121 C 
ATOM      3  N   UNL     1       5.586   5.186   4.569  0.00  0.00    -0.297 N 
ATOM      4  C   UNL     1       6.792   5.426   3.740  0.00  0.00    +0.115 C 
ATOM      5  C   UNL     1       7.047   4.082   3.030  0.00  0.00    -0.004 C 
ATOM      6  C   UNL     1       7.534   4.322   1.605  0.00  0.00    -0.010 C 
ATOM      7  C   UNL     1       8.915   4.982   1.647  0.00  0.00    -0.082 C 
ATOM      8  N   UNL     1       9.854   4.112   2.366  0.00  0.00    +0.379 N 
ATOM      9  C   UNL     1       9.427   3.961   3.763  0.00  0.00    -0.082 C 
ATOM     10  C   UNL     1       8.068   3.258   3.810  0.00  0.00    -0.010 C 
ATOM     11  C   UNL     1       5.338   5.635   5.815  0.00  0.00    +0.253 C 
ATOM     12  O   UNL     1       6.157   6.323   6.386  0.00  0.00    -0.272 OA
ATOM     13  H   UNL     1       9.877   3.205   1.924  0.00  0.00    -0.086 HD
ATOM     14  H   UNL     1      10.776   4.520   2.340  0.00  0.00    -0.086 HD
ENDROOT
BRANCH   1  16
ATOM     15  N   UNL     1       5.534   1.944   0.996  0.00  0.00    -0.311 N 
ATOM     16  C   UNL     1       5.242   3.115   1.596  0.00  0.00    +0.218 C 
ATOM     17  O   UNL     1       4.621   3.966   0.996  0.00  0.00    -0.275 OA
ATOM     18  H   UNL     1       6.030   1.263   1.476  0.00  0.00    +0.149 HD
BRANCH  15  19
ATOM     19  C   UNL     1       5.102   1.700  -0.383  0.00  0.00    +0.139 C 
BRANCH  19  22
ATOM     20  C   UNL     1       5.139  -2.025  -1.004  0.00  0.00    +0.004 A 
ATOM     21  C   UNL     1       4.730  -0.764  -0.608  0.00  0.00    +0.005 A 
ATOM     22  C   UNL     1       5.551   0.328  -0.815  0.00  0.00    -0.027 A 
ATOM     23  C   UNL     1       6.784   0.163  -1.417  0.00  0.00    +0.051 A 
ATOM     24  C   UNL     1       7.197  -1.100  -1.814  0.00  0.00    +0.127 A 
ATOM     25  C   UNL     1       6.371  -2.195  -1.605  0.00  0.00    +0.046 A 
BRANCH  24  26
ATOM     26  O   UNL     1       8.409  -1.265  -2.406  0.00  0.00    -0.434 OA
BRANCH  26  27
ATOM     27  C   UNL     1       8.769  -2.594  -2.789  0.00  0.00    +0.541 C 
ATOM     28  F   UNL     1       8.789  -3.416  -1.657  0.00  0.00    -0.166 F 
ATOM     29  F   UNL     1       7.832  -3.084  -3.705  0.00  0.00    -0.166 F 
ENDBRANCH  26  27
ENDBRANCH  24  26
ENDBRANCH  19  22
ENDBRANCH  15  19
ENDBRANCH   1  16
BRANCH  11  30
ATOM     30  C   UNL     1       4.043   5.280   6.500  0.00  0.00    +0.324 C 
BRANCH  30  31
ATOM     31  O   UNL     1       4.016   5.869   7.802  0.00  0.00    -0.483 OA
BRANCH  31  32
ATOM     32  C   UNL     1       2.909   5.644   8.557  0.00  0.00    +0.123 A 
ATOM     33  C   UNL     1       1.872   4.869   8.058  0.00  0.00    +0.046 A 
ATOM     34  C   UNL     1       0.748   4.642   8.827  0.00  0.00    +0.005 A 
ATOM     35  C   UNL     1       0.654   5.186  10.095  0.00  0.00    +0.020 A 
ATOM     36  C   UNL     1       1.686   5.960  10.595  0.00  0.00    +0.044 A 
ATOM     37  C   UNL     1       2.816   6.186   9.831  0.00  0.00    +0.065 A 
ATOM     38 CL   UNL     1       1.565   6.643  12.187  0.00  0.00    -0.083 Cl
ENDBRANCH  31  32
ENDBRANCH  30  31
ENDBRANCH  11  30
TORSDOF 8
