REMARK  Name = ZINC12544508
REMARK  4 active torsions:
REMARK  status: ('A' for Active; 'I' for Inactive)
REMARK    1  A    between atoms: C_2  and  C_28
REMARK    2  A    between atoms: N_16  and  C_17
REMARK    3  A    between atoms: C_17  and  C_18
REMARK    4  A    between atoms: C_18  and  C_19
REMARK                            x       y       z     vdW  Elec       q    Type
REMARK                         _______ _______ _______ _____ _____    ______ ____
ROOT
ATOM      1  C   UNL     1      -2.125   5.566  -3.556  0.00  0.00    +0.037 A 
ATOM      2  C   UNL     1      -2.943   4.731  -4.306  0.00  0.00    +0.074 A 
ATOM      3  C   UNL     1      -3.098   3.414  -3.925  0.00  0.00    +0.125 A 
ATOM      4  N   UNL     1      -2.478   2.940  -2.860  0.00  0.00    -0.238 NA
ATOM      5  C   UNL     1      -1.690   3.702  -2.119  0.00  0.00    +0.140 A 
ATOM      6  C   UNL     1      -1.493   5.042  -2.441  0.00  0.00    +0.081 A 
ATOM      7 CL   UNL     1      -0.464   6.041  -1.463  0.00  0.00    -0.080 Cl
ATOM      8  N   UNL     1      -1.057   3.161  -1.005  0.00  0.00    -0.311 N 
ATOM      9  C   UNL     1      -0.870   1.712  -1.157  0.00  0.00    +0.125 C 
ATOM     10  C   UNL     1      -0.014   1.186  -0.001  0.00  0.00    +0.128 C 
ATOM     11  N   UNL     1      -0.629   1.603   1.268  0.00  0.00    -0.283 N 
ATOM     12  C   UNL     1      -0.977   3.023   1.439  0.00  0.00    +0.128 C 
ATOM     13  C   UNL     1      -1.796   3.477   0.225  0.00  0.00    +0.125 C 
ATOM     14  C   UNL     1      -0.873   0.709   2.247  0.00  0.00    +0.302 C 
ATOM     15  O   UNL     1      -0.493  -0.441   2.127  0.00  0.00    -0.253 OA
ATOM     16  N   UNL     1      -1.536   1.087   3.357  0.00  0.00    -0.299 N 
ATOM     17  H   UNL     1      -1.956   2.102   3.428  0.00  0.00    +0.150 HD
ENDROOT
BRANCH   2  18
ATOM     18  C   UNL     1      -3.656   5.260  -5.524  0.00  0.00    +0.419 C 
ATOM     19  F   UNL     1      -4.412   4.234  -6.103  0.00  0.00    -0.166 F 
ATOM     20  F   UNL     1      -4.502   6.309  -5.152  0.00  0.00    -0.166 F 
ATOM     21  F   UNL     1      -2.715   5.725  -6.450  0.00  0.00    -0.166 F 
ENDBRANCH   2  18
BRANCH  16  22
ATOM     22  C   UNL     1      -1.698   0.148   4.470  0.00  0.00    +0.112 C 
BRANCH  22  23
ATOM     23  C   UNL     1      -2.482   0.824   5.597  0.00  0.00    +0.073 C 
BRANCH  23  24
ATOM     24  C   UNL     1      -2.648  -0.142   6.742  0.00  0.00    +0.035 A 
ATOM     25  C   UNL     1      -2.281   0.075   8.021  0.00  0.00    +0.108 A 
ATOM     26  N   UNL     1      -2.613  -1.047   8.720  0.00  0.00    -0.336 N 
ATOM     27  C   UNL     1      -3.164  -1.921   7.844  0.00  0.00    +0.087 A 
ATOM     28  N   UNL     1      -3.182  -1.372   6.665  0.00  0.00    -0.347 N 
ATOM     29  C   UNL     1      -3.661  -3.296   8.223  0.00  0.00    +0.072 C 
ATOM     30  C   UNL     1      -3.079  -3.654   9.597  0.00  0.00    +0.009 C 
ATOM     31  C   UNL     1      -3.306  -2.486  10.561  0.00  0.00    +0.022 C 
ATOM     32  C   UNL     1      -2.421  -1.304  10.149  0.00  0.00    +0.123 C 
ATOM     33  H   UNL     1      -3.547  -1.754   5.700  0.00  0.00    +0.167 HD
ENDBRANCH  23  24
ENDBRANCH  22  23
ENDBRANCH  16  22
TORSDOF 4
