REMARK  Name = ZINC20617432
REMARK  9 active torsions:
REMARK  status: ('A' for Active; 'I' for Inactive)
REMARK    1  A    between atoms: C_1  and  C_2
REMARK    2  A    between atoms: C_2  and  O_3
REMARK    3  A    between atoms: O_3  and  C_4
REMARK    4  A    between atoms: C_9  and  N_10
REMARK    5  A    between atoms: C_12  and  C_24
REMARK    6  A    between atoms: C_15  and  C_22
REMARK    7  A    between atoms: C_18  and  C_21
REMARK    8  A    between atoms: C_22  and  O_23
REMARK    9  A    between atoms: N_26  and  C_27
REMARK                            x       y       z     vdW  Elec       q    Type
REMARK                         _______ _______ _______ _____ _____    ______ ____
ROOT
ATOM      1  N   UNL     1       3.591   2.092  -0.033  0.00  0.00    -0.322 N 
ATOM      2  C   UNL     1       3.568   3.402  -0.127  0.00  0.00    +0.212 A 
ATOM      3  C   UNL     1       4.820   4.177  -0.239  0.00  0.00    +0.098 A 
ATOM      4  C   UNL     1       4.753   5.397  -0.874  0.00  0.00    +0.030 A 
ATOM      5  C   UNL     1       3.445   5.820  -1.379  0.00  0.00    +0.027 A 
ATOM      6  C   UNL     1       3.308   6.901  -2.258  0.00  0.00    +0.007 A 
ATOM      7  C   UNL     1       2.044   7.238  -2.695  0.00  0.00    +0.117 A 
ATOM      8  N   UNL     1       0.981   6.562  -2.299  0.00  0.00    -0.256 NA
ATOM      9  C   UNL     1       1.057   5.539  -1.472  0.00  0.00    +0.081 A 
ATOM     10  C   UNL     1       2.287   5.127  -0.979  0.00  0.00    +0.159 A 
ATOM     11  O   UNL     1       2.391   4.081  -0.130  0.00  0.00    -0.437 OA
ATOM     12  C   UNL     1      -0.197   4.812  -1.061  0.00  0.00    +0.069 C 
ATOM     13  H   UNL     1       4.552   1.563   0.047  0.00  0.00    +0.169 HD
ENDROOT
BRANCH   1  19
ATOM     14  C   UNL     1       1.815   1.025  -1.245  0.00  0.00    +0.144 A 
ATOM     15  C   UNL     1       0.630   0.310  -1.235  0.00  0.00    +0.048 A 
ATOM     16  C   UNL     1       0.046  -0.049  -0.033  0.00  0.00    +0.004 A 
ATOM     17  C   UNL     1       0.639   0.305   1.166  0.00  0.00    +0.002 A 
ATOM     18  C   UNL     1       1.821   1.019   1.173  0.00  0.00    +0.029 A 
ATOM     19  C   UNL     1       2.420   1.385  -0.033  0.00  0.00    +0.084 A 
BRANCH  14  20
ATOM     20  O   UNL     1       2.390   1.377  -2.425  0.00  0.00    -0.490 OA
BRANCH  20  22
ATOM     21  C   UNL     1       2.507   1.457  -4.838  0.00  0.00    +0.048 C 
ATOM     22  C   UNL     1       1.716   0.975  -3.620  0.00  0.00    +0.226 C 
ENDBRANCH  20  22
ENDBRANCH  14  20
ENDBRANCH   1  19
BRANCH   3  23
ATOM     23  C   UNL     1       6.091   3.666   0.307  0.00  0.00    +0.253 C 
ATOM     24  O   UNL     1       7.107   4.325   0.201  0.00  0.00    -0.270 OA
ATOM     25  N   UNL     1       6.125   2.468   0.924  0.00  0.00    -0.280 N 
ATOM     26  H   UNL     1       5.192   1.913   1.102  0.00  0.00    +0.155 HD
BRANCH  25  27
ATOM     27  C   UNL     1       7.348   1.929   1.338  0.00  0.00    +0.052 A 
ATOM     28  C   UNL     1       8.525   2.310   0.707  0.00  0.00    +0.025 A 
ATOM     29  C   UNL     1       9.731   1.776   1.118  0.00  0.00    +0.002 A 
ATOM     30  C   UNL     1       9.768   0.864   2.157  0.00  0.00    +0.002 A 
ATOM     31  C   UNL     1       8.598   0.483   2.788  0.00  0.00    +0.022 A 
ATOM     32  C   UNL     1       7.388   1.017   2.386  0.00  0.00    +0.062 A 
ATOM     33 CL   UNL     1       5.921   0.544   3.183  0.00  0.00    -0.082 Cl
ENDBRANCH  25  27
ENDBRANCH   3  23
BRANCH   6  34
ATOM     34  C   UNL     1       4.515   7.678  -2.717  0.00  0.00    +0.193 C 
BRANCH  34  35
ATOM     35  O   UNL     1       4.101   8.721  -3.602  0.00  0.00    -0.390 OA
ATOM     36  H   UNL     1       4.849   9.398  -4.042  0.00  0.00    +0.210 HD
ENDBRANCH  34  35
ENDBRANCH   6  34
TORSDOF 7
