REMARK  Name = ZINC08732281
REMARK  5 active torsions:
REMARK  status: ('A' for Active; 'I' for Inactive)
REMARK    1  A    between atoms: C_4  and  C_7
REMARK    2  A    between atoms: C_9  and  S_12
REMARK    3  A    between atoms: S_12  and  S_13
REMARK    4  A    between atoms: S_13  and  C_14
REMARK    5  A    between atoms: C_16  and  C_19
REMARK                            x       y       z     vdW  Elec       q    Type
REMARK                         _______ _______ _______ _____ _____    ______ ____
ROOT
ATOM      1  S   UNL     1       5.814  -3.946  -0.077  0.00  0.00    -0.010 S 
ENDROOT
BRANCH   1   4
ATOM      2  C   UNL     1       3.699  -0.689  -0.038  0.00  0.00    +0.182 A 
ATOM      3  N   UNL     1       3.849  -2.021  -0.047  0.00  0.00    -0.200 NA
ATOM      4  C   UNL     1       5.131  -2.322  -0.062  0.00  0.00    +0.196 A 
ATOM      5  N   UNL     1       5.831  -1.164  -0.064  0.00  0.00    -0.253 N 
ATOM      6  N   UNL     1       4.886  -0.126  -0.053  0.00  0.00    -0.152 NA
ATOM      7  H   UNL     1       6.797  -1.069  -0.073  0.00  0.00    +0.191 HD
BRANCH   2  11
ATOM      8  C   UNL     1      -0.017   1.379   0.010  0.00  0.00    +0.000 A 
ATOM      9  C   UNL     1       1.169   2.092   0.002  0.00  0.00    +0.001 A 
ATOM     10  C   UNL     1       2.377   1.426  -0.013  0.00  0.00    +0.011 A 
ATOM     11  C   UNL     1       2.402   0.033  -0.021  0.00  0.00    +0.021 A 
ATOM     12  C   UNL     1       1.205  -0.680  -0.013  0.00  0.00    +0.011 A 
ATOM     13  C   UNL     1       0.002  -0.004   0.002  0.00  0.00    +0.001 A 
ENDBRANCH   2  11
ENDBRANCH   1   4
BRANCH   1  14
ATOM     14  S   UNL     1       5.985  -4.393  -2.071  0.00  0.00    -0.008 S 
BRANCH  14  15
ATOM     15  C   UNL     1       7.535  -3.692  -2.533  0.00  0.00    +0.222 A 
ATOM     16  N   UNL     1       8.714  -4.316  -2.484  0.00  0.00    -0.198 NA
ATOM     17  C   UNL     1       9.664  -3.504  -2.901  0.00  0.00    +0.184 A 
ATOM     18  N   UNL     1       9.091  -2.324  -3.228  0.00  0.00    -0.126 NA
ATOM     19  N   UNL     1       7.715  -2.472  -2.987  0.00  0.00    -0.120 NA
BRANCH  17  20
ATOM     20  C   UNL     1      11.105  -3.826  -2.993  0.00  0.00    +0.021 A 
ATOM     21  C   UNL     1      11.565  -5.091  -2.626  0.00  0.00    +0.011 A 
ATOM     22  C   UNL     1      12.911  -5.385  -2.714  0.00  0.00    +0.001 A 
ATOM     23  C   UNL     1      13.803  -4.429  -3.166  0.00  0.00    +0.000 A 
ATOM     24  C   UNL     1      13.353  -3.173  -3.531  0.00  0.00    +0.001 A 
ATOM     25  C   UNL     1      12.009  -2.868  -3.453  0.00  0.00    +0.011 A 
ENDBRANCH  17  20
ENDBRANCH  14  15
ENDBRANCH   1  14
TORSDOF 5
