REMARK  Name = ZINC36730452
REMARK  8 active torsions:
REMARK  status: ('A' for Active; 'I' for Inactive)
REMARK    1  A    between atoms: C_1  and  C_2
REMARK    2  A    between atoms: C_2  and  C_22
REMARK    3  A    between atoms: N_5  and  C_9
REMARK    4  A    between atoms: C_9  and  C_10
REMARK    5  A    between atoms: N_12  and  C_13
REMARK    6  A    between atoms: C_16  and  N_19
REMARK    7  A    between atoms: N_19  and  C_20
REMARK    8  A    between atoms: N_19  and  C_21
REMARK                            x       y       z     vdW  Elec       q    Type
REMARK                         _______ _______ _______ _____ _____    ______ ____
ROOT
ATOM      1  C   UNL     1      -0.024   1.530   0.022  0.00  0.00    +0.047 C 
ATOM      2  C   UNL     1      -0.004   0.001   0.006  0.00  0.00    +0.136 C 
ATOM      3  C   UNL     1      -1.409  -0.552   0.148  0.00  0.00    +0.251 C 
ATOM      4  O   UNL     1      -2.343  -0.382  -0.605  0.00  0.00    -0.272 OA
ATOM      5  N   UNL     1      -1.402  -1.273   1.287  0.00  0.00    -0.215 N 
ATOM      6  C   UNL     1      -0.202  -1.252   1.877  0.00  0.00    +0.310 C 
ATOM      7  O   UNL     1       0.050  -1.830   2.917  0.00  0.00    -0.252 OA
ATOM      8  N   UNL     1       0.696  -0.522   1.192  0.00  0.00    -0.281 N 
ATOM      9  H   UNL     1       1.623  -0.369   1.431  0.00  0.00    +0.152 HD
ENDROOT
BRANCH   2  10
ATOM     10  C   UNL     1       0.642  -0.506  -1.258  0.00  0.00    +0.003 A 
ATOM     11  C   UNL     1       1.780  -1.288  -1.186  0.00  0.00    +0.009 A 
ATOM     12  C   UNL     1       2.374  -1.753  -2.344  0.00  0.00    +0.020 A 
ATOM     13  C   UNL     1       1.829  -1.436  -3.576  0.00  0.00    +0.042 A 
ATOM     14  C   UNL     1       0.691  -0.654  -3.649  0.00  0.00    +0.040 A 
ATOM     15  C   UNL     1       0.094  -0.193  -2.489  0.00  0.00    +0.048 A 
ATOM     16 CL   UNL     1      -1.338   0.784  -2.578  0.00  0.00    -0.083 Cl
ATOM     17 CL   UNL     1       2.576  -2.020  -5.031  0.00  0.00    -0.083 Cl
ENDBRANCH   2  10
BRANCH   5  18
ATOM     18  C   UNL     1      -2.567  -1.989   1.814  0.00  0.00    +0.214 C 
BRANCH  18  19
ATOM     19  C   UNL     1      -2.586  -3.391   1.261  0.00  0.00    +0.235 C 
ATOM     20  O   UNL     1      -1.714  -3.756   0.501  0.00  0.00    -0.274 OA
ATOM     21  N   UNL     1      -3.573  -4.240   1.610  0.00  0.00    -0.284 N 
ATOM     22  H   UNL     1      -4.233  -3.971   2.268  0.00  0.00    +0.155 HD
BRANCH  21  23
ATOM     23  C   UNL     1      -3.647  -5.510   1.022  0.00  0.00    +0.034 A 
ATOM     24  C   UNL     1      -4.884  -6.081   0.754  0.00  0.00    +0.025 A 
ATOM     25  C   UNL     1      -4.956  -7.332   0.175  0.00  0.00    +0.025 A 
ATOM     26  C   UNL     1      -3.791  -8.019  -0.141  0.00  0.00    +0.029 A 
ATOM     27  C   UNL     1      -2.554  -7.447   0.126  0.00  0.00    +0.025 A 
ATOM     28  C   UNL     1      -2.482  -6.194   0.701  0.00  0.00    +0.025 A 
BRANCH  26  29
ATOM     29  N   UNL     1      -3.864  -9.287  -0.728  0.00  0.00    -0.336 N 
ATOM     30  C   UNL     1      -5.164  -9.843  -1.111  0.00  0.00    +0.129 C 
ATOM     31  C   UNL     1      -2.640 -10.058  -0.960  0.00  0.00    +0.129 C 
ENDBRANCH  26  29
ENDBRANCH  21  23
ENDBRANCH  18  19
ENDBRANCH   5  18
TORSDOF 5
