REMARK  Name = ZINC06017277
REMARK  8 active torsions:
REMARK  status: ('A' for Active; 'I' for Inactive)
REMARK    1  A    between atoms: C_4  and  C_7
REMARK    2  A    between atoms: C_7  and  N_8
REMARK    3  A    between atoms: C_9  and  C_29
REMARK    4  A    between atoms: C_12  and  S_13
REMARK    5  A    between atoms: S_13  and  C_14
REMARK    6  A    between atoms: C_14  and  C_15
REMARK    7  A    between atoms: C_15  and  C_17
REMARK    8  A    between atoms: C_17  and  C_27
REMARK                            x       y       z     vdW  Elec       q    Type
REMARK                         _______ _______ _______ _____ _____    ______ ____
ROOT
ATOM      1  S   UNL     1      -4.442   3.051   1.729  0.00  0.00    -0.078 S 
ENDROOT
BRANCH   1   6
ATOM      2  N   UNL     1      -2.927   0.722   1.401  0.00  0.00    -0.295 N 
ATOM      3  C   UNL     1      -2.604  -0.370   2.177  0.00  0.00    +0.201 A 
ATOM      4  N   UNL     1      -3.180  -0.194   3.346  0.00  0.00    -0.125 NA
ATOM      5  N   UNL     1      -3.836   0.911   3.350  0.00  0.00    -0.122 NA
ATOM      6  C   UNL     1      -3.717   1.512   2.188  0.00  0.00    +0.193 A 
BRANCH   3   7
ATOM      7  C   UNL     1      -1.772  -1.514   1.775  0.00  0.00    +0.172 A 
ATOM      8  C   UNL     1      -1.218  -2.434   2.613  0.00  0.00    +0.053 A 
ATOM      9  C   UNL     1      -0.509  -3.344   1.804  0.00  0.00    +0.042 A 
ATOM     10  C   UNL     1      -0.656  -2.937   0.528  0.00  0.00    +0.196 A 
ATOM     11  O   UNL     1      -1.418  -1.831   0.513  0.00  0.00    -0.460 OA
ENDBRANCH   3   7
BRANCH   2  12
ATOM     12  C   UNL     1      -2.514   0.980   0.019  0.00  0.00    +0.161 C 
BRANCH  12  16
ATOM     13  C   UNL     1       1.156   3.165   0.008  0.00  0.00    +0.000 A 
ATOM     14  C   UNL     1       1.175   1.783   0.000  0.00  0.00    +0.000 A 
ATOM     15  C   UNL     1      -0.013   1.076   0.008  0.00  0.00    +0.005 A 
ATOM     16  C   UNL     1      -1.219   1.751   0.017  0.00  0.00    -0.028 A 
ATOM     17  C   UNL     1      -1.238   3.133   0.030  0.00  0.00    +0.005 A 
ATOM     18  C   UNL     1      -0.050   3.840   0.022  0.00  0.00    +0.000 A 
ENDBRANCH  12  16
ENDBRANCH   2  12
ENDBRANCH   1   6
BRANCH   1  19
ATOM     19  C   UNL     1      -5.311   3.459   3.263  0.00  0.00    +0.157 C 
BRANCH  19  20
ATOM     20  C   UNL     1      -6.026   4.776   3.101  0.00  0.00    +0.187 C 
ATOM     21  O   UNL     1      -5.954   5.381   2.049  0.00  0.00    -0.290 OA
BRANCH  20  22
ATOM     22  C   UNL     1      -6.775   5.305   4.165  0.00  0.00    +0.131 C 
ATOM     23  C   UNL     1      -7.442   6.534   4.014  0.00  0.00    +0.114 C 
ATOM     24  N   UNL     1      -7.431   7.302   2.894  0.00  0.00    -0.300 N 
ATOM     25  C   UNL     1      -8.204   8.432   3.132  0.00  0.00    +0.054 A 
ATOM     26  C   UNL     1      -8.538   9.533   2.356  0.00  0.00    +0.025 A 
ATOM     27  C   UNL     1      -9.341  10.526   2.880  0.00  0.00    +0.002 A 
ATOM     28  C   UNL     1      -9.815  10.429   4.178  0.00  0.00    +0.002 A 
ATOM     29  C   UNL     1      -9.489   9.338   4.958  0.00  0.00    +0.025 A 
ATOM     30  C   UNL     1      -8.682   8.334   4.441  0.00  0.00    +0.054 A 
ATOM     31  N   UNL     1      -8.193   7.144   4.967  0.00  0.00    -0.300 N 
ATOM     32  H   UNL     1      -6.866   6.975   2.008  0.00  0.00    +0.153 HD
ATOM     33  H   UNL     1      -8.318   6.673   5.953  0.00  0.00    +0.153 HD
BRANCH  22  34
ATOM     34  C   UNL     1      -6.860   4.592   5.405  0.00  0.00    +0.106 C 
ATOM     35  N   UNL     1      -6.927   4.027   6.388  0.00  0.00    -0.191 NA
ENDBRANCH  22  34
ENDBRANCH  20  22
ENDBRANCH  19  20
ENDBRANCH   1  19
TORSDOF 8
