REMARK  Name = ZINC35911265
REMARK  8 active torsions:
REMARK  status: ('A' for Active; 'I' for Inactive)
REMARK    1  A    between atoms: C_1  and  C_2
REMARK    2  A    between atoms: C_4  and  C_14
REMARK    3  A    between atoms: N_6  and  C_7
REMARK    4  A    between atoms: C_15  and  C_36
REMARK    5  A    between atoms: C_18  and  O_25
REMARK    6  A    between atoms: O_25  and  C_26
REMARK    7  A    between atoms: C_26  and  C_27
REMARK    8  A    between atoms: N_29  and  C_30
REMARK                            x       y       z     vdW  Elec       q    Type
REMARK                         _______ _______ _______ _____ _____    ______ ____
ROOT
ATOM      1  C   UNL     1       0.041  -3.331  -1.536  0.00  0.00    +0.088 A 
ATOM      2  C   UNL     1       0.056  -4.612  -0.989  0.00  0.00    +0.055 A 
ATOM      3  N   UNL     1       0.067  -5.668  -1.783  0.00  0.00    -0.230 NA
ATOM      4  C   UNL     1       0.064  -5.543  -3.109  0.00  0.00    +0.183 A 
ATOM      5  C   UNL     1       0.076  -6.702  -3.914  0.00  0.00    +0.164 A 
ATOM      6  C   UNL     1       0.073  -6.574  -5.275  0.00  0.00    +0.051 A 
ATOM      7  C   UNL     1       0.058  -5.295  -5.848  0.00  0.00    +0.022 A 
ATOM      8  C   UNL     1       0.047  -4.197  -5.060  0.00  0.00    +0.096 A 
ATOM      9  N   UNL     1       0.050  -4.311  -3.702  0.00  0.00    -0.265 N 
ATOM     10  C   UNL     1       0.033  -3.196  -2.941  0.00  0.00    +0.268 A 
ATOM     11  O   UNL     1       0.015  -2.091  -3.458  0.00  0.00    -0.267 OA
ATOM     12  C   UNL     1       0.060  -4.794   0.507  0.00  0.00    +0.066 C 
ENDROOT
BRANCH   1  16
ATOM     13  C   UNL     1      -0.018   1.503   0.010  0.00  0.00    +0.066 C 
ATOM     14  C   UNL     1       0.002  -0.004   0.002  0.00  0.00    +0.042 A 
ATOM     15  C   UNL     1       0.008  -0.793  -1.094  0.00  0.00    +0.053 A 
ATOM     16  C   UNL     1       0.029  -2.135  -0.662  0.00  0.00    +0.100 A 
ATOM     17  N   UNL     1       0.035  -2.139   0.655  0.00  0.00    -0.166 NA
ATOM     18  N   UNL     1       0.023  -0.810   1.096  0.00  0.00    -0.236 N 
BRANCH  18  19
ATOM     19  C   UNL     1       0.029  -0.385   2.431  0.00  0.00    +0.067 A 
ATOM     20  C   UNL     1       0.701   0.777   2.788  0.00  0.00    +0.028 A 
ATOM     21  C   UNL     1       0.706   1.194   4.105  0.00  0.00    +0.003 A 
ATOM     22  C   UNL     1       0.043   0.455   5.068  0.00  0.00    +0.020 A 
ATOM     23  C   UNL     1      -0.627  -0.703   4.716  0.00  0.00    +0.043 A 
ATOM     24  C   UNL     1      -0.640  -1.122   3.398  0.00  0.00    +0.047 A 
ATOM     25 CL   UNL     1      -1.458  -1.627   5.928  0.00  0.00    -0.083 Cl
ENDBRANCH  18  19
ENDBRANCH   1  16
BRANCH   5  26
ATOM     26  O   UNL     1       0.091  -7.935  -3.341  0.00  0.00    -0.479 OA
BRANCH  26  27
ATOM     27  C   UNL     1       0.102  -9.059  -4.223  0.00  0.00    +0.324 C 
BRANCH  27  28
ATOM     28  C   UNL     1       0.117 -10.331  -3.414  0.00  0.00    +0.251 C 
ATOM     29  O   UNL     1       0.118 -10.279  -2.202  0.00  0.00    -0.272 OA
ATOM     30  N   UNL     1       0.130 -11.526  -4.037  0.00  0.00    -0.310 N 
ATOM     31  H   UNL     1       0.129 -11.568  -5.007  0.00  0.00    +0.149 HD
BRANCH  30  32
ATOM     32  C   UNL     1       0.145 -12.762  -3.251  0.00  0.00    +0.073 C 
ATOM     33  C   UNL     1       1.586 -13.109  -2.874  0.00  0.00    +0.022 C 
ATOM     34  C   UNL     1       1.602 -14.400  -2.053  0.00  0.00    +0.002 C 
ATOM     35  C   UNL     1       1.004 -15.539  -2.881  0.00  0.00    +0.000 C 
ATOM     36  C   UNL     1      -0.438 -15.192  -3.259  0.00  0.00    +0.002 C 
ATOM     37  C   UNL     1      -0.454 -13.901  -4.080  0.00  0.00    +0.022 C 
ENDBRANCH  30  32
ENDBRANCH  27  28
ENDBRANCH  26  27
ENDBRANCH   5  26
TORSDOF 6
