REMARK  Name = ZINC05236679
REMARK  5 active torsions:
REMARK  status: ('A' for Active; 'I' for Inactive)
REMARK    1  A    between atoms: C_1  and  C_2
REMARK    2  A    between atoms: C_7  and  C_11
REMARK    3  A    between atoms: C_15  and  O_17
REMARK    4  A    between atoms: O_17  and  C_18
REMARK    5  A    between atoms: C_21  and  C_23
REMARK                            x       y       z     vdW  Elec       q    Type
REMARK                         _______ _______ _______ _____ _____    ______ ____
ROOT
ATOM      1  C   UNL     1      -0.018   1.503   0.010  0.00  0.00    +0.044 C 
ATOM      2  C   UNL     1       0.002  -0.004   0.002  0.00  0.00    -0.049 C 
ATOM      3  C   UNL     1      -1.175  -0.684   0.004  0.00  0.00    +0.016 C 
ATOM      4  C   UNL     1      -1.171  -2.096  -0.004  0.00  0.00    +0.040 C 
ATOM      5  C   UNL     1      -2.370  -2.814  -0.003  0.00  0.00    +0.031 C 
ATOM      6  C   UNL     1      -3.766  -2.218   0.001  0.00  0.00    +0.077 C 
ATOM      7  C   UNL     1      -4.642  -3.435  -0.385  0.00  0.00    +0.108 C 
ATOM      8  N   UNL     1      -3.785  -4.569   0.032  0.00  0.00    -0.235 NA
ATOM      9  N   UNL     1      -2.489  -4.148  -0.010  0.00  0.00    -0.283 N 
ATOM     10  C   UNL     1       0.121  -2.794  -0.015  0.00  0.00    +0.190 C 
ATOM     11  O   UNL     1       0.172  -4.016  -0.022  0.00  0.00    -0.287 OA
ATOM     12  C   UNL     1       1.299  -2.027  -0.016  0.00  0.00    -0.003 C 
ATOM     13  C   UNL     1       1.226  -0.668  -0.013  0.00  0.00    +0.010 C 
ATOM     14  C   UNL     1       2.643  -2.709  -0.026  0.00  0.00    +0.048 C 
ATOM     15  H   UNL     1      -4.034  -4.891   0.955  0.00  0.00    +0.145 HD
ATOM     16  H   UNL     1      -1.730  -4.752  -0.040  0.00  0.00    +0.166 HD
ENDROOT
BRANCH   7  17
ATOM     17  C   UNL     1      -5.940  -3.429   0.380  0.00  0.00    -0.025 A 
ATOM     18  C   UNL     1      -5.974  -3.881   1.687  0.00  0.00    +0.005 A 
ATOM     19  C   UNL     1      -7.163  -3.877   2.391  0.00  0.00    +0.004 A 
ATOM     20  C   UNL     1      -8.322  -3.422   1.791  0.00  0.00    +0.045 A 
ATOM     21  C   UNL     1      -8.290  -2.969   0.480  0.00  0.00    +0.120 A 
ATOM     22  C   UNL     1      -7.094  -2.968  -0.223  0.00  0.00    +0.051 A 
BRANCH  21  23
ATOM     23  O   UNL     1      -9.428  -2.521  -0.113  0.00  0.00    -0.495 OA
ATOM     24  C   UNL     1     -10.622  -2.546   0.673  0.00  0.00    +0.277 C 
ENDBRANCH  21  23
ENDBRANCH   7  17
TORSDOF 2
