REMARK  Name = ZINC40247901
REMARK  3 active torsions:
REMARK  status: ('A' for Active; 'I' for Inactive)
REMARK    1  A    between atoms: C_3  and  C_6
REMARK    2  A    between atoms: C_6  and  C_8
REMARK    3  A    between atoms: C_6  and  O_20
REMARK                            x       y       z     vdW  Elec       q    Type
REMARK                         _______ _______ _______ _____ _____    ______ ____
ROOT
ATOM      1  C   UNL     1       4.330   1.776   1.369  0.00  0.00    -0.012 A 
ATOM      2  C   UNL     1       4.902   0.599   1.822  0.00  0.00    +0.008 A 
ATOM      3  C   UNL     1       5.427   0.526   3.098  0.00  0.00    +0.028 A 
ATOM      4  C   UNL     1       5.381   1.636   3.928  0.00  0.00    +0.067 A 
ATOM      5  C   UNL     1       4.805   2.822   3.471  0.00  0.00    +0.067 A 
ATOM      6  C   UNL     1       4.285   2.888   2.187  0.00  0.00    +0.034 A 
ATOM      7  N   UNL     1       4.904   3.745   4.510  0.00  0.00    -0.306 N 
ATOM      8  H   UNL     1       4.589   4.662   4.487  0.00  0.00    +0.170 HD
ATOM      9  C   UNL     1       5.513   3.147   5.551  0.00  0.00    +0.325 A 
ATOM     10  O   UNL     1       5.756   3.676   6.619  0.00  0.00    -0.247 OA
ATOM     11  N   UNL     1       5.813   1.874   5.230  0.00  0.00    -0.306 N 
ATOM     12  H   UNL     1       6.255   1.232   5.808  0.00  0.00    +0.170 HD
ENDROOT
BRANCH   1  13
ATOM     13  C   UNL     1       3.761   1.845  -0.024  0.00  0.00    +0.181 C 
BRANCH  13  16
ATOM     14  C   UNL     1      -0.016   1.351   0.009  0.00  0.00    +0.008 A 
ATOM     15  C   UNL     1       1.183   2.038   0.002  0.00  0.00    +0.014 A 
ATOM     16  C   UNL     1       2.343   1.336  -0.013  0.00  0.00    +0.022 A 
ATOM     17  S   UNL     1       1.754  -0.349  -0.017  0.00  0.00    -0.099 S 
ATOM     18  C   UNL     1       0.002  -0.004   0.002  0.00  0.00    +0.045 A 
ENDBRANCH  13  16
BRANCH  13  19
ATOM     19  O   UNL     1       4.550   1.040  -0.902  0.00  0.00    -0.382 OA
ATOM     20  H   UNL     1       4.584   0.106  -0.654  0.00  0.00    +0.211 HD
ENDBRANCH  13  19
ENDBRANCH   1  13
TORSDOF 3
