REMARK  Name = ZINC00706491
REMARK  6 active torsions:
REMARK  status: ('A' for Active; 'I' for Inactive)
REMARK    1  A    between atoms: C_1  and  C_2
REMARK    2  A    between atoms: C_3  and  C_20
REMARK    3  A    between atoms: C_4  and  C_10
REMARK    4  A    between atoms: C_20  and  O_22
REMARK    5  A    between atoms: O_22  and  C_23
REMARK    6  A    between atoms: C_23  and  C_24
REMARK                            x       y       z     vdW  Elec       q    Type
REMARK                         _______ _______ _______ _____ _____    ______ ____
ROOT
ATOM      1  C   UNL     1      -1.141   1.726  -0.139  0.00  0.00    +0.061 C 
ATOM      2  C   UNL     1       0.184   1.011  -0.073  0.00  0.00    +0.021 C 
ATOM      3  C   UNL     1       0.208  -0.334   0.054  0.00  0.00    +0.078 C 
ATOM      4  C   UNL     1       1.562  -1.013   0.110  0.00  0.00    +0.145 C 
ATOM      5  N   UNL     1       2.748  -0.145   0.020  0.00  0.00    -0.288 N 
ATOM      6  C   UNL     1       2.562   1.184  -0.105  0.00  0.00    +0.304 C 
ATOM      7  O   UNL     1       3.535   1.909  -0.180  0.00  0.00    -0.252 OA
ATOM      8  N   UNL     1       1.341   1.732  -0.149  0.00  0.00    -0.273 N 
ATOM      9  H   UNL     1       3.642  -0.521   0.050  0.00  0.00    +0.151 HD
ATOM     10  H   UNL     1       1.275   2.696  -0.240  0.00  0.00    +0.156 HD
ENDROOT
BRANCH   4  11
ATOM     11  C   UNL     1       1.644  -1.779   1.405  0.00  0.00    -0.005 A 
ATOM     12  C   UNL     1       2.179  -1.178   2.529  0.00  0.00    +0.056 A 
ATOM     13  C   UNL     1       2.256  -1.881   3.720  0.00  0.00    +0.167 A 
ATOM     14  C   UNL     1       1.792  -3.193   3.783  0.00  0.00    +0.167 A 
ATOM     15  C   UNL     1       1.257  -3.789   2.653  0.00  0.00    +0.065 A 
ATOM     16  C   UNL     1       1.179  -3.080   1.467  0.00  0.00    +0.027 A 
ATOM     17 BR   UNL     1       0.441  -3.894  -0.072  0.00  0.00    -0.050 Br
ATOM     18  O   UNL     1       1.976  -3.661   5.052  0.00  0.00    -0.453 OA
ATOM     19  C   UNL     1       2.927  -2.766   5.658  0.00  0.00    +0.466 C 
ATOM     20  O   UNL     1       2.729  -1.527   4.951  0.00  0.00    -0.453 OA
ENDBRANCH   4  11
BRANCH   3  21
ATOM     21  C   UNL     1      -0.990  -1.082   0.134  0.00  0.00    +0.339 C 
ATOM     22  O   UNL     1      -1.419  -1.430   1.218  0.00  0.00    -0.245 OA
BRANCH  21  23
ATOM     23  O   UNL     1      -1.656  -1.409  -0.993  0.00  0.00    -0.459 OA
BRANCH  23  24
ATOM     24  C   UNL     1      -2.800  -2.254  -0.848  0.00  0.00    +0.264 C 
BRANCH  24  25
ATOM     25  C   UNL     1      -3.346  -2.615  -2.230  0.00  0.00    +0.156 C 
ATOM     26  C   UNL     1      -4.497  -3.631  -2.091  0.00  0.00    +0.037 C 
ATOM     27  C   UNL     1      -5.706  -2.927  -2.753  0.00  0.00    +0.031 C 
ATOM     28  C   UNL     1      -5.015  -1.872  -3.654  0.00  0.00    +0.160 C 
ATOM     29  O   UNL     1      -3.883  -1.442  -2.865  0.00  0.00    -0.373 OA
ENDBRANCH  24  25
ENDBRANCH  23  24
ENDBRANCH  21  23
ENDBRANCH   3  21
TORSDOF 5
