REMARK  Name = ZINC29038010
REMARK  9 active torsions:
REMARK  status: ('A' for Active; 'I' for Inactive)
REMARK    1  A    between atoms: C_1  and  C_2
REMARK    2  A    between atoms: C_2  and  C_3
REMARK    3  A    between atoms: C_2  and  C_4
REMARK    4  A    between atoms: C_4  and  O_5
REMARK    5  A    between atoms: O_5  and  C_6
REMARK    6  A    between atoms: C_14  and  C_33
REMARK    7  A    between atoms: C_16  and  C_18
REMARK    8  A    between atoms: C_23  and  C_27
REMARK    9  A    between atoms: N_35  and  O_36
REMARK                            x       y       z     vdW  Elec       q    Type
REMARK                         _______ _______ _______ _____ _____    ______ ____
ROOT
ATOM      1  C   UNL     1      -2.732   5.061   1.162  0.00  0.00    +0.404 C 
ATOM      2  O   UNL     1      -1.681   5.661   1.061  0.00  0.00    -0.226 OA
ATOM      3  N   UNL     1      -2.741   3.713   1.183  0.00  0.00    -0.255 N 
ATOM      4  C   UNL     1      -4.011   2.971   1.216  0.00  0.00    +0.119 C 
ATOM      5  C   UNL     1      -3.971   1.911   0.110  0.00  0.00    -0.013 C 
ATOM      6  C   UNL     1      -5.286   1.234  -0.274  0.00  0.00    +0.009 C 
ATOM      7  C   UNL     1      -4.641   2.248  -1.221  0.00  0.00    +0.009 C 
ATOM      8  C   UNL     1      -2.695   1.066   0.074  0.00  0.00    +0.023 C 
ATOM      9  C   UNL     1      -1.482   1.997  -0.021  0.00  0.00    +0.107 C 
ATOM     10  C   UNL     1      -1.482   2.957   1.172  0.00  0.00    +0.177 C 
ENDROOT
BRANCH  10  11
ATOM     11  C   UNL     1      -0.322   3.910   1.051  0.00  0.00    +0.241 C 
ATOM     12  O   UNL     1      -0.167   4.551   0.033  0.00  0.00    -0.273 OA
ATOM     13  N   UNL     1       0.543   4.052   2.074  0.00  0.00    -0.277 N 
ATOM     14  C   UNL     1       1.617   5.056   2.013  0.00  0.00    +0.114 C 
ATOM     15  C   UNL     1       1.672   5.757   3.382  0.00  0.00    +0.031 C 
ATOM     16  C   UNL     1       1.998   4.710   4.450  0.00  0.00    +0.044 C 
ATOM     17  C   UNL     1       1.089   3.522   4.311  0.00  0.00    -0.003 C 
ATOM     18  C   UNL     1       0.440   3.248   3.206  0.00  0.00    +0.074 C 
BRANCH  16  19
ATOM     19  C   UNL     1       1.818   5.319   5.816  0.00  0.00    -0.040 A 
ATOM     20  C   UNL     1       0.580   5.801   6.201  0.00  0.00    +0.004 A 
ATOM     21  C   UNL     1       0.414   6.354   7.457  0.00  0.00    +0.000 A 
ATOM     22  C   UNL     1       1.487   6.436   8.324  0.00  0.00    +0.000 A 
ATOM     23  C   UNL     1       2.726   5.959   7.938  0.00  0.00    +0.000 A 
ATOM     24  C   UNL     1       2.891   5.400   6.684  0.00  0.00    +0.004 A 
ENDBRANCH  16  19
ENDBRANCH  10  11
BRANCH   9  25
ATOM     25  C   UNL     1      -0.217   1.177  -0.006  0.00  0.00    +0.241 C 
ATOM     26  O   UNL     1      -0.219   0.068   0.484  0.00  0.00    -0.273 OA
ATOM     27  N   UNL     1       0.915   1.675  -0.542  0.00  0.00    -0.197 N 
ATOM     28  H   UNL     1       0.899   2.649  -1.054  0.00  0.00    +0.182 HD
BRANCH  27  29
ATOM     29  O   UNL     1       2.124   0.945  -0.447  0.00  0.00    -0.295 OA
ATOM     30  H   UNL     1       3.048   1.351  -0.885  0.00  0.00    +0.241 HD
ENDBRANCH  27  29
ENDBRANCH   9  25
BRANCH   1  31
ATOM     31  O   UNL     1      -3.890   5.743   1.254  0.00  0.00    -0.450 OA
BRANCH  31  32
ATOM     32  C   UNL     1      -3.805   7.192   1.225  0.00  0.00    +0.236 C 
BRANCH  32  34
ATOM     33  C   UNL     1      -5.112   9.311   1.435  0.00  0.00    +0.010 C 
ATOM     34  C   UNL     1      -5.210   7.787   1.341  0.00  0.00    +0.021 C 
ATOM     35  C   UNL     1      -6.029   7.405   0.106  0.00  0.00    +0.010 C 
ENDBRANCH  32  34
ENDBRANCH  31  32
ENDBRANCH   1  31
TORSDOF 7
