REMARK  Name = ZINC11873090
REMARK  8 active torsions:
REMARK  status: ('A' for Active; 'I' for Inactive)
REMARK    1  A    between atoms: C_1  and  N_63
REMARK    2  A    between atoms: C_4  and  N_7
REMARK    3  A    between atoms: N_7  and  C_8
REMARK    4  A    between atoms: C_9  and  C_11
REMARK    5  A    between atoms: C_11  and  C_12
REMARK    6  A    between atoms: C_12  and  C_13
REMARK    7  A    between atoms: C_19  and  C_20
REMARK    8  A    between atoms: C_19  and  N_65
REMARK                            x       y       z     vdW  Elec       q    Type
REMARK                         _______ _______ _______ _____ _____    ______ ____
ROOT
ATOM      1  C   UNL     1       0.002  -0.004   0.002  0.00  0.00    -0.027 C 
ATOM      2  C   UNL     1       0.850  -0.510   1.172  0.00  0.00    -0.000 C 
ATOM      3  C   UNL     1       0.915  -2.039   1.122  0.00  0.00    -0.018 C 
ATOM      4  C   UNL     1       1.495  -2.476  -0.226  0.00  0.00    -0.078 C 
ATOM      5  C   UNL     1       0.608  -0.500  -1.313  0.00  0.00    -0.075 C 
ATOM      6  N   UNL     1       0.620  -1.978  -1.309  0.00  0.00    +0.383 N 
ATOM      7  H   UNL     1      -0.335  -2.318  -1.148  0.00  0.00    -0.081 HD
ENDROOT
BRANCH   1   8
ATOM      8  C   UNL     1      -0.019   1.526   0.010  0.00  0.00    +0.011 C 
BRANCH   8   9
ATOM      9  C   UNL     1      -0.735   2.019   1.269  0.00  0.00    +0.096 C 
BRANCH   9  12
ATOM     10  N   UNL     1      -1.338   4.186   2.297  0.00  0.00    -0.302 N 
ATOM     11  C   UNL     1      -1.952   3.439   3.398  0.00  0.00    +0.132 C 
ATOM     12  C   UNL     1      -0.755   3.526   1.278  0.00  0.00    +0.216 C 
ATOM     13  O   UNL     1      -0.247   4.144   0.366  0.00  0.00    -0.276 OA
BRANCH  10  17
ATOM     14  C   UNL     1      -2.232   9.569   3.779  0.00  0.00    -0.096 C 
ATOM     15  C   UNL     1      -2.822   7.672   2.395  0.00  0.00    -0.077 C 
ATOM     16  C   UNL     1      -2.808   6.143   2.325  0.00  0.00    +0.004 C 
ATOM     17  C   UNL     1      -1.358   5.651   2.306  0.00  0.00    +0.072 C 
ATOM     18  C   UNL     1      -0.634   6.166   3.553  0.00  0.00    +0.004 C 
ATOM     19  C   UNL     1      -0.713   7.694   3.588  0.00  0.00    -0.077 C 
ATOM     20  N   UNL     1      -2.133   8.102   3.630  0.00  0.00    +0.378 N 
ATOM     21  H   UNL     1      -2.584   7.654   4.436  0.00  0.00    -0.082 HD
ENDBRANCH  10  17
ENDBRANCH   9  12
ENDBRANCH   8   9
ENDBRANCH   1   8
BRANCH   6  22
ATOM     22  C   UNL     1       1.096  -2.482  -2.613  0.00  0.00    -0.039 C 
BRANCH  22  23
ATOM     23  C   UNL     1       2.460  -1.926  -2.931  0.00  0.00    -0.018 A 
ATOM     24  C   UNL     1       2.585  -0.853  -3.795  0.00  0.00    +0.005 A 
ATOM     25  C   UNL     1       3.834  -0.340  -4.088  0.00  0.00    +0.004 A 
ATOM     26  C   UNL     1       4.965  -0.897  -3.520  0.00  0.00    +0.049 A 
ATOM     27  C   UNL     1       4.848  -1.972  -2.654  0.00  0.00    +0.166 A 
ATOM     28  C   UNL     1       3.588  -2.486  -2.354  0.00  0.00    +0.168 A 
ATOM     29  O   UNL     1       3.738  -3.532  -1.490  0.00  0.00    -0.452 OA
ATOM     30  C   UNL     1       5.125  -3.908  -1.577  0.00  0.00    +0.466 C 
ATOM     31  O   UNL     1       5.786  -2.691  -1.972  0.00  0.00    -0.453 OA
ENDBRANCH  22  23
ENDBRANCH   6  22
TORSDOF 6
