REMARK  Name = ZINC67586972
REMARK  3 active torsions:
REMARK  status: ('A' for Active; 'I' for Inactive)
REMARK    1  A    between atoms: C_8  and  C_9
REMARK    2  A    between atoms: C_9  and  N_10
REMARK    3  A    between atoms: C_17  and  C_19
REMARK                            x       y       z     vdW  Elec       q    Type
REMARK                         _______ _______ _______ _____ _____    ______ ____
ROOT
ATOM      1  N   UNL     1       3.112   0.484   4.718  0.00  0.00    -0.292 N 
ATOM      2  C   UNL     1       3.935   0.928   5.689  0.00  0.00    +0.306 C 
ATOM      3  O   UNL     1       5.138   0.927   5.513  0.00  0.00    -0.252 OA
ATOM      4  N   UNL     1       3.425   1.374   6.854  0.00  0.00    -0.247 N 
ATOM      5  C   UNL     1       4.274   1.832   7.855  0.00  0.00    +0.189 A 
ATOM      6  N   UNL     1       5.590   1.916   7.855  0.00  0.00    -0.125 NA
ATOM      7  N   UNL     1       6.231   2.359   8.850  0.00  0.00    -0.139 NA
ATOM      8  C   UNL     1       5.566   2.749   9.919  0.00  0.00    +0.169 A 
ATOM      9  S   UNL     1       3.890   2.433   9.383  0.00  0.00    -0.030 S 
ATOM     10  H   UNL     1       2.152   0.485   4.859  0.00  0.00    +0.151 HD
ATOM     11  H   UNL     1       2.465   1.375   6.994  0.00  0.00    +0.158 HD
ENDROOT
BRANCH   8  12
ATOM     12  C   UNL     1       6.074   3.309  11.223  0.00  0.00    +0.398 C 
ATOM     13  F   UNL     1       7.266   4.006  10.998  0.00  0.00    -0.202 F 
ATOM     14  F   UNL     1       5.120   4.178  11.761  0.00  0.00    -0.202 F 
ENDBRANCH   8  12
BRANCH   1  15
ATOM     15  C   UNL     1       3.667  -0.000   3.452  0.00  0.00    +0.182 C 
BRANCH  15  23
ATOM     16  C   UNL     1      -0.019   1.530   0.011  0.00  0.00    +0.009 C 
ATOM     17  C   UNL     1       1.419   2.056  -0.001  0.00  0.00    +0.022 C 
ATOM     18  C   UNL     1       2.089   1.749   1.344  0.00  0.00    +0.125 C 
ATOM     19  N   UNL     1       1.889   0.334   1.656  0.00  0.00    -0.314 N 
ATOM     20  C   UNL     1       0.964  -0.466   1.067  0.00  0.00    +0.134 A 
ATOM     21  N   UNL     1       1.082  -1.648   1.593  0.00  0.00    -0.134 NA
ATOM     22  N   UNL     1       2.022  -1.634   2.475  0.00  0.00    -0.133 NA
ATOM     23  C   UNL     1       2.544  -0.436   2.546  0.00  0.00    +0.151 A 
ATOM     24  C   UNL     1       0.002  -0.004   0.002  0.00  0.00    +0.076 C 
ENDBRANCH  15  23
ENDBRANCH   1  15
TORSDOF 3
