REMARK  Name = ZINC20634173
REMARK  9 active torsions:
REMARK  status: ('A' for Active; 'I' for Inactive)
REMARK    1  A    between atoms: C_1  and  C_2
REMARK    2  A    between atoms: C_2  and  C_3
REMARK    3  A    between atoms: C_9  and  C_25
REMARK    4  A    between atoms: C_11  and  N_13
REMARK    5  A    between atoms: N_17  and  C_20
REMARK    6  A    between atoms: C_20  and  C_21
REMARK    7  A    between atoms: C_20  and  C_22
REMARK    8  A    between atoms: C_20  and  C_23
REMARK    9  A    between atoms: C_23  and  O_24
REMARK                            x       y       z     vdW  Elec       q    Type
REMARK                         _______ _______ _______ _____ _____    ______ ____
ROOT
ATOM      1  N   UNL     1       2.737  -2.550   6.745  0.00  0.00    -0.181 NA
ATOM      2  C   UNL     1       4.038  -2.742   6.686  0.00  0.00    +0.185 C 
ATOM      3  N   UNL     1       4.766  -2.496   5.537  0.00  0.00    -0.304 N 
ATOM      4  C   UNL     1       5.817  -3.466   5.189  0.00  0.00    +0.193 C 
ATOM      5  N   UNL     1       6.641  -3.717   6.382  0.00  0.00    -0.264 NA
ATOM      6  C   UNL     1       5.813  -4.197   7.500  0.00  0.00    +0.193 C 
ATOM      7  N   UNL     1       4.763  -3.197   7.772  0.00  0.00    -0.304 N 
ATOM      8  H   UNL     1       4.586  -2.875   8.669  0.00  0.00    +0.150 HD
ATOM      9  H   UNL     1       4.590  -1.718   4.984  0.00  0.00    +0.150 HD
ENDROOT
BRANCH   1  18
ATOM     10  C   UNL     1       0.731  -0.503   1.223  0.00  0.00    -0.047 A 
ATOM     11  C   UNL     1       2.108  -0.708   1.165  0.00  0.00    +0.006 A 
ATOM     12  C   UNL     1       2.798  -1.158   2.249  0.00  0.00    +0.029 A 
ATOM     13  C   UNL     1       2.114  -1.421   3.446  0.00  0.00    +0.077 A 
ATOM     14  C   UNL     1       0.712  -1.212   3.504  0.00  0.00    +0.022 A 
ATOM     15  C   UNL     1       0.034  -0.743   2.370  0.00  0.00    +0.015 A 
ATOM     16  C   UNL     1       0.043  -1.480   4.714  0.00  0.00    +0.051 A 
ATOM     17  N   UNL     1       0.745  -1.913   5.738  0.00  0.00    -0.215 NA
ATOM     18  C   UNL     1       2.066  -2.100   5.651  0.00  0.00    +0.254 A 
ATOM     19  N   UNL     1       2.746  -1.864   4.539  0.00  0.00    -0.211 NA
ATOM     20  C   UNL     1      -1.446  -1.276   4.832  0.00  0.00    +0.066 C 
BRANCH  10  22
ATOM     21  C   UNL     1      -0.019   1.526   0.010  0.00  0.00    +0.009 C 
ATOM     22  C   UNL     1       0.002  -0.004   0.002  0.00  0.00    +0.032 C 
ENDBRANCH  10  22
ENDBRANCH   1  18
BRANCH   5  23
ATOM     23  C   UNL     1       7.723  -4.664   6.084  0.00  0.00    +0.042 C 
ATOM     24  C   UNL     1       7.125  -5.991   5.612  0.00  0.00    +0.030 C 
ATOM     25  C   UNL     1       8.617  -4.088   4.984  0.00  0.00    +0.030 C 
BRANCH  23  26
ATOM     26  C   UNL     1       8.556  -4.901   7.346  0.00  0.00    +0.177 C 
BRANCH  26  27
ATOM     27  O   UNL     1       9.609  -5.822   7.056  0.00  0.00    -0.393 OA
ATOM     28  H   UNL     1      10.179  -6.019   7.812  0.00  0.00    +0.209 HD
ENDBRANCH  26  27
ENDBRANCH  23  26
ENDBRANCH   5  23
TORSDOF 5
