REMARK  Name = ZINC13271350
REMARK  11 active torsions:
REMARK  status: ('A' for Active; 'I' for Inactive)
REMARK    1  A    between atoms: C_1  and  C_2
REMARK    2  A    between atoms: C_2  and  C_3
REMARK    3  A    between atoms: C_2  and  C_4
REMARK    4  A    between atoms: C_4  and  C_6
REMARK    5  A    between atoms: C_4  and  N_8
REMARK    6  A    between atoms: C_9  and  C_26
REMARK    7  A    between atoms: C_12  and  S_13
REMARK    8  A    between atoms: S_13  and  C_14
REMARK    9  A    between atoms: C_14  and  C_15
REMARK   10  A    between atoms: N_17  and  C_18
REMARK   11  A    between atoms: C_21  and  C_24
REMARK                            x       y       z     vdW  Elec       q    Type
REMARK                         _______ _______ _______ _____ _____    ______ ____
ROOT
ATOM      1  N   UNL     1      -0.004  -0.048  -0.503  0.00  0.00    -0.287 N 
ATOM      2  C   UNL     1      -0.044   1.324  -0.388  0.00  0.00    +0.172 A 
ATOM      3  N   UNL     1       1.194   1.731  -0.209  0.00  0.00    -0.128 NA
ATOM      4  N   UNL     1       1.990   0.723  -0.204  0.00  0.00    -0.122 NA
ATOM      5  C   UNL     1       1.314  -0.389  -0.379  0.00  0.00    +0.193 A 
ENDROOT
BRANCH   2   6
ATOM      6  C   UNL     1      -1.244   2.174  -0.459  0.00  0.00    +0.056 A 
ATOM      7  C   UNL     1      -1.399   3.483  -0.079  0.00  0.00    +0.019 A 
ATOM      8  C   UNL     1      -2.630   4.077  -0.245  0.00  0.00    +0.008 A 
ATOM      9  C   UNL     1      -3.651   3.350  -0.768  0.00  0.00    +0.046 A 
ATOM     10  S   UNL     1      -2.877   1.767  -1.053  0.00  0.00    -0.094 S 
ENDBRANCH   2   6
BRANCH   1  11
ATOM     11  C   UNL     1      -1.137  -0.952  -0.713  0.00  0.00    +0.206 C 
BRANCH  11  13
ATOM     12  C   UNL     1      -2.121  -2.668  -2.240  0.00  0.00    +0.010 C 
ATOM     13  C   UNL     1      -0.938  -1.724  -2.020  0.00  0.00    +0.017 C 
ATOM     14  C   UNL     1      -0.849  -0.737  -3.186  0.00  0.00    +0.010 C 
ENDBRANCH  11  13
BRANCH  11  15
ATOM     15  C   UNL     1      -1.225  -1.924   0.435  0.00  0.00    +0.379 C 
ATOM     16  O   UNL     1      -1.137  -3.111   0.230  0.00  0.00    -0.244 OA
ATOM     17  O   UNL     1      -1.400  -1.470   1.686  0.00  0.00    -0.244 OA
ENDBRANCH  11  15
ENDBRANCH   1  11
BRANCH   5  18
ATOM     18  S   UNL     1       1.982  -2.019  -0.444  0.00  0.00    -0.077 S 
BRANCH  18  19
ATOM     19  C   UNL     1       3.738  -1.648  -0.208  0.00  0.00    +0.173 C 
BRANCH  19  20
ATOM     20  C   UNL     1       4.529  -2.931  -0.228  0.00  0.00    +0.227 C 
ATOM     21  O   UNL     1       3.962  -3.991  -0.386  0.00  0.00    -0.275 OA
ATOM     22  N   UNL     1       5.867  -2.900  -0.070  0.00  0.00    -0.285 N 
ATOM     23  H   UNL     1       6.330  -2.049  -0.020  0.00  0.00    +0.155 HD
BRANCH  22  24
ATOM     24  C   UNL     1       6.587  -4.092   0.022  0.00  0.00    +0.033 A 
ATOM     25  C   UNL     1       6.015  -5.202   0.635  0.00  0.00    +0.024 A 
ATOM     26  C   UNL     1       6.720  -6.381   0.723  0.00  0.00    +0.020 A 
ATOM     27  C   UNL     1       8.016  -6.459   0.206  0.00  0.00    +0.052 A 
ATOM     28  C   UNL     1       8.590  -5.340  -0.404  0.00  0.00    +0.020 A 
ATOM     29  C   UNL     1       7.877  -4.165  -0.493  0.00  0.00    +0.024 A 
BRANCH  27  30
ATOM     30  C   UNL     1       8.755  -7.682   0.301  0.00  0.00    +0.099 C 
ATOM     31  N   UNL     1       9.340  -8.653   0.376  0.00  0.00    -0.191 NA
ENDBRANCH  27  30
ENDBRANCH  22  24
ENDBRANCH  19  20
ENDBRANCH  18  19
ENDBRANCH   5  18
TORSDOF 9
