REMARK  Name = ZINC39133511
REMARK  3 active torsions:
REMARK  status: ('A' for Active; 'I' for Inactive)
REMARK    1  A    between atoms: C_1  and  C_2
REMARK    2  A    between atoms: C_7  and  C_15
REMARK    3  A    between atoms: C_9  and  C_12
REMARK                            x       y       z     vdW  Elec       q    Type
REMARK                         _______ _______ _______ _____ _____    ______ ____
ROOT
ATOM      1  C   UNL     1      -0.018   1.503   0.010  0.00  0.00    +0.044 C 
ATOM      2  C   UNL     1       0.002  -0.004   0.002  0.00  0.00    -0.050 A 
ATOM      3  C   UNL     1       0.005  -0.673  -1.233  0.00  0.00    +0.005 A 
ATOM      4  C   UNL     1       0.023  -2.021  -1.316  0.00  0.00    +0.026 A 
ATOM      5  C   UNL     1       0.039  -2.814  -0.076  0.00  0.00    +0.044 A 
ATOM      6  N   UNL     1       0.057  -4.098   0.135  0.00  0.00    -0.377 N 
ATOM      7  C   UNL     1       0.068  -4.353   1.579  0.00  0.00    +0.114 C 
ATOM      8  C   UNL     1       0.053  -2.994   2.243  0.00  0.00    +0.071 C 
ATOM      9  C   UNL     1       0.036  -2.076   1.212  0.00  0.00    +0.010 A 
ATOM     10  C   UNL     1       0.022  -0.660   1.183  0.00  0.00    +0.014 A 
ATOM     11  C   UNL     1       1.333  -5.118   1.969  0.00  0.00    +0.035 C 
ATOM     12  H   UNL     1       0.062  -4.780  -0.555  0.00  0.00    +0.160 HD
ENDROOT
BRANCH   8  13
ATOM     13  C   UNL     1       0.056  -2.720   3.635  0.00  0.00    +0.385 C 
ATOM     14  O   UNL     1       0.072  -3.642   4.441  0.00  0.00    -0.241 OA
ATOM     15  O   UNL     1       0.043  -1.561   4.031  0.00  0.00    -0.241 OA
ENDBRANCH   8  13
TORSDOF 1
