REMARK  Name = ZINC06984348
REMARK  10 active torsions:
REMARK  status: ('A' for Active; 'I' for Inactive)
REMARK    1  A    between atoms: C_1  and  C_2
REMARK    2  A    between atoms: C_2  and  O_3
REMARK    3  A    between atoms: O_3  and  C_4
REMARK    4  A    between atoms: C_4  and  C_6
REMARK    5  A    between atoms: C_7  and  C_29
REMARK    6  A    between atoms: C_11  and  N_28
REMARK    7  A    between atoms: C_13  and  C_15
REMARK    8  A    between atoms: C_15  and  S_16
REMARK    9  A    between atoms: S_16  and  C_17
REMARK   10  A    between atoms: C_20  and  C_22
REMARK                            x       y       z     vdW  Elec       q    Type
REMARK                         _______ _______ _______ _____ _____    ______ ____
ROOT
ATOM      1  C   UNL     1       1.451  -2.345  -2.521  0.00  0.00    +0.112 A 
ATOM      2  C   UNL     1       2.773  -2.647  -2.649  0.00  0.00    +0.119 A 
ATOM      3  O   UNL     1       3.011  -3.123  -3.878  0.00  0.00    -0.441 OA
ATOM      4  C   UNL     1       1.888  -3.163  -4.616  0.00  0.00    +0.233 A 
ATOM      5  C   UNL     1       0.839  -2.687  -3.816  0.00  0.00    +0.094 A 
ATOM      6  C   UNL     1      -0.452  -2.633  -4.353  0.00  0.00    +0.131 A 
ATOM      7  N   UNL     1      -0.632  -3.042  -5.607  0.00  0.00    -0.216 NA
ATOM      8  C   UNL     1       0.382  -3.487  -6.325  0.00  0.00    +0.145 A 
ATOM      9  N   UNL     1       1.612  -3.546  -5.860  0.00  0.00    -0.196 NA
ATOM     10  C   UNL     1       3.811  -2.471  -1.571  0.00  0.00    +0.087 C 
ENDROOT
BRANCH   6  11
ATOM     11  N   UNL     1      -1.515  -2.166  -3.599  0.00  0.00    -0.342 N 
ATOM     12  H   UNL     1      -1.370  -1.872  -2.687  0.00  0.00    +0.144 HD
ATOM     13  H   UNL     1      -2.405  -2.134  -3.984  0.00  0.00    +0.144 HD
ENDBRANCH   6  11
BRANCH   1  14
ATOM     14  C   UNL     1       0.776  -1.799  -1.335  0.00  0.00    +0.343 C 
ATOM     15  O   UNL     1       0.312  -2.551  -0.499  0.00  0.00    -0.245 OA
BRANCH  14  16
ATOM     16  O   UNL     1       0.671  -0.465  -1.174  0.00  0.00    -0.461 OA
BRANCH  16  18
ATOM     17  C   UNL     1      -0.019   1.526   0.010  0.00  0.00    +0.048 C 
ATOM     18  C   UNL     1       0.002  -0.004   0.002  0.00  0.00    +0.229 C 
ENDBRANCH  16  18
ENDBRANCH  14  16
ENDBRANCH   1  14
BRANCH   8  19
ATOM     19  C   UNL     1       0.122  -3.937  -7.740  0.00  0.00    +0.155 C 
BRANCH  19  20
ATOM     20  S   UNL     1       0.318  -2.530  -8.868  0.00  0.00    -0.058 S 
BRANCH  20  21
ATOM     21  C   UNL     1      -0.014  -3.210 -10.459  0.00  0.00    +0.278 A 
ATOM     22  N   UNL     1      -0.333  -4.457 -10.720  0.00  0.00    -0.101 NA
ATOM     23  N   UNL     1      -0.504  -4.598 -11.988  0.00  0.00    -0.106 NA
ATOM     24  C   UNL     1      -0.302  -3.450 -12.586  0.00  0.00    +0.249 A 
ATOM     25  O   UNL     1       0.008  -2.546 -11.630  0.00  0.00    -0.411 OA
BRANCH  24  26
ATOM     26  C   UNL     1      -0.399  -3.190 -14.037  0.00  0.00    +0.039 A 
ATOM     27  C   UNL     1      -0.149  -1.912 -14.539  0.00  0.00    +0.013 A 
ATOM     28  C   UNL     1      -0.241  -1.677 -15.895  0.00  0.00    +0.001 A 
ATOM     29  C   UNL     1      -0.581  -2.704 -16.757  0.00  0.00    +0.000 A 
ATOM     30  C   UNL     1      -0.830  -3.974 -16.267  0.00  0.00    +0.001 A 
ATOM     31  C   UNL     1      -0.735  -4.224 -14.913  0.00  0.00    +0.013 A 
ENDBRANCH  24  26
ENDBRANCH  20  21
ENDBRANCH  19  20
ENDBRANCH   8  19
TORSDOF 8
