REMARK  Name = ZINC47155297
REMARK  6 active torsions:
REMARK  status: ('A' for Active; 'I' for Inactive)
REMARK    1  A    between atoms: C_1  and  C_2
REMARK    2  A    between atoms: C_6  and  C_8
REMARK    3  A    between atoms: C_8  and  O_9
REMARK    4  A    between atoms: O_9  and  C_10
REMARK    5  A    between atoms: C_13  and  N_24
REMARK    6  A    between atoms: C_15  and  C_16
REMARK                            x       y       z     vdW  Elec       q    Type
REMARK                         _______ _______ _______ _____ _____    ______ ____
ROOT
ATOM      1  C   UNL     1       1.715  -4.346   3.954  0.00  0.00    +0.128 A 
ATOM      2  C   UNL     1       0.735  -5.025   4.660  0.00  0.00    +0.048 A 
ATOM      3  C   UNL     1       1.033  -5.600   5.881  0.00  0.00    +0.036 A 
ATOM      4  C   UNL     1       2.310  -5.503   6.410  0.00  0.00    +0.127 A 
ATOM      5  C   UNL     1       3.298  -4.831   5.723  0.00  0.00    +0.044 A 
ATOM      6  C   UNL     1       3.012  -4.250   4.483  0.00  0.00    +0.020 A 
ENDROOT
BRANCH   6   7
ATOM      7  C   UNL     1       4.061  -3.538   3.742  0.00  0.00    +0.032 C 
ATOM      8  C   UNL     1       5.179  -3.116   4.385  0.00  0.00    +0.078 C 
ATOM      9  C   UNL     1       6.408  -2.517   3.830  0.00  0.00    +0.256 C 
ATOM     10  O   UNL     1       6.541  -2.331   2.635  0.00  0.00    -0.269 OA
ATOM     11  N   UNL     1       7.359  -2.192   4.690  0.00  0.00    -0.261 N 
ATOM     12  C   UNL     1       7.187  -2.413   6.042  0.00  0.00    +0.158 C 
ATOM     13  N   UNL     1       8.015  -2.155   7.017  0.00  0.00    -0.279 NA
ATOM     14  S   UNL     1       5.555  -3.129   6.132  0.00  0.00    -0.049 S 
ATOM     15  H   UNL     1       8.183  -1.796   4.368  0.00  0.00    +0.157 HD
ATOM     16  H   UNL     1       7.766  -2.362   7.932  0.00  0.00    +0.189 HD
ENDBRANCH   6   7
BRANCH   4  17
ATOM     17  N   UNL     1       2.614  -6.123   7.719  0.00  0.00    +0.056 N 
ATOM     18  O   UNL     1       1.749  -6.712   8.324  0.00  0.00    -0.126 OA
ATOM     19  O   UNL     1       3.727  -6.040   8.184  0.00  0.00    -0.126 OA
ENDBRANCH   4  17
BRANCH   1  20
ATOM     20  O   UNL     1       1.423  -3.781   2.755  0.00  0.00    -0.487 OA
BRANCH  20  21
ATOM     21  C   UNL     1       0.083  -3.920   2.281  0.00  0.00    +0.264 C 
BRANCH  21  27
ATOM     22  C   UNL     1      -0.936   0.178  -0.404  0.00  0.00    +0.044 C 
ATOM     23  C   UNL     1      -0.540  -1.274  -0.339  0.00  0.00    -0.050 A 
ATOM     24  C   UNL     1      -0.300  -1.978  -1.504  0.00  0.00    +0.003 A 
ATOM     25  C   UNL     1       0.063  -3.310  -1.445  0.00  0.00    +0.001 A 
ATOM     26  C   UNL     1       0.187  -3.939  -0.220  0.00  0.00    +0.007 A 
ATOM     27  C   UNL     1      -0.052  -3.235   0.946  0.00  0.00    -0.010 A 
ATOM     28  C   UNL     1      -0.411  -1.901   0.886  0.00  0.00    +0.010 A 
ENDBRANCH  21  27
ENDBRANCH  20  21
ENDBRANCH   1  20
TORSDOF 5
