REMARK  Name = ZINC43597690
REMARK  3 active torsions:
REMARK  status: ('A' for Active; 'I' for Inactive)
REMARK    1  A    between atoms: C_3  and  O_9
REMARK    2  A    between atoms: C_6  and  N_7
REMARK    3  A    between atoms: O_9  and  C_10
REMARK                            x       y       z     vdW  Elec       q    Type
REMARK                         _______ _______ _______ _____ _____    ______ ____
ROOT
ATOM      1  C   UNL     1       3.329   1.495  -3.600  0.00  0.00    +0.026 A 
ATOM      2  C   UNL     1       3.417   2.164  -2.395  0.00  0.00    +0.049 A 
ATOM      3  C   UNL     1       3.462   1.451  -1.206  0.00  0.00    +0.142 A 
ATOM      4  C   UNL     1       3.418   0.064  -1.226  0.00  0.00    +0.062 A 
ATOM      5  C   UNL     1       3.330  -0.607  -2.431  0.00  0.00    +0.041 A 
ATOM      6  C   UNL     1       3.284   0.107  -3.621  0.00  0.00    +0.026 A 
ATOM      7 BR   UNL     1       3.480  -0.908   0.395  0.00  0.00    -0.046 Br
ENDROOT
BRANCH   6   8
ATOM      8  N   UNL     1       3.195  -0.571  -4.842  0.00  0.00    -0.358 N 
ATOM      9  H   UNL     1       3.163  -0.072  -5.673  0.00  0.00    +0.142 HD
ATOM     10  H   UNL     1       3.164  -1.541  -4.856  0.00  0.00    +0.142 HD
ENDBRANCH   6   8
BRANCH   3  11
ATOM     11  O   UNL     1       3.548   2.111  -0.021  0.00  0.00    -0.455 OA
BRANCH  11  12
ATOM     12  C   UNL     1       3.580   3.470  -0.047  0.00  0.00    +0.132 A 
ATOM     13  C   UNL     1       2.398   4.193   0.011  0.00  0.00    +0.050 A 
ATOM     14  C   UNL     1       2.428   5.574  -0.016  0.00  0.00    +0.053 A 
ATOM     15  C   UNL     1       3.639   6.241  -0.101  0.00  0.00    +0.166 A 
ATOM     16  C   UNL     1       4.828   5.518  -0.159  0.00  0.00    +0.170 A 
ATOM     17  C   UNL     1       4.796   4.134  -0.127  0.00  0.00    +0.095 A 
ATOM     18  O   UNL     1       5.870   6.396  -0.238  0.00  0.00    -0.452 OA
ATOM     19  C   UNL     1       5.287   7.650  -0.640  0.00  0.00    +0.466 C 
ATOM     20  O   UNL     1       3.937   7.574  -0.144  0.00  0.00    -0.453 OA
ENDBRANCH  11  12
ENDBRANCH   3  11
TORSDOF 3
