REMARK  Name = ZINC25029963
REMARK  10 active torsions:
REMARK  status: ('A' for Active; 'I' for Inactive)
REMARK    1  A    between atoms: C_1  and  C_2
REMARK    2  A    between atoms: C_3  and  C_23
REMARK    3  A    between atoms: C_4  and  C_22
REMARK    4  A    between atoms: C_7  and  C_8
REMARK    5  A    between atoms: C_8  and  C_10
REMARK    6  A    between atoms: C_10  and  O_11
REMARK    7  A    between atoms: O_11  and  C_12
REMARK    8  A    between atoms: C_17  and  N_18
REMARK    9  A    between atoms: C_23  and  O_25
REMARK   10  A    between atoms: O_25  and  C_26
REMARK                            x       y       z     vdW  Elec       q    Type
REMARK                         _______ _______ _______ _____ _____    ______ ____
ROOT
ATOM      1  C   UNL     1      -2.482   1.278   0.020  0.00  0.00    +0.216 C 
ATOM      2  O   UNL     1      -3.404   2.068   0.028  0.00  0.00    -0.287 OA
ENDROOT
BRANCH   1   9
ATOM      3  C   UNL     1      -1.659   4.276   0.040  0.00  0.00    +0.047 C 
ATOM      4  C   UNL     1      -0.755   3.070   0.025  0.00  0.00    -0.008 A 
ATOM      5  C   UNL     1       0.657   3.077   0.012  0.00  0.00    +0.083 A 
ATOM      6  C   UNL     1       1.072   1.757   0.001  0.00  0.00    +0.028 A 
ATOM      7  N   UNL     1      -0.011   0.966   0.007  0.00  0.00    -0.355 N 
ATOM      8  H   UNL     1       0.107  -0.128   0.005  0.00  0.00    +0.166 HD
ATOM      9  C   UNL     1      -1.147   1.749   0.016  0.00  0.00    +0.090 A 
ATOM     10  C   UNL     1       2.503   1.286  -0.015  0.00  0.00    +0.064 C 
BRANCH   5  11
ATOM     11  C   UNL     1       1.525   4.267   0.011  0.00  0.00    +0.341 C 
ATOM     12  O   UNL     1       1.874   4.763  -1.042  0.00  0.00    -0.245 OA
BRANCH  11  13
ATOM     13  O   UNL     1       1.933   4.804   1.177  0.00  0.00    -0.464 OA
ATOM     14  C   UNL     1       2.787   5.976   1.099  0.00  0.00    +0.280 C 
ENDBRANCH  11  13
ENDBRANCH   5  11
ENDBRANCH   1   9
BRANCH   1  15
ATOM     15  C   UNL     1      -2.758  -0.203   0.014  0.00  0.00    +0.310 C 
BRANCH  15  16
ATOM     16  O   UNL     1      -4.170  -0.424   0.019  0.00  0.00    -0.482 OA
BRANCH  16  17
ATOM     17  C   UNL     1      -4.592  -1.716   0.015  0.00  0.00    +0.151 A 
ATOM     18  C   UNL     1      -3.667  -2.750   0.006  0.00  0.00    +0.049 A 
ATOM     19  C   UNL     1      -4.098  -4.062   0.001  0.00  0.00    +0.024 A 
ATOM     20  C   UNL     1      -5.452  -4.346   0.006  0.00  0.00    +0.043 A 
ATOM     21  C   UNL     1      -6.377  -3.317   0.014  0.00  0.00    +0.056 A 
ATOM     22  C   UNL     1      -5.949  -2.003   0.025  0.00  0.00    +0.169 A 
ATOM     23 CL   UNL     1      -5.991  -5.997  -0.001  0.00  0.00    -0.083 Cl
BRANCH  22  24
ATOM     24  N   UNL     1      -6.939  -0.903   0.040  0.00  0.00    +0.060 N 
ATOM     25  O   UNL     1      -8.130  -1.156   0.049  0.00  0.00    -0.126 OA
ATOM     26  O   UNL     1      -6.562   0.255   0.044  0.00  0.00    -0.126 OA
ENDBRANCH  22  24
ENDBRANCH  16  17
ENDBRANCH  15  16
ENDBRANCH   1  15
TORSDOF 7
