REMARK  Name = ZINC20112682
REMARK  10 active torsions:
REMARK  status: ('A' for Active; 'I' for Inactive)
REMARK    1  A    between atoms: C_1  and  N_2
REMARK    2  A    between atoms: C_9  and  O_34
REMARK    3  A    between atoms: C_11  and  C_13
REMARK    4  A    between atoms: C_13  and  C_14
REMARK    5  A    between atoms: C_14  and  C_16
REMARK    6  A    between atoms: C_16  and  C_17
REMARK    7  A    between atoms: C_24  and  O_25
REMARK    8  A    between atoms: O_25  and  C_26
REMARK    9  A    between atoms: N_32  and  C_33
REMARK   10  A    between atoms: O_34  and  C_35
REMARK                            x       y       z     vdW  Elec       q    Type
REMARK                         _______ _______ _______ _____ _____    ______ ____
ROOT
ATOM      1  C   UNL     1       2.185   1.412   1.675  0.00  0.00    +0.134 C 
ATOM      2  O   UNL     1       1.124   1.972   1.815  0.00  0.00    -0.297 OA
ENDROOT
BRANCH   1   3
ATOM      3  C   UNL     1       2.229  -0.083   1.488  0.00  0.00    +0.064 C 
BRANCH   3  14
ATOM      4  C   UNL     1       1.247  -1.295   3.938  0.00  0.00    -0.095 C 
ATOM      5  N   UNL     1       0.399  -0.481   3.056  0.00  0.00    +0.383 N 
ATOM      6  C   UNL     1      -1.002  -0.910   3.188  0.00  0.00    -0.074 C 
ATOM      7  C   UNL     1      -1.896   0.130   2.513  0.00  0.00    +0.017 C 
ATOM      8  C   UNL     1      -1.394   0.406   1.118  0.00  0.00    -0.040 A 
ATOM      9  C   UNL     1      -2.240   1.042   0.223  0.00  0.00    +0.053 A 
ATOM     10  C   UNL     1      -1.819   1.317  -1.067  0.00  0.00    +0.170 A 
ATOM     11  C   UNL     1      -0.537   0.953  -1.466  0.00  0.00    +0.208 A 
ATOM     12  C   UNL     1       0.307   0.316  -0.567  0.00  0.00    +0.167 A 
ATOM     13  C   UNL     1      -0.123   0.041   0.727  0.00  0.00    -0.012 A 
ATOM     14  C   UNL     1       0.823  -0.661   1.665  0.00  0.00    -0.027 C 
ATOM     15  O   UNL     1      -0.361   1.329  -2.767  0.00  0.00    -0.449 OA
ATOM     16  C   UNL     1      -1.686   1.556  -3.283  0.00  0.00    +0.467 C 
ATOM     17  O   UNL     1      -2.449   1.920  -2.118  0.00  0.00    -0.452 OA
ATOM     18  H   UNL     1       0.481   0.491   3.312  0.00  0.00    -0.081 HD
BRANCH  12  19
ATOM     19  O   UNL     1       1.561  -0.041  -0.954  0.00  0.00    -0.491 OA
ATOM     20  C   UNL     1       1.699  -1.290  -1.635  0.00  0.00    +0.277 C 
ENDBRANCH  12  19
ENDBRANCH   3  14
ENDBRANCH   1   3
BRANCH   1  21
ATOM     21  C   UNL     1       3.465   2.208   1.687  0.00  0.00    +0.098 C 
BRANCH  21  22
ATOM     22  C   UNL     1       3.154   3.668   2.021  0.00  0.00    +0.098 C 
ATOM     23  C   UNL     1       2.208   4.224   0.990  0.00  0.00    +0.019 A 
ATOM     24  C   UNL     1       1.145   5.031   1.337  0.00  0.00    -0.034 A 
ATOM     25  C   UNL     1       0.301   5.527   0.355  0.00  0.00    +0.053 A 
ATOM     26  C   UNL     1       0.513   5.215  -0.977  0.00  0.00    +0.170 A 
ATOM     27  C   UNL     1       1.581   4.398  -1.332  0.00  0.00    +0.208 A 
ATOM     28  C   UNL     1       2.425   3.906  -0.347  0.00  0.00    +0.170 A 
ATOM     29  O   UNL     1       1.576   4.237  -2.688  0.00  0.00    -0.449 OA
ATOM     30  C   UNL     1       0.259   4.630  -3.117  0.00  0.00    +0.467 C 
ATOM     31  O   UNL     1      -0.162   5.569  -2.110  0.00  0.00    -0.452 OA
ATOM     32  C   UNL     1       0.863   5.391   2.774  0.00  0.00    +0.051 C 
ATOM     33  C   UNL     1       2.095   5.112   3.634  0.00  0.00    +0.089 C 
ATOM     34  N   UNL     1       2.552   3.742   3.357  0.00  0.00    -0.298 NA
ATOM     35  C   UNL     1       3.497   3.288   4.386  0.00  0.00    +0.105 C 
BRANCH  28  36
ATOM     36  O   UNL     1       3.471   3.107  -0.690  0.00  0.00    -0.491 OA
ATOM     37  C   UNL     1       4.731   3.746  -0.909  0.00  0.00    +0.277 C 
ENDBRANCH  28  36
ENDBRANCH  21  22
ENDBRANCH   1  21
TORSDOF 6
