REMARK  Name = ZINC46584272
REMARK  8 active torsions:
REMARK  status: ('A' for Active; 'I' for Inactive)
REMARK    1  A    between atoms: C_1  and  C_2
REMARK    2  A    between atoms: C_2  and  C_24
REMARK    3  A    between atoms: C_4  and  N_10
REMARK    4  A    between atoms: C_6  and  C_8
REMARK    5  A    between atoms: C_6  and  C_9
REMARK    6  A    between atoms: C_14  and  N_21
REMARK    7  A    between atoms: C_15  and  N_17
REMARK    8  A    between atoms: N_17  and  C_18
REMARK                            x       y       z     vdW  Elec       q    Type
REMARK                         _______ _______ _______ _____ _____    ______ ____
ROOT
ATOM      1  N   UNL     1       2.628  -1.028  -2.851  0.00  0.00    -0.311 N 
ATOM      2  C   UNL     1       3.808  -0.423  -3.247  0.00  0.00    +0.217 A 
ATOM      3  N   UNL     1       4.345   0.510  -2.475  0.00  0.00    -0.221 NA
ATOM      4  C   UNL     1       5.474   1.112  -2.819  0.00  0.00    +0.150 A 
ATOM      5  C   UNL     1       6.095   0.758  -4.001  0.00  0.00    +0.184 A 
ATOM      6  C   UNL     1       5.505  -0.228  -4.794  0.00  0.00    +0.155 A 
ATOM      7  N   UNL     1       4.375  -0.794  -4.385  0.00  0.00    -0.197 NA
ATOM      8  H   UNL     1       2.226  -1.716  -3.405  0.00  0.00    +0.149 HD
ENDROOT
BRANCH   1  12
ATOM      9  C   UNL     1      -0.329   0.965  -0.266  0.00  0.00    -0.010 C 
ATOM     10  C   UNL     1      -0.202  -0.558  -0.367  0.00  0.00    -0.072 C 
ATOM     11  C   UNL     1       0.488  -0.933  -1.675  0.00  0.00    +0.009 C 
ATOM     12  C   UNL     1       1.984  -0.630  -1.593  0.00  0.00    +0.071 C 
ATOM     13  C   UNL     1       2.574  -1.449  -0.445  0.00  0.00    +0.009 C 
ATOM     14  C   UNL     1       1.899  -1.079   0.872  0.00  0.00    -0.072 C 
ATOM     15  N   UNL     1       0.449  -1.113   0.806  0.00  0.00    +0.386 N 
ATOM     16  C   UNL     1       2.403   0.289   1.346  0.00  0.00    -0.010 C 
ATOM     17  C   UNL     1       2.346  -2.117   1.928  0.00  0.00    -0.010 C 
ATOM     18  C   UNL     1      -1.638  -1.129  -0.423  0.00  0.00    -0.010 C 
ATOM     19  H   UNL     1       0.078  -0.637   1.634  0.00  0.00    -0.084 HD
ATOM     20  H   UNL     1       0.147  -2.087   0.909  0.00  0.00    -0.084 HD
ENDBRANCH   1  12
BRANCH   5  21
ATOM     21  N   UNL     1       7.357   1.410  -4.417  0.00  0.00    +0.061 N 
ATOM     22  O   UNL     1       7.802   2.333  -3.775  0.00  0.00    -0.126 OA
ATOM     23  O   UNL     1       7.944   1.020  -5.400  0.00  0.00    -0.126 OA
ENDBRANCH   5  21
BRANCH   6  24
ATOM     24  N   UNL     1       6.093  -0.615  -5.987  0.00  0.00    -0.324 N 
ATOM     25  H   UNL     1       6.960  -0.259  -6.239  0.00  0.00    +0.148 HD
BRANCH  24  26
ATOM     26  C   UNL     1       5.407  -1.563  -6.869  0.00  0.00    +0.072 C 
ATOM     27  C   UNL     1       6.243  -2.682  -7.491  0.00  0.00    +0.024 C 
ATOM     28  C   UNL     1       5.753  -1.521  -8.358  0.00  0.00    +0.024 C 
ENDBRANCH  24  26
ENDBRANCH   6  24
TORSDOF 4
