REMARK  Name = ZINC59002131
REMARK  3 active torsions:
REMARK  status: ('A' for Active; 'I' for Inactive)
REMARK    1  A    between atoms: N_9  and  N_12
REMARK    2  A    between atoms: C_13  and  C_15
REMARK    3  A    between atoms: N_19  and  C_21
REMARK                            x       y       z     vdW  Elec       q    Type
REMARK                         _______ _______ _______ _____ _____    ______ ____
ROOT
ATOM      1  N   UNL     1       3.676  -3.373  -0.052  0.00  0.00    -0.224 N 
ATOM      2  C   UNL     1       4.272  -3.787  -1.187  0.00  0.00    +0.235 C 
ATOM      3  O   UNL     1       4.180  -3.123  -2.197  0.00  0.00    -0.274 OA
ATOM      4  H   UNL     1       3.749  -3.905   0.756  0.00  0.00    +0.174 HD
ENDROOT
BRANCH   1  13
ATOM      5  C   UNL     1      -0.017   1.382   0.010  0.00  0.00    +0.001 A 
ATOM      6  C   UNL     1       1.165   2.099   0.002  0.00  0.00    +0.001 A 
ATOM      7  C   UNL     1       2.385   1.442  -0.013  0.00  0.00    +0.014 A 
ATOM      8  C   UNL     1       2.420   0.056  -0.021  0.00  0.00    +0.051 A 
ATOM      9  C   UNL     1       1.215  -0.675  -0.013  0.00  0.00    +0.051 A 
ATOM     10  C   UNL     1       0.002  -0.004   0.002  0.00  0.00    +0.014 A 
ATOM     11  C   UNL     1       1.606  -2.100  -0.025  0.00  0.00    +0.271 C 
ATOM     12  O   UNL     1       0.843  -3.045  -0.023  0.00  0.00    -0.268 OA
ATOM     13  N   UNL     1       2.949  -2.175  -0.039  0.00  0.00    -0.147 N 
ATOM     14  C   UNL     1       3.503  -0.949  -0.037  0.00  0.00    +0.271 C 
ATOM     15  O   UNL     1       4.693  -0.709  -0.048  0.00  0.00    -0.268 OA
ENDBRANCH   1  13
BRANCH   2  16
ATOM     16  C   UNL     1       5.054  -5.075  -1.201  0.00  0.00    +0.102 C 
ATOM     17  C   UNL     1       6.330  -4.958  -0.337  0.00  0.00    +0.110 C 
ATOM     18  C   UNL     1       7.368  -5.753  -1.097  0.00  0.00    +0.217 C 
ATOM     19  O   UNL     1       8.418  -6.146  -0.635  0.00  0.00    -0.276 OA
ATOM     20  N   UNL     1       6.957  -5.961  -2.360  0.00  0.00    -0.298 N 
ATOM     21  C   UNL     1       5.646  -5.348  -2.602  0.00  0.00    +0.121 C 
BRANCH  20  22
ATOM     22  C   UNL     1       7.720  -6.705  -3.366  0.00  0.00    +0.076 C 
ATOM     23  C   UNL     1       8.018  -8.130  -2.856  0.00  0.00    +0.022 C 
ATOM     24  C   UNL     1       9.444  -8.430  -3.380  0.00  0.00    +0.002 C 
ATOM     25  C   UNL     1      10.160  -7.066  -3.226  0.00  0.00    +0.002 C 
ATOM     26  C   UNL     1       9.082  -6.028  -3.602  0.00  0.00    +0.022 C 
ENDBRANCH  20  22
ENDBRANCH   2  16
TORSDOF 3
