REMARK  Name = ZINC06094699
REMARK  7 active torsions:
REMARK  status: ('A' for Active; 'I' for Inactive)
REMARK    1  A    between atoms: C_1  and  C_2
REMARK    2  A    between atoms: C_2  and  N_3
REMARK    3  A    between atoms: C_13  and  S_14
REMARK    4  A    between atoms: S_14  and  C_15
REMARK    5  A    between atoms: C_15  and  C_16
REMARK    6  A    between atoms: N_18  and  C_19
REMARK    7  A    between atoms: C_22  and  N_25
REMARK                            x       y       z     vdW  Elec       q    Type
REMARK                         _______ _______ _______ _____ _____    ______ ____
ROOT
ATOM      1  S   UNL     1      -1.721  -0.448   2.350  0.00  0.00    -0.078 S 
ENDROOT
BRANCH   1  12
ATOM      2  N   UNL     1       0.709  -0.501   1.186  0.00  0.00    -0.288 N 
ATOM      3  C   UNL     1       2.046  -0.709   1.133  0.00  0.00    +0.262 A 
ATOM      4  O   UNL     1       2.678  -0.492   0.116  0.00  0.00    -0.267 OA
ATOM      5  C   UNL     1       2.704  -1.205   2.349  0.00  0.00    +0.065 A 
ATOM      6  C   UNL     1       4.075  -1.450   2.397  0.00  0.00    +0.015 A 
ATOM      7  C   UNL     1       4.637  -1.911   3.555  0.00  0.00    +0.001 A 
ATOM      8  C   UNL     1       3.857  -2.138   4.682  0.00  0.00    +0.002 A 
ATOM      9  C   UNL     1       2.511  -1.905   4.663  0.00  0.00    +0.028 A 
ATOM     10  C   UNL     1       1.906  -1.434   3.494  0.00  0.00    +0.079 A 
ATOM     11  N   UNL     1       0.582  -1.191   3.431  0.00  0.00    -0.223 NA
ATOM     12  C   UNL     1       0.016  -0.744   2.337  0.00  0.00    +0.173 A 
BRANCH   2  14
ATOM     13  C   UNL     1      -0.009   1.524   0.017  0.00  0.00    +0.027 C 
ATOM     14  C   UNL     1       0.002  -0.006   0.002  0.00  0.00    +0.124 C 
ENDBRANCH   2  14
ENDBRANCH   1  12
BRANCH   1  15
ATOM     15  C   UNL     1      -2.229  -0.891   4.035  0.00  0.00    +0.173 C 
BRANCH  15  16
ATOM     16  C   UNL     1      -3.714  -0.681   4.183  0.00  0.00    +0.227 C 
ATOM     17  O   UNL     1      -4.366  -0.274   3.244  0.00  0.00    -0.275 OA
ATOM     18  N   UNL     1      -4.318  -0.947   5.358  0.00  0.00    -0.285 N 
ATOM     19  H   UNL     1      -3.810  -1.336   6.087  0.00  0.00    +0.155 HD
BRANCH  18  20
ATOM     20  C   UNL     1      -5.678  -0.662   5.526  0.00  0.00    +0.034 A 
ATOM     21  C   UNL     1      -6.149  -0.221   6.755  0.00  0.00    +0.025 A 
ATOM     22  C   UNL     1      -7.492   0.059   6.918  0.00  0.00    +0.034 A 
ATOM     23  C   UNL     1      -8.366  -0.098   5.858  0.00  0.00    +0.126 A 
ATOM     24  C   UNL     1      -7.899  -0.537   4.632  0.00  0.00    +0.034 A 
ATOM     25  C   UNL     1      -6.557  -0.813   4.462  0.00  0.00    +0.025 A 
BRANCH  23  26
ATOM     26  N   UNL     1      -9.804   0.204   6.036  0.00  0.00    +0.056 N 
ATOM     27  O   UNL     1     -10.214   0.587   7.107  0.00  0.00    -0.126 OA
ATOM     28  O   UNL     1     -10.569   0.067   5.110  0.00  0.00    -0.126 OA
ENDBRANCH  23  26
ENDBRANCH  18  20
ENDBRANCH  15  16
ENDBRANCH   1  15
TORSDOF 6
