REMARK  Name = ZINC02125341
REMARK  7 active torsions:
REMARK  status: ('A' for Active; 'I' for Inactive)
REMARK    1  A    between atoms: C_1  and  O_2
REMARK    2  A    between atoms: O_2  and  C_3
REMARK    3  A    between atoms: C_3  and  C_5
REMARK    4  A    between atoms: C_8  and  C_11
REMARK    5  A    between atoms: N_30  and  C_33
REMARK    6  A    between atoms: C_33  and  C_34
REMARK    7  A    between atoms: C_34  and  C_35
REMARK                            x       y       z     vdW  Elec       q    Type
REMARK                         _______ _______ _______ _____ _____    ______ ____
ROOT
ATOM      1  C   UNL     1       0.222   9.925   1.808  0.00  0.00    +0.154 C 
ATOM      2  C   UNL     1      -0.972  10.243   0.937  0.00  0.00    +0.046 A 
ATOM      3  C   UNL     1      -1.749   9.300   0.363  0.00  0.00    -0.015 A 
ATOM      4  C   UNL     1      -2.781   9.995  -0.379  0.00  0.00    +0.003 A 
ATOM      5  C   UNL     1      -3.852   9.547  -1.159  0.00  0.00    +0.010 A 
ATOM      6  C   UNL     1      -4.649  10.509  -1.730  0.00  0.00    +0.001 A 
ATOM      7  C   UNL     1      -4.413  11.862  -1.548  0.00  0.00    +0.002 A 
ATOM      8  C   UNL     1      -3.361  12.333  -0.781  0.00  0.00    +0.026 A 
ATOM      9  C   UNL     1      -2.536  11.379  -0.189  0.00  0.00    +0.047 A 
ATOM     10  N   UNL     1      -1.436  11.490   0.611  0.00  0.00    -0.356 N 
ATOM     11  H   UNL     1      -1.041  12.326   0.905  0.00  0.00    +0.166 HD
ATOM     12  C   UNL     1      -1.536   7.813   0.499  0.00  0.00    +0.069 C 
ATOM     13  C   UNL     1      -0.616   7.552   1.699  0.00  0.00    +0.167 C 
ATOM     14  N   UNL     1       0.511   8.483   1.651  0.00  0.00    -0.276 N 
ATOM     15  C   UNL     1       1.775   8.091   1.480  0.00  0.00    +0.234 C 
ATOM     16  O   UNL     1       2.626   8.951   1.388  0.00  0.00    -0.274 OA
ATOM     17  C   UNL     1       2.213   6.666   1.401  0.00  0.00    +0.203 C 
ATOM     18  N   UNL     1       1.101   5.743   1.548  0.00  0.00    -0.291 N 
ATOM     19  C   UNL     1      -0.167   6.126   1.687  0.00  0.00    +0.237 C 
ATOM     20  O   UNL     1      -1.011   5.264   1.811  0.00  0.00    -0.274 OA
ENDROOT
BRANCH   1  24
ATOM     21  C   UNL     1      -0.689  10.788   5.896  0.00  0.00    +0.059 A 
ATOM     22  C   UNL     1      -0.540   9.465   5.476  0.00  0.00    +0.015 A 
ATOM     23  C   UNL     1      -0.246   9.194   4.155  0.00  0.00    +0.006 A 
ATOM     24  C   UNL     1      -0.100  10.229   3.249  0.00  0.00    -0.021 A 
ATOM     25  C   UNL     1      -0.241  11.542   3.660  0.00  0.00    +0.006 A 
ATOM     26  C   UNL     1      -0.540  11.828   4.976  0.00  0.00    +0.015 A 
BRANCH  21  27
ATOM     27  C   UNL     1      -1.004  11.086   7.309  0.00  0.00    +0.339 C 
ATOM     28  O   UNL     1      -1.134  10.180   8.107  0.00  0.00    -0.245 OA
BRANCH  27  30
ATOM     29  C   UNL     1      -1.456  12.582   9.113  0.00  0.00    +0.280 C 
ATOM     30  O   UNL     1      -1.147  12.364   7.712  0.00  0.00    -0.464 OA
ENDBRANCH  27  30
ENDBRANCH  21  27
ENDBRANCH   1  24
BRANCH  18  31
ATOM     31  C   UNL     1       1.391   4.307   1.550  0.00  0.00    +0.112 C 
BRANCH  31  32
ATOM     32  C   UNL     1       1.324   3.771   0.119  0.00  0.00    +0.049 C 
BRANCH  32  33
ATOM     33  C   UNL     1       1.623   2.294   0.121  0.00  0.00    -0.072 C 
ATOM     34  C   UNL     1       0.623   1.472   0.158  0.00  0.00    -0.028 C 
ATOM     35  C   UNL     1       0.762  -0.022   0.175  0.00  0.00    +0.027 C 
ATOM     36  C   UNL     1       2.167  -0.425  -0.279  0.00  0.00    +0.004 C 
ATOM     37  C   UNL     1       3.188   0.403   0.510  0.00  0.00    +0.005 C 
ATOM     38  C   UNL     1       3.061   1.866   0.079  0.00  0.00    +0.030 C 
ENDBRANCH  32  33
ENDBRANCH  31  32
ENDBRANCH  18  31
TORSDOF 6
