REMARK  Name = ZINC36207088
REMARK  14 active torsions:
REMARK  status: ('A' for Active; 'I' for Inactive)
REMARK    1  A    between atoms: C_1  and  C_2
REMARK    2  A    between atoms: C_5  and  C_36
REMARK    3  A    between atoms: C_6  and  C_8
REMARK    4  A    between atoms: C_17  and  C_19
REMARK    5  A    between atoms: C_19  and  N_20
REMARK    6  A    between atoms: N_20  and  C_21
REMARK    7  A    between atoms: N_20  and  C_27
REMARK    8  A    between atoms: C_21  and  C_22
REMARK    9  A    between atoms: C_27  and  C_28
REMARK   10  A    between atoms: C_28  and  C_30
REMARK   11  A    between atoms: C_28  and  O_35
REMARK   12  A    between atoms: C_30  and  O_31
REMARK   13  A    between atoms: O_31  and  C_32
REMARK   14  A    between atoms: C_32  and  C_33
REMARK                            x       y       z     vdW  Elec       q    Type
REMARK                         _______ _______ _______ _____ _____    ______ ____
ROOT
ATOM      1  C   UNL     1      -0.323  -2.702   3.578  0.00  0.00    +0.004 A 
ATOM      2  C   UNL     1      -1.359  -2.821   4.443  0.00  0.00    +0.056 A 
ATOM      3  S   UNL     1      -0.775  -4.024   5.622  0.00  0.00    -0.076 S 
ATOM      4  C   UNL     1       0.829  -4.336   4.933  0.00  0.00    +0.116 A 
ATOM      5  C   UNL     1       0.873  -3.505   3.801  0.00  0.00    +0.080 A 
ATOM      6  C   UNL     1       2.082  -3.561   3.037  0.00  0.00    +0.260 A 
ATOM      7  O   UNL     1       2.217  -2.873   2.040  0.00  0.00    -0.267 OA
ATOM      8  N   UNL     1       3.068  -4.386   3.436  0.00  0.00    -0.312 N 
ATOM      9  H   UNL     1       3.890  -4.428   2.922  0.00  0.00    +0.170 HD
ATOM     10  C   UNL     1       2.936  -5.160   4.544  0.00  0.00    +0.094 A 
ATOM     11  N   UNL     1       1.849  -5.123   5.267  0.00  0.00    -0.229 NA
ENDROOT
BRANCH   1  17
ATOM     12  C   UNL     1      -0.664   1.941   1.775  0.00  0.00    +0.044 C 
ATOM     13  C   UNL     1      -0.571   0.454   1.551  0.00  0.00    -0.050 A 
ATOM     14  C   UNL     1      -0.565  -0.052   0.263  0.00  0.00    +0.003 A 
ATOM     15  C   UNL     1      -0.480  -1.415   0.050  0.00  0.00    +0.004 A 
ATOM     16  C   UNL     1      -0.402  -2.281   1.122  0.00  0.00    -0.043 A 
ATOM     17  C   UNL     1      -0.407  -1.778   2.422  0.00  0.00    -0.013 A 
ATOM     18  C   UNL     1      -0.487  -0.401   2.631  0.00  0.00    +0.012 A 
ATOM     19  C   UNL     1      -0.310  -3.767   0.888  0.00  0.00    +0.044 C 
ENDBRANCH   1  17
BRANCH  10  20
ATOM     20  C   UNL     1       4.066  -6.068   4.952  0.00  0.00    -0.003 C 
BRANCH  20  21
ATOM     21  N   UNL     1       3.692  -6.799   6.171  0.00  0.00    +0.391 N 
ATOM     22  H   UNL     1       3.391  -6.144   6.876  0.00  0.00    -0.080 HD
BRANCH  21  23
ATOM     23  C   UNL     1       2.597  -7.729   5.867  0.00  0.00    -0.002 C 
BRANCH  23  24
ATOM     24  C   UNL     1       2.151  -8.411   7.134  0.00  0.00    +0.089 A 
ATOM     25  C   UNL     1       1.264  -7.923   8.020  0.00  0.00    +0.042 A 
ATOM     26  C   UNL     1       1.144  -8.883   9.051  0.00  0.00    +0.041 A 
ATOM     27  C   UNL     1       1.964  -9.901   8.733  0.00  0.00    +0.195 A 
ATOM     28  O   UNL     1       2.567  -9.612   7.568  0.00  0.00    -0.470 OA
ENDBRANCH  23  24
ENDBRANCH  21  23
BRANCH  21  29
ATOM     29  C   UNL     1       4.852  -7.552   6.666  0.00  0.00    -0.044 C 
BRANCH  29  30
ATOM     30  C   UNL     1       5.915  -6.576   7.173  0.00  0.00    +0.124 C 
BRANCH  30  31
ATOM     31  O   UNL     1       6.498  -5.888   6.065  0.00  0.00    -0.391 OA
ATOM     32  H   UNL     1       6.928  -6.470   5.423  0.00  0.00    +0.210 HD
ENDBRANCH  30  31
BRANCH  30  33
ATOM     33  C   UNL     1       7.002  -7.351   7.922  0.00  0.00    +0.190 C 
BRANCH  33  34
ATOM     34  O   UNL     1       7.933  -6.430   8.495  0.00  0.00    -0.365 OA
BRANCH  34  35
ATOM     35  C   UNL     1       8.995  -7.054   9.220  0.00  0.00    +0.248 C 
BRANCH  35  36
ATOM     36  C   UNL     1       9.890  -6.020   9.765  0.00  0.00    -0.077 C 
ATOM     37  C   UNL     1      10.604  -5.196  10.200  0.00  0.00    +0.006 C 
ENDBRANCH  35  36
ENDBRANCH  34  35
ENDBRANCH  33  34
ENDBRANCH  30  33
ENDBRANCH  29  30
ENDBRANCH  21  29
ENDBRANCH  20  21
ENDBRANCH  10  20
TORSDOF 12
