REMARK  Name = ZINC21984787
REMARK  7 active torsions:
REMARK  status: ('A' for Active; 'I' for Inactive)
REMARK    1  A    between atoms: C_1  and  C_2
REMARK    2  A    between atoms: C_2  and  C_27
REMARK    3  A    between atoms: C_3  and  C_14
REMARK    4  A    between atoms: C_14  and  O_16
REMARK    5  A    between atoms: O_16  and  C_17
REMARK    6  A    between atoms: C_17  and  C_18
REMARK    7  A    between atoms: C_21  and  N_24
REMARK                            x       y       z     vdW  Elec       q    Type
REMARK                         _______ _______ _______ _____ _____    ______ ____
ROOT
ATOM      1  C   UNL     1      -2.276   0.309  -0.967  0.00  0.00    +0.330 C 
ATOM      2  O   UNL     1      -2.700  -0.087  -2.027  0.00  0.00    -0.249 OA
ENDROOT
BRANCH   1   5
ATOM      3  C   UNL     1      -0.131   1.581   0.178  0.00  0.00    +0.025 C 
ATOM      4  C   UNL     1      -0.035   0.056   0.102  0.00  0.00    +0.042 C 
ATOM      5  C   UNL     1      -1.433  -0.595  -0.106  0.00  0.00    +0.201 C 
ATOM      6  N   UNL     1      -1.316  -1.904  -0.758  0.00  0.00    -0.270 N 
ATOM      7  C   UNL     1      -0.161  -2.081  -1.649  0.00  0.00    +0.172 C 
ATOM      8  S   UNL     1       0.763  -0.498  -1.472  0.00  0.00    -0.127 S 
ATOM      9  C   UNL     1      -1.134  -2.110  -2.814  0.00  0.00    +0.184 C 
ATOM     10  C   UNL     1      -2.183  -2.199  -1.746  0.00  0.00    +0.247 C 
ATOM     11  O   UNL     1      -3.370  -2.445  -1.765  0.00  0.00    -0.273 OA
ATOM     12 BR   UNL     1      -0.994  -3.720  -3.934  0.00  0.00    -0.059 Br
ATOM     13 BR   UNL     1      -1.192  -0.445  -3.858  0.00  0.00    -0.059 Br
ATOM     14  C   UNL     1       0.677  -0.520   1.327  0.00  0.00    +0.025 C 
ENDBRANCH   1   5
BRANCH   1  15
ATOM     15  O   UNL     1      -2.557   1.556  -0.557  0.00  0.00    -0.459 OA
BRANCH  15  16
ATOM     16  C   UNL     1      -3.374   2.372  -1.437  0.00  0.00    +0.267 C 
BRANCH  16  17
ATOM     17  C   UNL     1      -3.583   3.729  -0.815  0.00  0.00    -0.010 A 
ATOM     18  C   UNL     1      -4.668   3.951   0.011  0.00  0.00    +0.009 A 
ATOM     19  C   UNL     1      -4.856   5.194   0.585  0.00  0.00    +0.033 A 
ATOM     20  C   UNL     1      -3.965   6.218   0.325  0.00  0.00    +0.126 A 
ATOM     21  C   UNL     1      -2.882   5.997  -0.505  0.00  0.00    +0.033 A 
ATOM     22  C   UNL     1      -2.691   4.752  -1.075  0.00  0.00    +0.009 A 
BRANCH  20  23
ATOM     23  N   UNL     1      -4.169   7.551   0.936  0.00  0.00    +0.056 N 
ATOM     24  O   UNL     1      -3.383   8.453   0.707  0.00  0.00    -0.126 OA
ATOM     25  O   UNL     1      -5.123   7.745   1.668  0.00  0.00    -0.126 OA
ENDBRANCH  20  23
ENDBRANCH  16  17
ENDBRANCH  15  16
ENDBRANCH   1  15
TORSDOF 5
