REMARK  Name = ZINC05732630
REMARK  9 active torsions:
REMARK  status: ('A' for Active; 'I' for Inactive)
REMARK    1  A    between atoms: C_1  and  C_2
REMARK    2  A    between atoms: C_2  and  N_3
REMARK    3  A    between atoms: C_10  and  C_22
REMARK    4  A    between atoms: N_17  and  C_20
REMARK    5  A    between atoms: C_22  and  S_24
REMARK    6  A    between atoms: C_22  and  S_26
REMARK    7  A    between atoms: S_24  and  C_25
REMARK    8  A    between atoms: S_26  and  C_29
REMARK    9  A    between atoms: C_32  and  C_35
REMARK                            x       y       z     vdW  Elec       q    Type
REMARK                         _______ _______ _______ _____ _____    ______ ____
ROOT
ATOM      1  N   UNL     1       1.302   3.264   1.227  0.00  0.00    -0.289 N 
ATOM      2  C   UNL     1       0.607   2.253   1.896  0.00  0.00    +0.038 A 
ATOM      3  C   UNL     1       0.274   2.413   3.236  0.00  0.00    +0.024 A 
ATOM      4  C   UNL     1      -0.422   1.420   3.896  0.00  0.00    +0.002 A 
ATOM      5  C   UNL     1      -0.786   0.265   3.227  0.00  0.00    +0.000 A 
ATOM      6  C   UNL     1      -0.453   0.101   1.895  0.00  0.00    +0.006 A 
ATOM      7  C   UNL     1       0.244   1.089   1.230  0.00  0.00    -0.018 A 
ATOM      8  C   UNL     1       0.616   0.906  -0.221  0.00  0.00    +0.092 C 
ATOM      9  C   UNL     1       1.955   1.597  -0.470  0.00  0.00    +0.183 C 
ATOM     10  C   UNL     1       1.897   3.011   0.035  0.00  0.00    +0.127 C 
ATOM     11  N   UNL     1       2.367   4.003  -0.674  0.00  0.00    -0.149 NA
ATOM     12  C   UNL     1       2.844   3.837  -1.913  0.00  0.00    +0.333 C 
ATOM     13  O   UNL     1       3.363   4.782  -2.477  0.00  0.00    -0.250 OA
ATOM     14  N   UNL     1       2.768   2.658  -2.551  0.00  0.00    -0.226 N 
ATOM     15  C   UNL     1       2.327   1.556  -1.920  0.00  0.00    +0.251 C 
ATOM     16  O   UNL     1       2.229   0.514  -2.533  0.00  0.00    -0.273 OA
ATOM     17  C   UNL     1       3.171   2.572  -3.957  0.00  0.00    +0.143 C 
ATOM     18 CL   UNL     1       3.226   0.726   0.468  0.00  0.00    -0.100 Cl
ENDROOT
BRANCH   1  20
ATOM     19  C   UNL     1       0.209   5.449   1.336  0.00  0.00    +0.025 C 
ATOM     20  C   UNL     1       1.390   4.603   1.816  0.00  0.00    +0.108 C 
ENDBRANCH   1  20
BRANCH   8  21
ATOM     21  C   UNL     1      -0.458   1.530  -1.114  0.00  0.00    +0.202 C 
BRANCH  21  22
ATOM     22  S   UNL     1      -2.049   0.714  -0.806  0.00  0.00    +0.009 S 
ATOM     23  O   UNL     1      -1.973  -0.658  -1.168  0.00  0.00    -0.168 OA
ATOM     24  O   UNL     1      -2.561   1.102   0.461  0.00  0.00    -0.168 OA
BRANCH  22  25
ATOM     25  C   UNL     1      -3.157   1.427  -1.976  0.00  0.00    +0.089 A 
ATOM     26  C   UNL     1      -3.789   2.623  -1.689  0.00  0.00    +0.027 A 
ATOM     27  C   UNL     1      -4.655   3.185  -2.609  0.00  0.00    +0.005 A 
ATOM     28  C   UNL     1      -4.896   2.546  -3.811  0.00  0.00    -0.050 A 
ATOM     29  C   UNL     1      -4.269   1.348  -4.095  0.00  0.00    +0.005 A 
ATOM     30  C   UNL     1      -3.399   0.788  -3.178  0.00  0.00    +0.027 A 
ATOM     31  C   UNL     1      -5.844   3.156  -4.811  0.00  0.00    +0.044 C 
ENDBRANCH  22  25
ENDBRANCH  21  22
BRANCH  21  32
ATOM     32  S   UNL     1       0.004   1.317  -2.855  0.00  0.00    -0.137 S 
ATOM     33  C   UNL     1      -0.084  -0.476  -3.116  0.00  0.00    +0.086 C 
ENDBRANCH  21  32
ENDBRANCH   8  21
TORSDOF 5
