REMARK  Name = ZINC14754428
REMARK  6 active torsions:
REMARK  status: ('A' for Active; 'I' for Inactive)
REMARK    1  A    between atoms: C_4  and  C_7
REMARK    2  A    between atoms: C_7  and  C_8
REMARK    3  A    between atoms: C_8  and  N_9
REMARK    4  A    between atoms: N_12  and  C_31
REMARK    5  A    between atoms: C_20  and  N_66
REMARK    6  A    between atoms: C_31  and  C_32
REMARK                            x       y       z     vdW  Elec       q    Type
REMARK                         _______ _______ _______ _____ _____    ______ ____
ROOT
ATOM      1  N   UNL     1       3.017  -0.797  -1.316  0.00  0.00    -0.271 N 
ATOM      2  C   UNL     1       1.868  -0.217  -1.712  0.00  0.00    +0.312 C 
ATOM      3  O   UNL     1       1.526  -0.117  -2.874  0.00  0.00    -0.252 OA
ATOM      4  N   UNL     1       1.146   0.240  -0.681  0.00  0.00    -0.215 N 
ATOM      5  C   UNL     1       1.752  -0.006   0.498  0.00  0.00    +0.247 C 
ATOM      6  O   UNL     1       1.349   0.281   1.605  0.00  0.00    -0.273 OA
ATOM      7  C   UNL     1       3.041  -0.714   0.149  0.00  0.00    +0.112 C 
ATOM      8  C   UNL     1       3.066  -2.110   0.764  0.00  0.00    +0.017 C 
ATOM      9  C   UNL     1       4.392  -2.792   0.417  0.00  0.00    -0.076 C 
ATOM     10  C   UNL     1       5.530  -0.655   0.278  0.00  0.00    -0.076 C 
ATOM     11  C   UNL     1       4.242   0.099   0.621  0.00  0.00    +0.017 C 
ATOM     12  N   UNL     1       5.504  -1.974   0.947  0.00  0.00    +0.382 N 
ATOM     13  H   UNL     1       5.363  -1.833   1.954  0.00  0.00    -0.081 HD
ENDROOT
BRANCH  12  14
ATOM     14  C   UNL     1       6.789  -2.672   0.735  0.00  0.00    -0.064 C 
ATOM     15  C   UNL     1       6.752  -4.022   1.461  0.00  0.00    -0.010 C 
ATOM     16  C   UNL     1       8.163  -4.607   1.460  0.00  0.00    +0.034 C 
ATOM     17  C   UNL     1       8.736  -4.607   0.067  0.00  0.00    -0.044 A 
ATOM     18  C   UNL     1       9.831  -5.424  -0.182  0.00  0.00    +0.004 A 
ATOM     19  C   UNL     1      10.406  -5.464  -1.435  0.00  0.00    +0.000 A 
ATOM     20  C   UNL     1       9.888  -4.684  -2.453  0.00  0.00    +0.000 A 
ATOM     21  C   UNL     1       8.800  -3.873  -2.208  0.00  0.00    +0.004 A 
ATOM     22  C   UNL     1       8.218  -3.833  -0.947  0.00  0.00    -0.046 A 
ATOM     23  C   UNL     1       7.029  -2.930  -0.751  0.00  0.00    +0.020 C 
ENDBRANCH  12  14
BRANCH   1  24
ATOM     24  C   UNL     1       4.039  -1.398  -2.177  0.00  0.00    +0.115 C 
BRANCH  24  25
ATOM     25  C   UNL     1       3.460  -2.631  -2.873  0.00  0.00    +0.054 C 
BRANCH  25  29
ATOM     26  C   UNL     1       6.306  -4.159  -5.668  0.00  0.00    +0.000 A 
ATOM     27  C   UNL     1       6.219  -4.706  -4.401  0.00  0.00    +0.000 A 
ATOM     28  C   UNL     1       5.298  -4.212  -3.497  0.00  0.00    +0.004 A 
ATOM     29  C   UNL     1       4.464  -3.170  -3.859  0.00  0.00    -0.046 A 
ATOM     30  C   UNL     1       4.548  -2.627  -5.127  0.00  0.00    +0.004 A 
ATOM     31  C   UNL     1       5.472  -3.118  -6.030  0.00  0.00    +0.000 A 
ENDBRANCH  25  29
ENDBRANCH  24  25
ENDBRANCH   1  24
BRANCH   4  32
ATOM     32  C   UNL     1      -0.146   0.918  -0.818  0.00  0.00    +0.213 C 
BRANCH  32  33
ATOM     33  C   UNL     1       0.077   2.403  -0.945  0.00  0.00    +0.228 C 
ATOM     34  O   UNL     1       1.204   2.851  -0.925  0.00  0.00    -0.274 OA
ATOM     35  N   UNL     1      -0.975   3.233  -1.088  0.00  0.00    -0.328 N 
ATOM     36  H   UNL     1      -1.876   2.874  -1.109  0.00  0.00    +0.145 HD
ATOM     37  H   UNL     1      -0.832   4.189  -1.171  0.00  0.00    +0.145 HD
ENDBRANCH  32  33
ENDBRANCH   4  32
TORSDOF 6
