REMARK  Name = ZINC62553106
REMARK  5 active torsions:
REMARK  status: ('A' for Active; 'I' for Inactive)
REMARK    1  A    between atoms: C_1  and  C_2
REMARK    2  A    between atoms: N_8  and  S_14
REMARK    3  A    between atoms: C_11  and  O_13
REMARK    4  A    between atoms: S_14  and  C_17
REMARK    5  A    between atoms: C_21  and  N_23
REMARK                            x       y       z     vdW  Elec       q    Type
REMARK                         _______ _______ _______ _____ _____    ______ ____
ROOT
ATOM      1  C   UNL     1      -1.200  -0.441   3.197  0.00  0.00    +0.046 C 
ATOM      2  C   UNL     1      -1.279   0.020   4.629  0.00  0.00    -0.027 A 
ATOM      3  C   UNL     1      -1.978  -0.727   5.557  0.00  0.00    +0.005 A 
ATOM      4  C   UNL     1      -2.049  -0.304   6.871  0.00  0.00    +0.001 A 
ATOM      5  C   UNL     1      -1.421   0.865   7.259  0.00  0.00    +0.008 A 
ATOM      6  C   UNL     1      -0.718   1.619   6.335  0.00  0.00    +0.004 A 
ATOM      7  C   UNL     1      -0.643   1.193   5.018  0.00  0.00    +0.060 A 
ATOM      8  N   UNL     1       0.058   1.937   4.063  0.00  0.00    -0.202 N 
ATOM      9  C   UNL     1       0.967   2.999   4.516  0.00  0.00    +0.134 C 
ATOM     10  C   UNL     1       0.245   3.799   5.608  0.00  0.00    +0.057 C 
ATOM     11  C   UNL     1      -0.041   2.885   6.793  0.00  0.00    +0.148 C 
ENDROOT
BRANCH   8  12
ATOM     12  S   UNL     1      -0.133   1.625   2.447  0.00  0.00    +0.075 S 
ATOM     13  O   UNL     1       0.532   2.670   1.751  0.00  0.00    -0.150 OA
ATOM     14  O   UNL     1       0.193   0.255   2.257  0.00  0.00    -0.150 OA
BRANCH  12  15
ATOM     15  C   UNL     1      -1.849   1.789   2.084  0.00  0.00    +0.111 A 
ATOM     16  C   UNL     1      -2.276   1.838   0.770  0.00  0.00    +0.029 A 
ATOM     17  C   UNL     1      -3.622   1.967   0.485  0.00  0.00    +0.004 A 
ATOM     18  C   UNL     1      -4.542   2.047   1.515  0.00  0.00    +0.033 A 
ATOM     19  C   UNL     1      -4.115   1.998   2.828  0.00  0.00    +0.128 A 
ATOM     20  C   UNL     1      -2.769   1.865   3.113  0.00  0.00    +0.061 A 
BRANCH  19  21
ATOM     21  N   UNL     1      -5.100   2.085   3.930  0.00  0.00    +0.056 N 
ATOM     22  O   UNL     1      -6.277   2.198   3.681  0.00  0.00    -0.126 OA
ATOM     23  O   UNL     1      -4.726   2.042   5.079  0.00  0.00    -0.126 OA
ENDBRANCH  19  21
ENDBRANCH  12  15
ENDBRANCH   8  12
BRANCH  11  24
ATOM     24  O   UNL     1      -0.882   3.557   7.732  0.00  0.00    -0.387 OA
ATOM     25  H   UNL     1      -0.511   4.383   8.071  0.00  0.00    +0.210 HD
ENDBRANCH  11  24
TORSDOF 4
