REMARK  Name = ZINC39770064
REMARK  10 active torsions:
REMARK  status: ('A' for Active; 'I' for Inactive)
REMARK    1  A    between atoms: C_1  and  C_2
REMARK    2  A    between atoms: C_2  and  C_3
REMARK    3  A    between atoms: C_3  and  N_4
REMARK    4  A    between atoms: C_5  and  N_30
REMARK    5  A    between atoms: C_6  and  C_14
REMARK    6  A    between atoms: C_7  and  C_13
REMARK    7  A    between atoms: C_8  and  C_11
REMARK    8  A    between atoms: N_18  and  C_22
REMARK    9  A    between atoms: C_22  and  C_23
REMARK   10  A    between atoms: C_34  and  C_37
REMARK                            x       y       z     vdW  Elec       q    Type
REMARK                         _______ _______ _______ _____ _____    ______ ____
ROOT
ATOM      1  N   UNL     1      -1.343  -2.364   0.425  0.00  0.00    -0.295 N 
ATOM      2  C   UNL     1      -1.350  -2.857  -0.840  0.00  0.00    +0.112 A 
ATOM      3  C   UNL     1      -1.682  -4.201  -1.080  0.00  0.00    +0.019 A 
ATOM      4  C   UNL     1      -2.007  -5.036   0.002  0.00  0.00    -0.017 A 
ATOM      5  C   UNL     1      -1.992  -4.507   1.289  0.00  0.00    +0.120 A 
ATOM      6  C   UNL     1      -1.645  -3.144   1.478  0.00  0.00    +0.270 A 
ATOM      7  O   UNL     1      -1.626  -2.676   2.603  0.00  0.00    -0.266 OA
ATOM      8  C   UNL     1      -2.368  -6.482  -0.227  0.00  0.00    +0.046 C 
ENDROOT
BRANCH   3   9
ATOM      9  C   UNL     1      -1.689  -4.727  -2.446  0.00  0.00    +0.032 C 
ATOM     10  C   UNL     1      -0.785  -5.675  -2.815  0.00  0.00    +0.077 C 
ATOM     11  C   UNL     1       0.312  -6.219  -2.081  0.00  0.00    +0.259 C 
ATOM     12  O   UNL     1       0.557  -5.843  -0.949  0.00  0.00    -0.269 OA
ATOM     13  N   UNL     1       1.054  -7.143  -2.666  0.00  0.00    -0.251 N 
ATOM     14  C   UNL     1       0.782  -7.560  -3.923  0.00  0.00    +0.121 C 
ATOM     15  S   UNL     1       1.601  -8.732  -4.865  0.00  0.00    -0.027 S 
ATOM     16  S   UNL     1      -0.653  -6.585  -4.349  0.00  0.00    -0.061 S 
BRANCH  13  17
ATOM     17  C   UNL     1       2.188  -7.723  -1.943  0.00  0.00    +0.150 C 
BRANCH  17  18
ATOM     18  C   UNL     1       1.727  -8.934  -1.174  0.00  0.00    -0.029 A 
ATOM     19  C   UNL     1       1.262  -8.795   0.121  0.00  0.00    +0.008 A 
ATOM     20  C   UNL     1       0.839  -9.905   0.827  0.00  0.00    +0.038 A 
ATOM     21  C   UNL     1       0.879 -11.157   0.236  0.00  0.00    +0.123 A 
ATOM     22  C   UNL     1       1.345 -11.295  -1.060  0.00  0.00    +0.038 A 
ATOM     23  C   UNL     1       1.763 -10.183  -1.766  0.00  0.00    +0.008 A 
ATOM     24  F   UNL     1       0.466 -12.243   0.926  0.00  0.00    -0.205 F 
ENDBRANCH  17  18
ENDBRANCH  13  17
ENDBRANCH   3   9
BRANCH   2  25
ATOM     25  N   UNL     1      -1.033  -2.042  -1.887  0.00  0.00    -0.316 N 
ATOM     26  C   UNL     1       0.338  -1.997  -2.413  0.00  0.00    +0.106 C 
ATOM     27  C   UNL     1       0.296  -2.258  -3.921  0.00  0.00    +0.019 C 
ATOM     28  C   UNL     1      -0.663  -1.263  -4.580  0.00  0.00    +0.006 C 
ATOM     29  C   UNL     1      -2.072  -1.460  -4.017  0.00  0.00    +0.003 C 
ATOM     30  C   UNL     1      -2.058  -1.195  -2.513  0.00  0.00    +0.109 C 
ATOM     31  C   UNL     1      -3.036  -0.489  -4.701  0.00  0.00    +0.009 C 
ENDBRANCH   2  25
BRANCH   5  32
ATOM     32  C   UNL     1      -2.319  -5.331   2.413  0.00  0.00    +0.105 C 
ATOM     33  N   UNL     1      -2.579  -5.985   3.305  0.00  0.00    -0.191 NA
ENDBRANCH   5  32
BRANCH   1  34
ATOM     34  C   UNL     1      -0.994  -0.959   0.647  0.00  0.00    +0.126 C 
BRANCH  34  36
ATOM     35  C   UNL     1       0.861   0.618   1.210  0.00  0.00    +0.005 C 
ATOM     36  C   UNL     1       0.496  -0.850   0.978  0.00  0.00    +0.018 C 
ENDBRANCH  34  36
ENDBRANCH   1  34
TORSDOF 7
