REMARK  Name = ZINC65149232
REMARK  5 active torsions:
REMARK  status: ('A' for Active; 'I' for Inactive)
REMARK    1  A    between atoms: C_1  and  C_2
REMARK    2  A    between atoms: C_3  and  N_13
REMARK    3  A    between atoms: C_5  and  C_7
REMARK    4  A    between atoms: C_10  and  C_12
REMARK    5  A    between atoms: C_14  and  C_16
REMARK                            x       y       z     vdW  Elec       q    Type
REMARK                         _______ _______ _______ _____ _____    ______ ____
ROOT
ATOM      1  N   UNL     1      -2.370  -0.394   0.011  0.00  0.00    -0.283 N 
ATOM      2  C   UNL     1      -3.401  -1.256  -0.091  0.00  0.00    +0.248 C 
ATOM      3  O   UNL     1      -3.193  -2.451  -0.099  0.00  0.00    -0.273 OA
ATOM      4  H   UNL     1      -2.541   0.557   0.099  0.00  0.00    +0.155 HD
ENDROOT
BRANCH   2   5
ATOM      5  C   UNL     1      -4.811  -0.736  -0.196  0.00  0.00    +0.241 C 
ATOM      6  C   UNL     1      -5.136  -0.352  -1.616  0.00  0.00    -0.012 C 
ATOM      7  C   UNL     1      -6.148  -1.153  -1.966  0.00  0.00    +0.065 C 
ATOM      8  C   UNL     1      -6.800  -1.108  -3.331  0.00  0.00    +0.057 C 
ATOM      9  C   UNL     1      -6.427   0.216  -4.005  0.00  0.00    +0.006 C 
ATOM     10  C   UNL     1      -4.910   0.418  -3.942  0.00  0.00    +0.005 C 
ATOM     11  C   UNL     1      -4.497   0.687  -2.489  0.00  0.00    +0.035 C 
ATOM     12  N   UNL     1      -6.470  -1.968  -0.937  0.00  0.00    -0.158 NA
ATOM     13  N   UNL     1      -5.786  -1.808   0.084  0.00  0.00    -0.170 NA
ENDBRANCH   2   5
BRANCH   1  16
ATOM     14  C   UNL     1      -0.120   1.170   1.283  0.00  0.00    +0.053 C 
ATOM     15  C   UNL     1      -0.044  -0.154   0.568  0.00  0.00    +0.009 A 
ATOM     16  C   UNL     1      -1.047  -0.872  -0.011  0.00  0.00    +0.044 A 
ATOM     17  C   UNL     1      -0.749  -2.074  -0.618  0.00  0.00    +0.044 A 
ATOM     18  C   UNL     1       0.565  -2.504  -0.613  0.00  0.00    +0.078 A 
ATOM     19  S   UNL     1       1.385  -1.178   0.257  0.00  0.00    -0.087 S 
BRANCH  18  20
ATOM     20  C   UNL     1       1.140  -3.731  -1.183  0.00  0.00    +0.255 A 
ATOM     21  N   UNL     1       0.486  -4.673  -1.828  0.00  0.00    -0.107 NA
ATOM     22  N   UNL     1       1.311  -5.595  -2.182  0.00  0.00    -0.112 NA
ATOM     23  C   UNL     1       2.512  -5.284  -1.783  0.00  0.00    +0.215 A 
ATOM     24  O   UNL     1       2.438  -4.100  -1.148  0.00  0.00    -0.420 OA
ATOM     25  C   UNL     1       3.760  -6.100  -1.998  0.00  0.00    +0.111 C 
ENDBRANCH  18  20
ENDBRANCH   1  16
TORSDOF 3
