REMARK  Name = ZINC39777187
REMARK  6 active torsions:
REMARK  status: ('A' for Active; 'I' for Inactive)
REMARK    1  A    between atoms: C_13  and  S_15
REMARK    2  A    between atoms: S_15  and  C_16
REMARK    3  A    between atoms: C_16  and  C_17
REMARK    4  A    between atoms: C_17  and  C_19
REMARK    5  A    between atoms: C_17  and  O_26
REMARK    6  A    between atoms: C_19  and  N_20
REMARK                            x       y       z     vdW  Elec       q    Type
REMARK                         _______ _______ _______ _____ _____    ______ ____
ROOT
ATOM      1  C   UNL     1      -0.016   1.348   0.009  0.00  0.00    +0.001 A 
ATOM      2  C   UNL     1       1.156   2.116   0.002  0.00  0.00    +0.002 A 
ATOM      3  C   UNL     1       2.382   1.544  -0.019  0.00  0.00    +0.026 A 
ATOM      4  C   UNL     1       2.490   0.081  -0.035  0.00  0.00    +0.046 A 
ATOM      5  N   UNL     1       3.530  -0.719  -0.024  0.00  0.00    -0.358 N 
ATOM      6  C   UNL     1       3.070  -2.089  -0.174  0.00  0.00    +0.252 C 
ATOM      7  C   UNL     1       1.561  -2.038  -0.014  0.00  0.00    +0.117 C 
ATOM      8  C   UNL     1       1.230  -0.705  -0.014  0.00  0.00    +0.025 A 
ATOM      9  C   UNL     1       0.002  -0.004   0.002  0.00  0.00    +0.012 A 
ATOM     10  N   UNL     1       0.842  -3.139   0.220  0.00  0.00    -0.147 NA
ATOM     11  N   UNL     1       1.473  -4.102   0.821  0.00  0.00    -0.122 NA
ATOM     12  C   UNL     1       2.755  -3.971   1.242  0.00  0.00    +0.207 C 
ATOM     13  N   UNL     1       3.565  -3.019   0.839  0.00  0.00    -0.227 NA
ATOM     14  H   UNL     1       4.455  -0.441   0.070  0.00  0.00    +0.162 HD
ENDROOT
BRANCH  12  15
ATOM     15  S   UNL     1       3.373  -5.150   2.396  0.00  0.00    -0.082 S 
BRANCH  15  16
ATOM     16  C   UNL     1       5.084  -4.623   2.688  0.00  0.00    +0.110 C 
BRANCH  16  17
ATOM     17  C   UNL     1       5.747  -5.574   3.686  0.00  0.00    +0.139 C 
BRANCH  17  18
ATOM     18  O   UNL     1       5.847  -6.877   3.107  0.00  0.00    -0.390 OA
ATOM     19  H   UNL     1       6.369  -6.907   2.294  0.00  0.00    +0.210 HD
ENDBRANCH  17  18
BRANCH  17  20
ATOM     20  C   UNL     1       7.147  -5.059   4.028  0.00  0.00    +0.116 C 
BRANCH  20  21
ATOM     21  N   UNL     1       7.784  -5.973   4.986  0.00  0.00    -0.296 NA
ATOM     22  C   UNL     1       7.085  -5.951   6.279  0.00  0.00    +0.112 C 
ATOM     23  C   UNL     1       7.743  -6.959   7.226  0.00  0.00    +0.175 C 
ATOM     24  O   UNL     1       9.133  -6.645   7.356  0.00  0.00    -0.377 OA
ATOM     25  C   UNL     1       9.844  -6.658   6.115  0.00  0.00    +0.175 C 
ATOM     26  C   UNL     1       9.207  -5.647   5.157  0.00  0.00    +0.112 C 
ENDBRANCH  20  21
ENDBRANCH  17  20
ENDBRANCH  16  17
ENDBRANCH  15  16
ENDBRANCH  12  15
TORSDOF 6
