REMARK  Name = ZINC07796402
REMARK  8 active torsions:
REMARK  status: ('A' for Active; 'I' for Inactive)
REMARK    1  A    between atoms: C_1  and  C_2
REMARK    2  A    between atoms: C_2  and  C_3
REMARK    3  A    between atoms: C_3  and  N_4
REMARK    4  A    between atoms: N_13  and  C_14
REMARK    5  A    between atoms: C_14  and  C_16
REMARK    6  A    between atoms: C_16  and  S_17
REMARK    7  A    between atoms: S_17  and  C_18
REMARK    8  A    between atoms: C_21  and  N_24
REMARK                            x       y       z     vdW  Elec       q    Type
REMARK                         _______ _______ _______ _____ _____    ______ ____
ROOT
ATOM      1  N   UNL     1      -1.428  -1.998   0.005  0.00  0.00    -0.312 N 
ATOM      2  C   UNL     1      -1.425  -2.806  -1.127  0.00  0.00    +0.068 A 
ATOM      3  C   UNL     1      -1.444  -2.532  -2.487  0.00  0.00    +0.028 A 
ATOM      4  C   UNL     1      -1.435  -3.568  -3.398  0.00  0.00    +0.002 A 
ATOM      5  C   UNL     1      -1.407  -4.882  -2.961  0.00  0.00    +0.002 A 
ATOM      6  C   UNL     1      -1.388  -5.166  -1.611  0.00  0.00    +0.028 A 
ATOM      7  C   UNL     1      -1.396  -4.131  -0.686  0.00  0.00    +0.066 A 
ATOM      8  N   UNL     1      -1.383  -4.100   0.705  0.00  0.00    -0.326 N 
ATOM      9  C   UNL     1      -1.397  -2.800   1.102  0.00  0.00    +0.201 A 
ATOM     10  N   UNL     1      -1.385  -2.380   2.364  0.00  0.00    -0.146 NA
ATOM     11  H   UNL     1      -1.363  -4.873   1.290  0.00  0.00    +0.169 HD
ENDROOT
BRANCH  10  12
ATOM     12  C   UNL     1      -1.463  -3.259   3.358  0.00  0.00    +0.249 C 
ATOM     13  O   UNL     1      -1.450  -4.451   3.118  0.00  0.00    -0.273 OA
BRANCH  12  14
ATOM     14  C   UNL     1      -1.569  -2.778   4.782  0.00  0.00    +0.172 C 
BRANCH  14  15
ATOM     15  S   UNL     1      -1.659  -4.206   5.897  0.00  0.00    -0.116 S 
BRANCH  15  16
ATOM     16  C   UNL     1      -1.778  -3.488   7.502  0.00  0.00    +0.008 A 
ATOM     17  C   UNL     1      -1.789  -2.106   7.647  0.00  0.00    +0.017 A 
ATOM     18  C   UNL     1      -1.883  -1.546   8.906  0.00  0.00    +0.034 A 
ATOM     19  C   UNL     1      -1.964  -2.359  10.021  0.00  0.00    +0.126 A 
ATOM     20  C   UNL     1      -1.953  -3.735   9.881  0.00  0.00    +0.034 A 
ATOM     21  C   UNL     1      -1.866  -4.302   8.625  0.00  0.00    +0.017 A 
BRANCH  19  22
ATOM     22  N   UNL     1      -2.064  -1.756  11.369  0.00  0.00    +0.056 N 
ATOM     23  O   UNL     1      -2.074  -0.553  11.493  0.00  0.00    -0.126 OA
ATOM     24  O   UNL     1      -2.135  -2.465  12.345  0.00  0.00    -0.126 OA
ENDBRANCH  19  22
ENDBRANCH  15  16
ENDBRANCH  14  15
ENDBRANCH  12  14
ENDBRANCH  10  12
BRANCH   1  25
ATOM     25  C   UNL     1      -1.455  -0.533   0.014  0.00  0.00    +0.125 C 
BRANCH  25  27
ATOM     26  C   UNL     1      -0.050   1.533   0.004  0.00  0.00    +0.005 C 
ATOM     27  C   UNL     1      -0.022   0.003  -0.005  0.00  0.00    +0.018 C 
ENDBRANCH  25  27
ENDBRANCH   1  25
TORSDOF 7
