REMARK  Name = ZINC43760886
REMARK  9 active torsions:
REMARK  status: ('A' for Active; 'I' for Inactive)
REMARK    1  A    between atoms: C_1  and  C_2
REMARK    2  A    between atoms: C_13  and  C_14
REMARK    3  A    between atoms: C_13  and  O_29
REMARK    4  A    between atoms: C_14  and  C_16
REMARK    5  A    between atoms: C_16  and  O_17
REMARK    6  A    between atoms: O_17  and  C_18
REMARK    7  A    between atoms: C_18  and  C_20
REMARK    8  A    between atoms: C_23  and  N_26
REMARK    9  A    between atoms: C_38  and  C_39
REMARK                            x       y       z     vdW  Elec       q    Type
REMARK                         _______ _______ _______ _____ _____    ______ ____
ROOT
ATOM      1  C   UNL     1       0.233   1.607   0.022  0.00  0.00    +0.015 C 
ATOM      2  C   UNL     1       0.126   0.084   0.044  0.00  0.00    +0.007 C 
ATOM      3  C   UNL     1      -1.311  -0.350   0.224  0.00  0.00    +0.010 C 
ATOM      4  C   UNL     1      -1.790   0.120   1.613  0.00  0.00    +0.005 C 
ATOM      5  C   UNL     1      -0.944  -0.484   2.719  0.00  0.00    +0.006 C 
ATOM      6  C   UNL     1       0.552  -0.204   2.532  0.00  0.00    -0.003 C 
ATOM      7  C   UNL     1       0.983  -0.565   1.151  0.00  0.00    +0.002 C 
ATOM      8  C   UNL     1       2.404  -0.209   0.700  0.00  0.00    +0.008 C 
ATOM      9  C   UNL     1       2.336  -0.441  -0.836  0.00  0.00    +0.043 C 
ATOM     10  C   UNL     1       0.833  -0.446  -1.215  0.00  0.00    +0.133 C 
ATOM     11  C   UNL     1       0.834   1.235   2.958  0.00  0.00    +0.008 C 
ATOM     12  C   UNL     1       0.812   1.251   4.491  0.00  0.00    +0.032 C 
ATOM     13  C   UNL     1      -0.388   0.490   5.000  0.00  0.00    -0.056 C 
ATOM     14  C   UNL     1      -0.536   0.452   6.338  0.00  0.00    +0.051 C 
ATOM     15  C   UNL     1      -1.652  -0.319   6.921  0.00  0.00    +0.179 C 
ATOM     16  O   UNL     1      -2.042  -0.119   8.066  0.00  0.00    -0.288 OA
ATOM     17  C   UNL     1      -2.263  -1.374   6.079  0.00  0.00    +0.047 C 
ATOM     18  C   UNL     1      -2.113  -1.308   4.752  0.00  0.00    -0.012 C 
ATOM     19  C   UNL     1      -1.398  -0.151   4.115  0.00  0.00    +0.011 C 
ATOM     20  C   UNL     1      -2.492   0.913   3.986  0.00  0.00    +0.020 C 
ENDROOT
BRANCH  10  21
ATOM     21  C   UNL     1       0.578   0.477  -2.374  0.00  0.00    +0.202 C 
ATOM     22  O   UNL     1       1.366   1.355  -2.632  0.00  0.00    -0.291 OA
BRANCH  21  23
ATOM     23  C   UNL     1      -0.661   0.307  -3.215  0.00  0.00    +0.309 C 
BRANCH  23  24
ATOM     24  O   UNL     1      -0.677   1.296  -4.246  0.00  0.00    -0.453 OA
BRANCH  24  25
ATOM     25  C   UNL     1      -1.726   1.282  -5.092  0.00  0.00    +0.340 C 
ATOM     26  O   UNL     1      -2.603   0.453  -4.957  0.00  0.00    -0.245 OA
BRANCH  25  27
ATOM     27  C   UNL     1      -1.809   2.275  -6.182  0.00  0.00    +0.059 A 
ATOM     28  C   UNL     1      -0.800   3.226  -6.343  0.00  0.00    +0.017 A 
ATOM     29  C   UNL     1      -0.884   4.150  -7.364  0.00  0.00    +0.033 A 
ATOM     30  C   UNL     1      -1.966   4.136  -8.227  0.00  0.00    +0.126 A 
ATOM     31  C   UNL     1      -2.970   3.197  -8.073  0.00  0.00    +0.033 A 
ATOM     32  C   UNL     1      -2.895   2.263  -7.060  0.00  0.00    +0.017 A 
BRANCH  30  33
ATOM     33  N   UNL     1      -2.049   5.131  -9.320  0.00  0.00    +0.056 N 
ATOM     34  O   UNL     1      -1.173   5.953  -9.457  0.00  0.00    -0.126 OA
ATOM     35  O   UNL     1      -2.993   5.121 -10.075  0.00  0.00    -0.126 OA
ENDBRANCH  30  33
ENDBRANCH  25  27
ENDBRANCH  24  25
ENDBRANCH  23  24
ENDBRANCH  21  23
ENDBRANCH  10  21
BRANCH  10  36
ATOM     36  O   UNL     1       0.393  -1.768  -1.511  0.00  0.00    -0.380 OA
ATOM     37  H   UNL     1       0.805  -2.153  -2.296  0.00  0.00    +0.211 HD
ENDBRANCH  10  36
TORSDOF 7
