REMARK  Name = ZINC11068793
REMARK  8 active torsions:
REMARK  status: ('A' for Active; 'I' for Inactive)
REMARK    1  A    between atoms: C_1  and  C_2
REMARK    2  A    between atoms: C_5  and  N_9
REMARK    3  A    between atoms: C_10  and  C_12
REMARK    4  A    between atoms: C_12  and  N_55
REMARK    5  A    between atoms: C_13  and  N_55
REMARK    6  A    between atoms: C_14  and  C_15
REMARK    7  A    between atoms: C_14  and  N_55
REMARK    8  A    between atoms: C_28  and  C_30
REMARK                            x       y       z     vdW  Elec       q    Type
REMARK                         _______ _______ _______ _____ _____    ______ ____
ROOT
ATOM      1  C   UNL     1       0.415   3.531  -2.287  0.00  0.00    +0.019 C 
ENDROOT
BRANCH   1   2
ATOM      2  C   UNL     1       0.842   4.219  -1.016  0.00  0.00    +0.204 C 
ATOM      3  O   UNL     1       0.842   5.431  -0.953  0.00  0.00    -0.277 OA
ATOM      4  N   UNL     1       1.224   3.489   0.051  0.00  0.00    -0.268 N 
ATOM      5  C   UNL     1       1.229   2.089  -0.009  0.00  0.00    +0.058 A 
ATOM      6  C   UNL     1       0.040   1.378   0.005  0.00  0.00    +0.025 A 
ATOM      7  C   UNL     1       0.066  -0.004  -0.003  0.00  0.00    +0.002 A 
ATOM      8  C   UNL     1       1.273  -0.679  -0.028  0.00  0.00    +0.002 A 
ATOM      9  C   UNL     1       2.464   0.024  -0.055  0.00  0.00    +0.025 A 
ATOM     10  C   UNL     1       2.446   1.409  -0.052  0.00  0.00    +0.055 A 
ATOM     11  N   UNL     1       3.637   2.142  -0.111  0.00  0.00    -0.284 N 
ATOM     12  C   UNL     1       3.860   3.156   0.753  0.00  0.00    +0.219 C 
ATOM     13  O   UNL     1       4.857   3.838   0.638  0.00  0.00    -0.275 OA
ATOM     14  C   UNL     1       2.879   3.446   1.857  0.00  0.00    +0.118 C 
ATOM     15  C   UNL     1       1.642   4.145   1.292  0.00  0.00    +0.087 C 
ATOM     16  C   UNL     1       0.504   4.070   2.312  0.00  0.00    +0.029 C 
ATOM     17  H   UNL     1       4.307   1.920  -0.776  0.00  0.00    +0.155 HD
ENDBRANCH   1   2
BRANCH   1  19
ATOM     18  C   UNL     1      -1.148   5.283  -2.877  0.00  0.00    -0.095 C 
ATOM     19  N   UNL     1       0.071   4.558  -3.293  0.00  0.00    +0.389 N 
ATOM     20  H   UNL     1       0.847   5.225  -3.367  0.00  0.00    -0.081 HD
BRANCH  19  21
ATOM     21  C   UNL     1      -0.144   3.922  -4.610  0.00  0.00    +0.019 C 
BRANCH  21  23
ATOM     22  N   UNL     1      -0.459   4.668  -6.947  0.00  0.00    -0.286 N 
ATOM     23  C   UNL     1      -0.274   5.000  -5.654  0.00  0.00    +0.201 C 
ATOM     24  O   UNL     1      -0.212   6.168  -5.332  0.00  0.00    -0.278 OA
ATOM     25  H   UNL     1      -0.444   3.735  -7.215  0.00  0.00    +0.155 HD
BRANCH  22  30
ATOM     26  C   UNL     1      -1.330   8.720 -10.822  0.00  0.00    +0.044 C 
ATOM     27  C   UNL     1      -1.099   7.643  -9.793  0.00  0.00    -0.049 A 
ATOM     28  C   UNL     1      -0.251   7.879  -8.726  0.00  0.00    +0.005 A 
ATOM     29  C   UNL     1      -0.037   6.895  -7.782  0.00  0.00    +0.024 A 
ATOM     30  C   UNL     1      -0.674   5.667  -7.903  0.00  0.00    +0.047 A 
ATOM     31  C   UNL     1      -1.520   5.430  -8.979  0.00  0.00    +0.039 A 
ATOM     32  C   UNL     1      -1.734   6.422  -9.918  0.00  0.00    +0.020 A 
ATOM     33 BR   UNL     1      -2.384   3.757  -9.155  0.00  0.00    -0.048 Br
ENDBRANCH  22  30
ENDBRANCH  21  23
ENDBRANCH  19  21
ENDBRANCH   1  19
TORSDOF 5
