REMARK  Name = ZINC39699173
REMARK  6 active torsions:
REMARK  status: ('A' for Active; 'I' for Inactive)
REMARK    1  A    between atoms: C_1  and  C_2
REMARK    2  A    between atoms: C_6  and  C_7
REMARK    3  A    between atoms: C_7  and  C_9
REMARK    4  A    between atoms: C_7  and  C_15
REMARK    5  A    between atoms: C_16  and  C_22
REMARK    6  A    between atoms: C_19  and  O_21
REMARK                            x       y       z     vdW  Elec       q    Type
REMARK                         _______ _______ _______ _____ _____    ______ ____
ROOT
ATOM      1  C   UNL     1       0.030  -0.333   2.525  0.00  0.00    +0.124 C 
ENDROOT
BRANCH   1   7
ATOM      2  C   UNL     1      -0.018   1.503   0.010  0.00  0.00    +0.065 C 
ATOM      3  C   UNL     1       0.002  -0.004   0.002  0.00  0.00    +0.039 A 
ATOM      4  N   UNL     1       0.008  -0.796  -1.111  0.00  0.00    -0.301 N 
ATOM      5  N   UNL     1       0.029  -2.134  -0.695  0.00  0.00    -0.266 N 
ATOM      6  C   UNL     1       0.035  -2.143   0.654  0.00  0.00    +0.269 A 
ATOM      7  C   UNL     1       0.023  -0.798   1.091  0.00  0.00    +0.053 A 
ATOM      8  O   UNL     1       0.051  -3.131   1.367  0.00  0.00    -0.266 OA
ATOM      9  H   UNL     1      -0.000  -0.487  -2.030  0.00  0.00    +0.186 HD
ATOM     10  H   UNL     1       0.037  -2.913  -1.272  0.00  0.00    +0.190 HD
ENDBRANCH   1   7
BRANCH   1  11
ATOM     11  C   UNL     1       1.274  -0.837   3.210  0.00  0.00    +0.118 A 
ATOM     12  C   UNL     1       2.224  -0.073   3.779  0.00  0.00    +0.047 A 
ATOM     13  C   UNL     1       3.202  -0.952   4.298  0.00  0.00    +0.057 A 
ATOM     14  C   UNL     1       2.791  -2.203   4.016  0.00  0.00    +0.170 A 
ATOM     15  O   UNL     1       1.620  -2.127   3.362  0.00  0.00    -0.452 OA
ATOM     16 BR   UNL     1       3.703  -3.796   4.469  0.00  0.00    -0.008 Br
ENDBRANCH   1  11
BRANCH   1  17
ATOM     17  C   UNL     1      -1.186  -0.871   3.233  0.00  0.00    +0.020 C 
ATOM     18  C   UNL     1      -2.168  -0.182   3.819  0.00  0.00    +0.065 C 
ATOM     19  N   UNL     1      -3.089  -1.017   4.350  0.00  0.00    -0.156 NA
ATOM     20  N   UNL     1      -2.846  -2.216   4.192  0.00  0.00    -0.151 NA
ATOM     21  C   UNL     1      -1.583  -2.322   3.441  0.00  0.00    +0.284 C 
ATOM     22  C   UNL     1      -2.240   1.322   3.880  0.00  0.00    +0.067 C 
BRANCH  21  23
ATOM     23  O   UNL     1      -0.596  -3.011   4.211  0.00  0.00    -0.366 OA
ATOM     24  H   UNL     1      -0.802  -3.942   4.372  0.00  0.00    +0.212 HD
ENDBRANCH  21  23
ENDBRANCH   1  17
TORSDOF 4
