REMARK  Name = ZINC21862979
REMARK  6 active torsions:
REMARK  status: ('A' for Active; 'I' for Inactive)
REMARK    1  A    between atoms: C_1  and  C_2
REMARK    2  A    between atoms: C_2  and  C_23
REMARK    3  A    between atoms: C_5  and  C_18
REMARK    4  A    between atoms: N_11  and  C_12
REMARK    5  A    between atoms: C_12  and  C_13
REMARK    6  A    between atoms: N_25  and  C_26
REMARK                            x       y       z     vdW  Elec       q    Type
REMARK                         _______ _______ _______ _____ _____    ______ ____
ROOT
ATOM      1  C   UNL     1      -4.302   3.198   1.236  0.00  0.00    +0.043 C 
ATOM      2  C   UNL     1      -3.653   2.150   2.142  0.00  0.00    +0.129 C 
ATOM      3  C   UNL     1      -4.742   1.488   2.987  0.00  0.00    +0.157 C 
ATOM      4  N   UNL     1      -4.191   0.293   3.632  0.00  0.00    -0.331 N 
ATOM      5  C   UNL     1      -4.526  -0.297   4.805  0.00  0.00    +0.085 A 
ATOM      6  C   UNL     1      -3.728  -1.419   4.969  0.00  0.00    +0.032 A 
ATOM      7  C   UNL     1      -2.881  -1.505   3.864  0.00  0.00    +0.033 A 
ATOM      8  C   UNL     1      -3.166  -0.444   3.049  0.00  0.00    +0.105 A 
ATOM      9  C   UNL     1      -2.577  -0.030   1.773  0.00  0.00    +0.264 C 
ATOM     10  O   UNL     1      -1.807  -0.748   1.161  0.00  0.00    -0.268 OA
ATOM     11  N   UNL     1      -2.929   1.193   1.313  0.00  0.00    -0.273 N 
ENDROOT
BRANCH   5  12
ATOM     12  C   UNL     1      -5.557   0.171   5.742  0.00  0.00    +0.151 A 
ATOM     13  C   UNL     1      -5.834  -0.368   6.964  0.00  0.00    +0.051 A 
ATOM     14  C   UNL     1      -6.883   0.391   7.513  0.00  0.00    +0.042 A 
ATOM     15  C   UNL     1      -7.200   1.341   6.609  0.00  0.00    +0.196 A 
ATOM     16  O   UNL     1      -6.398   1.206   5.542  0.00  0.00    -0.461 OA
ENDBRANCH   5  12
BRANCH   2  17
ATOM     17  C   UNL     1      -2.676   2.837   3.059  0.00  0.00    +0.238 C 
ATOM     18  O   UNL     1      -2.837   4.003   3.354  0.00  0.00    -0.273 OA
ATOM     19  N   UNL     1      -1.621   2.158   3.552  0.00  0.00    -0.311 N 
ATOM     20  H   UNL     1      -1.520   1.081   3.354  0.00  0.00    +0.149 HD
BRANCH  19  21
ATOM     21  C   UNL     1      -0.610   2.853   4.352  0.00  0.00    +0.073 C 
ATOM     22  C   UNL     1       0.423   3.494   3.423  0.00  0.00    +0.022 C 
ATOM     23  C   UNL     1       1.479   4.220   4.259  0.00  0.00    +0.002 C 
ATOM     24  C   UNL     1       2.175   3.220   5.184  0.00  0.00    +0.000 C 
ATOM     25  C   UNL     1       1.141   2.579   6.113  0.00  0.00    +0.002 C 
ATOM     26  C   UNL     1       0.086   1.853   5.277  0.00  0.00    +0.022 C 
ENDBRANCH  19  21
ENDBRANCH   2  17
BRANCH  11  27
ATOM     27  C   UNL     1      -2.578   1.565  -0.060  0.00  0.00    +0.183 C 
BRANCH  27  28
ATOM     28  C   UNL     1      -1.196   2.166  -0.080  0.00  0.00    +0.122 A 
ATOM     29  C   UNL     1      -0.041   1.480  -0.158  0.00  0.00    +0.046 A 
ATOM     30  C   UNL     1       1.003   2.433  -0.152  0.00  0.00    +0.041 A 
ATOM     31  C   UNL     1       0.424   3.644  -0.066  0.00  0.00    +0.195 A 
ATOM     32  O   UNL     1      -0.908   3.476  -0.019  0.00  0.00    -0.466 OA
ENDBRANCH  27  28
ENDBRANCH  11  27
TORSDOF 5
