REMARK  Name = ZINC03544464
REMARK  4 active torsions:
REMARK  status: ('A' for Active; 'I' for Inactive)
REMARK    1  A    between atoms: C_4  and  N_6
REMARK    2  A    between atoms: C_7  and  C_9
REMARK    3  A    between atoms: C_9  and  N_10
REMARK    4  A    between atoms: N_15  and  C_18
REMARK                            x       y       z     vdW  Elec       q    Type
REMARK                         _______ _______ _______ _____ _____    ______ ____
ROOT
ATOM      1  N   UNL     1       0.002  -0.004   0.002  0.00  0.00    -0.209 N 
ATOM      2  C   UNL     1       1.286  -0.423  -0.013  0.00  0.00    +0.310 C 
ATOM      3  O   UNL     1       1.685  -1.569  -0.022  0.00  0.00    -0.264 OA
ATOM      4  C   UNL     1       2.114   0.827  -0.014  0.00  0.00    +0.310 C 
ATOM      5  O   UNL     1       3.324   0.907  -0.025  0.00  0.00    -0.264 OA
ATOM      6  N   UNL     1       1.227   1.846   0.000  0.00  0.00    -0.215 N 
ATOM      7  C   UNL     1      -0.016   1.339   0.009  0.00  0.00    +0.319 C 
ATOM      8  O   UNL     1      -1.029   2.009   0.018  0.00  0.00    -0.252 OA
ENDROOT
BRANCH   6   9
ATOM      9  C   UNL     1       1.566   3.271   0.004  0.00  0.00    +0.086 C 
ATOM     10  C   UNL     1       2.426   3.613  -1.230  0.00  0.00    +0.023 C 
ATOM     11  C   UNL     1       3.441   4.660  -0.707  0.00  0.00    +0.002 C 
ATOM     12  C   UNL     1       3.767   4.141   0.716  0.00  0.00    +0.002 C 
ATOM     13  C   UNL     1       2.418   3.607   1.241  0.00  0.00    +0.023 C 
ENDBRANCH   6   9
BRANCH   1  14
ATOM     14  C   UNL     1      -1.178  -0.872   0.009  0.00  0.00    +0.214 C 
BRANCH  14  16
ATOM     15  N   UNL     1      -2.666  -1.946  -1.649  0.00  0.00    -0.311 N 
ATOM     16  C   UNL     1      -1.597  -1.162  -1.409  0.00  0.00    +0.231 C 
ATOM     17  O   UNL     1      -0.971  -0.690  -2.335  0.00  0.00    -0.274 OA
ATOM     18  H   UNL     1      -3.167  -2.324  -0.909  0.00  0.00    +0.149 HD
BRANCH  15  22
ATOM     19  C   UNL     1      -5.060  -1.899  -4.404  0.00  0.00    +0.002 C 
ATOM     20  C   UNL     1      -5.256  -3.222  -3.623  0.00  0.00    +0.002 C 
ATOM     21  C   UNL     1      -3.848  -3.556  -3.088  0.00  0.00    +0.022 C 
ATOM     22  C   UNL     1      -3.073  -2.228  -3.028  0.00  0.00    +0.073 C 
ATOM     23  C   UNL     1      -4.037  -1.133  -3.529  0.00  0.00    +0.022 C 
ENDBRANCH  15  22
ENDBRANCH  14  16
ENDBRANCH   1  14
TORSDOF 4
