REMARK  Name = ZINC20548776
REMARK  9 active torsions:
REMARK  status: ('A' for Active; 'I' for Inactive)
REMARK    1  A    between atoms: C_1  and  C_2
REMARK    2  A    between atoms: C_2  and  C_3
REMARK    3  A    between atoms: C_3  and  C_4
REMARK    4  A    between atoms: C_4  and  N_5
REMARK    5  A    between atoms: C_10  and  C_29
REMARK    6  A    between atoms: C_21  and  C_28
REMARK    7  A    between atoms: C_22  and  C_27
REMARK    8  A    between atoms: C_29  and  C_30
REMARK    9  A    between atoms: C_30  and  C_31
REMARK                            x       y       z     vdW  Elec       q    Type
REMARK                         _______ _______ _______ _____ _____    ______ ____
ROOT
ATOM      1  N   UNL     1       1.471  -2.526   2.420  0.00  0.00    -0.242 N 
ATOM      2  C   UNL     1       2.818  -2.755   2.456  0.00  0.00    +0.227 C 
ATOM      3  O   UNL     1       3.650  -2.352   1.672  0.00  0.00    -0.275 OA
ATOM      4  C   UNL     1       3.054  -3.608   3.672  0.00  0.00    +0.107 C 
ATOM      5  C   UNL     1       4.247  -3.297   4.585  0.00  0.00    +0.068 C 
ATOM      6  N   UNL     1       3.719  -3.639   5.947  0.00  0.00    -0.295 NA
ATOM      7  C   UNL     1       2.234  -3.456   5.907  0.00  0.00    +0.136 C 
ATOM      8  C   UNL     1       1.936  -2.932   4.564  0.00  0.00    +0.122 C 
ATOM      9  C   UNL     1       0.855  -2.794   3.617  0.00  0.00    +0.228 C 
ATOM     10  O   UNL     1      -0.334  -2.896   3.831  0.00  0.00    -0.275 OA
ATOM     11  C   UNL     1       1.560  -4.772   6.196  0.00  0.00    +0.004 A 
ATOM     12  C   UNL     1       1.544  -5.987   5.546  0.00  0.00    +0.008 A 
ATOM     13  C   UNL     1       0.811  -7.040   6.065  0.00  0.00    +0.004 A 
ATOM     14  C   UNL     1       0.097  -6.869   7.237  0.00  0.00    -0.046 A 
ATOM     15  C   UNL     1       0.112  -5.655   7.892  0.00  0.00    -0.026 A 
ATOM     16  C   UNL     1       0.847  -4.590   7.376  0.00  0.00    +0.042 A 
ATOM     17  N   UNL     1       1.018  -3.287   7.846  0.00  0.00    -0.283 N 
ATOM     18  C   UNL     1       1.816  -2.558   7.046  0.00  0.00    +0.243 C 
ATOM     19  O   UNL     1       2.138  -1.400   7.208  0.00  0.00    -0.273 OA
ATOM     20  C   UNL     1      -0.669  -5.480   9.169  0.00  0.00    +0.046 C 
ATOM     21  C   UNL     1      -0.702  -8.015   7.802  0.00  0.00    +0.044 C 
ATOM     22  H   UNL     1       3.960  -4.585   6.202  0.00  0.00    +0.123 HD
ATOM     23  H   UNL     1       0.608  -2.946   8.657  0.00  0.00    +0.155 HD
ENDROOT
BRANCH   1  24
ATOM     24  C   UNL     1       0.763  -2.041   1.233  0.00  0.00    +0.116 C 
BRANCH  24  25
ATOM     25  C   UNL     1       0.742  -0.511   1.242  0.00  0.00    +0.019 C 
BRANCH  25  27
ATOM     26  C   UNL     1      -0.019   1.526   0.010  0.00  0.00    +0.004 C 
ATOM     27  C   UNL     1       0.002  -0.004   0.002  0.00  0.00    -0.002 C 
ENDBRANCH  25  27
ENDBRANCH  24  25
ENDBRANCH   1  24
BRANCH   5  28
ATOM     28  C   UNL     1       4.623  -1.817   4.500  0.00  0.00    +0.028 C 
BRANCH  28  29
ATOM     29  C   UNL     1       5.889  -1.564   5.322  0.00  0.00    +0.097 C 
BRANCH  29  30
ATOM     30  C   UNL     1       6.260  -0.106   5.238  0.00  0.00    +0.211 C 
ATOM     31  O   UNL     1       5.579   0.656   4.586  0.00  0.00    -0.276 OA
ATOM     32  N   UNL     1       7.348   0.351   5.888  0.00  0.00    -0.329 N 
ATOM     33  H   UNL     1       7.893  -0.259   6.410  0.00  0.00    +0.145 HD
ATOM     34  H   UNL     1       7.587   1.290   5.835  0.00  0.00    +0.145 HD
ENDBRANCH  29  30
ENDBRANCH  28  29
ENDBRANCH   5  28
TORSDOF 6
