REMARK  Name = ZINC67125423
REMARK  8 active torsions:
REMARK  status: ('A' for Active; 'I' for Inactive)
REMARK    1  A    between atoms: C_1  and  C_2
REMARK    2  A    between atoms: C_5  and  N_11
REMARK    3  A    between atoms: C_7  and  N_8
REMARK    4  A    between atoms: C_12  and  C_14
REMARK    5  A    between atoms: C_14  and  C_15
REMARK    6  A    between atoms: C_15  and  C_16
REMARK    7  A    between atoms: C_16  and  C_17
REMARK    8  A    between atoms: C_17  and  C_18
REMARK                            x       y       z     vdW  Elec       q    Type
REMARK                         _______ _______ _______ _____ _____    ______ ____
ROOT
ATOM      1  C   UNL     1       0.800  -6.196  -1.801  0.00  0.00    +0.096 C 
ENDROOT
BRANCH   1   3
ATOM      2  N   UNL     1       0.442  -4.255  -0.310  0.00  0.00    -0.285 N 
ATOM      3  C   UNL     1       0.446  -4.750  -1.564  0.00  0.00    +0.217 C 
ATOM      4  O   UNL     1       0.165  -4.033  -2.501  0.00  0.00    -0.275 OA
ATOM      5  H   UNL     1       0.601  -4.843   0.444  0.00  0.00    +0.155 HD
BRANCH   2  10
ATOM      6  C   UNL     1      -0.508   1.272   0.552  0.00  0.00    +0.046 C 
ATOM      7  C   UNL     1      -0.256  -0.196   0.323  0.00  0.00    -0.020 A 
ATOM      8  C   UNL     1      -0.900  -0.854  -0.710  0.00  0.00    +0.007 A 
ATOM      9  C   UNL     1      -0.670  -2.199  -0.922  0.00  0.00    +0.024 A 
ATOM     10  C   UNL     1       0.207  -2.892  -0.098  0.00  0.00    +0.036 A 
ATOM     11  C   UNL     1       0.852  -2.228   0.938  0.00  0.00    +0.056 A 
ATOM     12  C   UNL     1       0.622  -0.881   1.142  0.00  0.00    +0.131 A 
BRANCH  12  13
ATOM     13  N   UNL     1       1.313  -0.172   2.242  0.00  0.00    +0.057 N 
ATOM     14  O   UNL     1       1.692   0.965   2.084  0.00  0.00    -0.126 OA
ATOM     15  O   UNL     1       1.499  -0.730   3.298  0.00  0.00    -0.126 OA
ENDBRANCH  12  13
ENDBRANCH   2  10
ENDBRANCH   1   3
BRANCH   1  16
ATOM     16  C   UNL     1       0.729  -6.499  -3.299  0.00  0.00    +0.009 C 
BRANCH  16  17
ATOM     17  C   UNL     1       1.088  -7.966  -3.540  0.00  0.00    +0.002 C 
BRANCH  17  18
ATOM     18  C   UNL     1       1.018  -8.269  -5.038  0.00  0.00    +0.016 C 
BRANCH  18  19
ATOM     19  C   UNL     1       1.377  -9.737  -5.279  0.00  0.00    +0.069 C 
ATOM     20  C   UNL     1       1.275 -10.093  -6.778  0.00  0.00    +0.108 C 
ATOM     21  C   UNL     1       2.386 -11.030  -7.264  0.00  0.00    +0.105 C 
ATOM     22  C   UNL     1       3.381 -11.439  -6.157  0.00  0.00    +0.093 C 
ATOM     23  S   UNL     1       3.167 -10.043  -4.951  0.00  0.00    -0.154 S 
ATOM     24  N   UNL     1       1.667 -12.229  -7.721  0.00  0.00    -0.294 N 
ATOM     25  C   UNL     1       0.352 -12.046  -7.540  0.00  0.00    +0.300 C 
ATOM     26  O   UNL     1      -0.481 -12.882  -7.832  0.00  0.00    -0.253 OA
ATOM     27  N   UNL     1       0.043 -10.865  -7.006  0.00  0.00    -0.294 N 
ATOM     28  H   UNL     1       2.078 -13.025  -8.093  0.00  0.00    +0.151 HD
ATOM     29  H   UNL     1      -0.856 -10.563  -6.803  0.00  0.00    +0.151 HD
ENDBRANCH  18  19
ENDBRANCH  17  18
ENDBRANCH  16  17
ENDBRANCH   1  16
TORSDOF 7
