REMARK  Name = ZINC63708185
REMARK  11 active torsions:
REMARK  status: ('A' for Active; 'I' for Inactive)
REMARK    1  A    between atoms: C_1  and  C_2
REMARK    2  A    between atoms: C_2  and  O_3
REMARK    3  A    between atoms: O_3  and  C_4
REMARK    4  A    between atoms: C_4  and  C_6
REMARK    5  A    between atoms: C_6  and  S_7
REMARK    6  A    between atoms: S_7  and  C_8
REMARK    7  A    between atoms: C_20  and  C_22
REMARK    8  A    between atoms: C_22  and  C_23
REMARK    9  A    between atoms: C_23  and  C_24
REMARK   10  A    between atoms: C_25  and  C_31
REMARK   11  A    between atoms: C_28  and  C_30
REMARK                            x       y       z     vdW  Elec       q    Type
REMARK                         _______ _______ _______ _____ _____    ______ ____
ROOT
ATOM      1  C   UNL     1      -4.489  -4.790   0.019  0.00  0.00    +0.248 C 
ATOM      2  N   UNL     1      -5.080  -4.362   1.293  0.00  0.00    -0.356 N 
ATOM      3  C   UNL     1      -6.155  -3.586   1.288  0.00  0.00    +0.048 A 
ATOM      4  C   UNL     1      -6.740  -3.162   2.502  0.00  0.00    +0.026 A 
ATOM      5  C   UNL     1      -7.843  -2.367   2.474  0.00  0.00    +0.002 A 
ATOM      6  C   UNL     1      -8.415  -1.955   1.273  0.00  0.00    +0.001 A 
ATOM      7  C   UNL     1      -7.900  -2.330   0.070  0.00  0.00    +0.013 A 
ATOM      8  C   UNL     1      -6.761  -3.151   0.026  0.00  0.00    +0.038 A 
ATOM      9  C   UNL     1      -6.212  -3.549  -1.210  0.00  0.00    +0.128 C 
ATOM     10  N   UNL     1      -5.101  -4.350  -1.234  0.00  0.00    -0.204 N 
ATOM     11  N   UNL     1      -4.801  -4.568  -2.584  0.00  0.00    -0.249 N 
ATOM     12  C   UNL     1      -5.732  -3.898  -3.298  0.00  0.00    +0.090 C 
ATOM     13  N   UNL     1      -6.559  -3.300  -2.478  0.00  0.00    -0.332 N 
ATOM     14  H   UNL     1      -4.069  -5.097  -2.937  0.00  0.00    +0.171 HD
ATOM     15  H   UNL     1      -4.686  -4.645   2.133  0.00  0.00    +0.162 HD
ATOM     16  H   UNL     1      -7.314  -2.756  -2.751  0.00  0.00    +0.168 HD
ENDROOT
BRANCH   1  17
ATOM     17  S   UNL     1      -2.761  -4.237   0.006  0.00  0.00    -0.104 S 
BRANCH  17  18
ATOM     18  C   UNL     1      -2.881  -2.427   0.017  0.00  0.00    +0.193 C 
BRANCH  18  19
ATOM     19  C   UNL     1      -1.496  -1.832   0.006  0.00  0.00    +0.317 C 
ATOM     20  O   UNL     1      -0.528  -2.555  -0.007  0.00  0.00    -0.250 OA
BRANCH  19  21
ATOM     21  O   UNL     1      -1.339  -0.499   0.012  0.00  0.00    -0.464 OA
BRANCH  21  23
ATOM     22  C   UNL     1      -0.019   1.526   0.010  0.00  0.00    +0.048 C 
ATOM     23  C   UNL     1       0.002  -0.004   0.002  0.00  0.00    +0.229 C 
ENDBRANCH  21  23
ENDBRANCH  19  21
ENDBRANCH  18  19
ENDBRANCH  17  18
ENDBRANCH   1  17
BRANCH  12  24
ATOM     24  C   UNL     1      -5.806  -3.845  -4.802  0.00  0.00    +0.075 C 
BRANCH  24  25
ATOM     25  C   UNL     1      -6.675  -4.998  -5.311  0.00  0.00    +0.042 C 
BRANCH  25  26
ATOM     26  C   UNL     1      -6.749  -4.945  -6.815  0.00  0.00    -0.021 C 
ATOM     27  C   UNL     1      -5.999  -5.607  -7.699  0.00  0.00    +0.061 C 
ATOM     28  N   UNL     1      -6.364  -5.299  -8.963  0.00  0.00    -0.159 NA
ATOM     29  N   UNL     1      -7.291  -4.490  -9.046  0.00  0.00    -0.180 NA
ATOM     30  C   UNL     1      -7.699  -4.133  -7.677  0.00  0.00    +0.153 C 
ATOM     31  C   UNL     1      -7.505  -2.635  -7.432  0.00  0.00    +0.039 C 
ATOM     32  C   UNL     1      -4.895  -6.566  -7.336  0.00  0.00    +0.067 C 
ENDBRANCH  25  26
ENDBRANCH  24  25
ENDBRANCH  12  24
TORSDOF 8
