REMARK  Name = ZINC64502972
REMARK  3 active torsions:
REMARK  status: ('A' for Active; 'I' for Inactive)
REMARK    1  A    between atoms: C_4  and  N_7
REMARK    2  A    between atoms: C_12  and  N_15
REMARK    3  A    between atoms: C_21  and  C_23
REMARK                            x       y       z     vdW  Elec       q    Type
REMARK                         _______ _______ _______ _____ _____    ______ ____
ROOT
ATOM      1  N   UNL     1       4.795  -3.972   0.778  0.00  0.00    -0.280 NA
ATOM      2  C   UNL     1       3.476  -4.563   1.035  0.00  0.00    +0.105 C 
ATOM      3  C   UNL     1       3.530  -6.068   0.752  0.00  0.00    +0.123 C 
ATOM      4  N   UNL     1       4.634  -6.650   1.529  0.00  0.00    -0.297 N 
ATOM      5  C   UNL     1       5.961  -6.025   1.429  0.00  0.00    +0.123 C 
ATOM      6  C   UNL     1       5.812  -4.521   1.685  0.00  0.00    +0.105 C 
ATOM      7  C   UNL     1       4.435  -7.729   2.312  0.00  0.00    +0.242 C 
ATOM      8  O   UNL     1       3.334  -8.232   2.383  0.00  0.00    -0.273 OA
ENDROOT
BRANCH   7   9
ATOM      9  C   UNL     1       5.581  -8.309   3.100  0.00  0.00    +0.190 C 
ATOM     10  C   UNL     1       6.096  -7.295   4.097  0.00  0.00    +0.016 C 
ATOM     11  C   UNL     1       5.925  -7.850   5.319  0.00  0.00    -0.004 A 
ATOM     12  C   UNL     1       6.221  -7.376   6.676  0.00  0.00    +0.010 A 
ATOM     13  C   UNL     1       5.931  -8.175   7.728  0.00  0.00    +0.001 A 
ATOM     14  C   UNL     1       5.356  -9.442   7.554  0.00  0.00    +0.002 A 
ATOM     15  C   UNL     1       5.056  -9.946   6.339  0.00  0.00    +0.026 A 
ATOM     16  C   UNL     1       5.318  -9.191   5.162  0.00  0.00    +0.043 A 
ATOM     17  N   UNL     1       5.121  -9.456   3.892  0.00  0.00    -0.370 N 
ATOM     18  H   UNL     1       4.737 -10.272   3.536  0.00  0.00    +0.161 HD
ENDBRANCH   7   9
BRANCH   1  24
ATOM     19  N   UNL     1       3.621  -0.650  -0.037  0.00  0.00    -0.200 N 
ATOM     20  C   UNL     1       4.771   0.047  -0.142  0.00  0.00    +0.257 C 
ATOM     21  O   UNL     1       4.752   1.257  -0.261  0.00  0.00    -0.269 OA
ATOM     22  C   UNL     1       6.052  -0.684  -0.109  0.00  0.00    +0.068 C 
ATOM     23  C   UNL     1       6.047  -1.927   0.381  0.00  0.00    +0.014 C 
ATOM     24  C   UNL     1       4.743  -2.507   0.871  0.00  0.00    +0.166 C 
ATOM     25  N   UNL     1       3.635  -2.008   0.058  0.00  0.00    -0.212 NA
ATOM     26  H   UNL     1       3.640  -2.435  -0.856  0.00  0.00    +0.147 HD
BRANCH  19  30
ATOM     27  C   UNL     1      -0.016   1.379   0.010  0.00  0.00    +0.000 A 
ATOM     28  C   UNL     1       1.018   1.798   0.827  0.00  0.00    +0.002 A 
ATOM     29  C   UNL     1       2.225   1.127   0.814  0.00  0.00    +0.025 A 
ATOM     30  C   UNL     1       2.400   0.031  -0.021  0.00  0.00    +0.053 A 
ATOM     31  C   UNL     1       1.359  -0.387  -0.841  0.00  0.00    +0.025 A 
ATOM     32  C   UNL     1       0.154   0.289  -0.823  0.00  0.00    +0.002 A 
ENDBRANCH  19  30
ENDBRANCH   1  24
TORSDOF 3
