REMARK  Name = ZINC09768017
REMARK  7 active torsions:
REMARK  status: ('A' for Active; 'I' for Inactive)
REMARK    1  A    between atoms: C_1  and  C_2
REMARK    2  A    between atoms: C_5  and  C_8
REMARK    3  A    between atoms: C_11  and  S_20
REMARK    4  A    between atoms: N_12  and  C_13
REMARK    5  A    between atoms: S_20  and  C_21
REMARK    6  A    between atoms: C_21  and  C_22
REMARK    7  A    between atoms: C_22  and  C_24
REMARK                            x       y       z     vdW  Elec       q    Type
REMARK                         _______ _______ _______ _____ _____    ______ ____
ROOT
ATOM      1  C   UNL     1       1.212   1.747  -0.000  0.00  0.00    +0.169 A 
ATOM      2  N   UNL     1      -0.015   1.281   0.009  0.00  0.00    -0.128 NA
ATOM      3  N   UNL     1       0.002  -0.004   0.002  0.00  0.00    -0.122 NA
ATOM      4  C   UNL     1       1.242  -0.440  -0.012  0.00  0.00    +0.197 A 
ATOM      5  N   UNL     1       2.057   0.659  -0.014  0.00  0.00    -0.270 N 
ENDROOT
BRANCH   1  10
ATOM      6  C   UNL     1       2.767   7.287   0.012  0.00  0.00    +0.044 C 
ATOM      7  C   UNL     1       2.360   5.836   0.009  0.00  0.00    -0.050 A 
ATOM      8  C   UNL     1       1.061   5.485   0.331  0.00  0.00    +0.004 A 
ATOM      9  C   UNL     1       0.681   4.158   0.330  0.00  0.00    +0.012 A 
ATOM     10  C   UNL     1       1.611   3.170   0.003  0.00  0.00    +0.020 A 
ATOM     11  C   UNL     1       2.922   3.531  -0.315  0.00  0.00    +0.012 A 
ATOM     12  C   UNL     1       3.287   4.862  -0.315  0.00  0.00    +0.004 A 
ENDBRANCH   1  10
BRANCH   5  13
ATOM     13  C   UNL     1       3.459   0.675  -0.028  0.00  0.00    +0.051 A 
ATOM     14  C   UNL     1       4.159   1.190   1.055  0.00  0.00    +0.028 A 
ATOM     15  C   UNL     1       5.540   1.200   1.041  0.00  0.00    +0.022 A 
ATOM     16  C   UNL     1       6.226   0.707  -0.055  0.00  0.00    +0.041 A 
ATOM     17  C   UNL     1       5.530   0.197  -1.138  0.00  0.00    +0.022 A 
ATOM     18  C   UNL     1       4.149   0.180  -1.126  0.00  0.00    +0.028 A 
ATOM     19 CL   UNL     1       7.962   0.727  -0.073  0.00  0.00    -0.084 Cl
ENDBRANCH   5  13
BRANCH   4  20
ATOM     20  S   UNL     1       1.758  -2.124  -0.027  0.00  0.00    -0.078 S 
BRANCH  20  21
ATOM     21  C   UNL     1       0.146  -2.947  -0.015  0.00  0.00    +0.157 C 
BRANCH  21  22
ATOM     22  C   UNL     1       0.345  -4.441  -0.026  0.00  0.00    +0.173 C 
ATOM     23  O   UNL     1       1.466  -4.904  -0.039  0.00  0.00    -0.291 OA
BRANCH  22  24
ATOM     24  C   UNL     1      -0.819  -5.337  -0.019  0.00  0.00    +0.020 A 
ATOM     25  C   UNL     1      -2.114  -4.804   0.002  0.00  0.00    +0.015 A 
ATOM     26  C   UNL     1      -3.206  -5.644   0.004  0.00  0.00    +0.048 A 
ATOM     27  C   UNL     1      -3.026  -7.020  -0.006  0.00  0.00    +0.142 A 
ATOM     28  C   UNL     1      -1.737  -7.559  -0.022  0.00  0.00    +0.076 A 
ATOM     29  C   UNL     1      -0.637  -6.725  -0.029  0.00  0.00    +0.038 A 
ATOM     30  N   UNL     1      -1.577  -8.953  -0.031  0.00  0.00    -0.280 N 
ATOM     31  C   UNL     1      -2.637  -9.730  -0.341  0.00  0.00    +0.255 C 
ATOM     32  O   UNL     1      -2.530 -10.939  -0.326  0.00  0.00    -0.272 OA
ATOM     33  C   UNL     1      -3.952  -9.091  -0.706  0.00  0.00    +0.325 C 
ATOM     34  O   UNL     1      -4.097  -7.855  -0.002  0.00  0.00    -0.481 OA
ATOM     35  H   UNL     1      -0.719  -9.351   0.182  0.00  0.00    +0.155 HD
ENDBRANCH  22  24
ENDBRANCH  21  22
ENDBRANCH  20  21
ENDBRANCH   4  20
TORSDOF 6
