REMARK  Name = ZINC00658631
REMARK  10 active torsions:
REMARK  status: ('A' for Active; 'I' for Inactive)
REMARK    1  A    between atoms: C_1  and  C_2
REMARK    2  A    between atoms: C_2  and  C_30
REMARK    3  A    between atoms: C_6  and  C_14
REMARK    4  A    between atoms: C_8  and  C_12
REMARK    5  A    between atoms: C_9  and  N_11
REMARK    6  A    between atoms: C_17  and  O_22
REMARK    7  A    between atoms: C_18  and  O_20
REMARK    8  A    between atoms: O_20  and  C_21
REMARK    9  A    between atoms: O_22  and  C_23
REMARK   10  A    between atoms: C_23  and  C_24
REMARK                            x       y       z     vdW  Elec       q    Type
REMARK                         _______ _______ _______ _____ _____    ______ ____
ROOT
ATOM      1  C   UNL     1       2.172   7.559   3.092  0.00  0.00    +0.012 C 
ATOM      2  C   UNL     1       2.961   8.246   1.975  0.00  0.00    -0.021 C 
ATOM      3  C   UNL     1       2.014   9.093   1.123  0.00  0.00    +0.081 C 
ATOM      4  C   UNL     1       0.966   8.205   0.493  0.00  0.00    +0.115 C 
ATOM      5  C   UNL     1       1.251   6.931   0.169  0.00  0.00    +0.046 C 
ATOM      6  C   UNL     1       0.206   6.050  -0.474  0.00  0.00    +0.101 C 
ATOM      7  C   UNL     1      -0.895   6.894  -1.052  0.00  0.00    +0.098 C 
ATOM      8  C   UNL     1      -1.060   8.177  -0.650  0.00  0.00    +0.198 C 
ATOM      9  O   UNL     1      -0.254   8.729   0.271  0.00  0.00    -0.445 OA
ATOM     10  C   UNL     1       2.522   6.378   0.418  0.00  0.00    +0.164 C 
ATOM     11  O   UNL     1       2.746   5.229   0.097  0.00  0.00    -0.292 OA
ATOM     12  C   UNL     1       3.607   7.187   1.075  0.00  0.00    +0.086 C 
ATOM     13  C   UNL     1       4.047   9.135   2.584  0.00  0.00    +0.012 C 
ENDROOT
BRANCH   6  14
ATOM     14  C   UNL     1      -0.368   5.119   0.562  0.00  0.00    -0.031 A 
ATOM     15  C   UNL     1      -1.003   5.634   1.677  0.00  0.00    +0.008 A 
ATOM     16  C   UNL     1      -1.532   4.784   2.629  0.00  0.00    +0.050 A 
ATOM     17  C   UNL     1      -1.427   3.411   2.468  0.00  0.00    +0.163 A 
ATOM     18  C   UNL     1      -0.787   2.893   1.346  0.00  0.00    +0.162 A 
ATOM     19  C   UNL     1      -0.254   3.751   0.398  0.00  0.00    +0.054 A 
BRANCH  18  20
ATOM     20  O   UNL     1      -0.682   1.547   1.184  0.00  0.00    -0.491 OA
ATOM     21  C   UNL     1      -0.013   1.086   0.008  0.00  0.00    +0.277 C 
ENDBRANCH  18  20
BRANCH  17  22
ATOM     22  O   UNL     1      -1.946   2.574   3.405  0.00  0.00    -0.479 OA
BRANCH  22  23
ATOM     23  C   UNL     1      -2.588   3.176   4.530  0.00  0.00    +0.324 C 
BRANCH  23  24
ATOM     24  C   UNL     1      -3.098   2.100   5.454  0.00  0.00    +0.248 C 
ATOM     25  O   UNL     1      -2.928   0.932   5.176  0.00  0.00    -0.272 OA
ATOM     26  N   UNL     1      -3.743   2.436   6.589  0.00  0.00    -0.327 N 
ATOM     27  H   UNL     1      -3.878   3.371   6.811  0.00  0.00    +0.145 HD
ATOM     28  H   UNL     1      -4.071   1.744   7.184  0.00  0.00    +0.145 HD
ENDBRANCH  23  24
ENDBRANCH  22  23
ENDBRANCH  17  22
ENDBRANCH   6  14
BRANCH   8  29
ATOM     29  N   UNL     1      -2.071   8.929  -1.196  0.00  0.00    -0.328 N 
ATOM     30  H   UNL     1      -2.197   9.849  -0.915  0.00  0.00    +0.145 HD
ATOM     31  H   UNL     1      -2.659   8.540  -1.862  0.00  0.00    +0.145 HD
ENDBRANCH   8  29
BRANCH   7  32
ATOM     32  C   UNL     1      -1.777   6.337  -2.034  0.00  0.00    +0.101 C 
ATOM     33  N   UNL     1      -2.476   5.896  -2.813  0.00  0.00    -0.191 NA
ENDBRANCH   7  32
TORSDOF 7
