REMARK  Name = ZINC35492667
REMARK  11 active torsions:
REMARK  status: ('A' for Active; 'I' for Inactive)
REMARK    1  A    between atoms: C_1  and  C_2
REMARK    2  A    between atoms: N_8  and  C_9
REMARK    3  A    between atoms: C_9  and  C_10
REMARK    4  A    between atoms: C_10  and  C_11
REMARK    5  A    between atoms: C_11  and  N_12
REMARK    6  A    between atoms: C_13  and  C_15
REMARK    7  A    between atoms: C_15  and  N_16
REMARK    8  A    between atoms: N_23  and  S_26
REMARK    9  A    between atoms: S_26  and  C_29
REMARK   10  A    between atoms: C_32  and  O_35
REMARK   11  A    between atoms: O_35  and  C_36
REMARK                            x       y       z     vdW  Elec       q    Type
REMARK                         _______ _______ _______ _____ _____    ______ ____
ROOT
ATOM      1  N   UNL     1       8.138   0.475   5.344  0.00  0.00    -0.282 N 
ATOM      2  C   UNL     1       9.290  -0.131   4.849  0.00  0.00    +0.072 A 
ATOM      3  C   UNL     1       9.535  -1.347   4.230  0.00  0.00    +0.028 A 
ATOM      4  C   UNL     1      10.819  -1.676   3.843  0.00  0.00    +0.002 A 
ATOM      5  C   UNL     1      11.864  -0.796   4.072  0.00  0.00    +0.002 A 
ATOM      6  C   UNL     1      11.630   0.417   4.689  0.00  0.00    +0.030 A 
ATOM      7  C   UNL     1      10.344   0.756   5.080  0.00  0.00    +0.094 A 
ATOM      8  N   UNL     1       9.799   1.874   5.707  0.00  0.00    -0.159 N 
ATOM      9  C   UNL     1       8.474   1.678   5.847  0.00  0.00    +0.351 A 
ATOM     10  O   UNL     1       7.698   2.467   6.353  0.00  0.00    -0.245 OA
ENDROOT
BRANCH   8  11
ATOM     11  S   UNL     1      10.636   3.217   6.192  0.00  0.00    +0.088 S 
ATOM     12  O   UNL     1       9.875   3.818   7.231  0.00  0.00    -0.147 OA
ATOM     13  O   UNL     1      11.986   2.811   6.375  0.00  0.00    -0.147 OA
BRANCH  11  14
ATOM     14  C   UNL     1      10.629   4.351   4.844  0.00  0.00    +0.111 A 
ATOM     15  C   UNL     1      11.639   4.307   3.900  0.00  0.00    +0.032 A 
ATOM     16  C   UNL     1      11.636   5.195   2.842  0.00  0.00    +0.047 A 
ATOM     17  C   UNL     1      10.618   6.131   2.726  0.00  0.00    +0.120 A 
ATOM     18  C   UNL     1       9.606   6.173   3.674  0.00  0.00    +0.047 A 
ATOM     19  C   UNL     1       9.611   5.279   4.727  0.00  0.00    +0.032 A 
BRANCH  17  20
ATOM     20  O   UNL     1      10.614   7.006   1.686  0.00  0.00    -0.495 OA
ATOM     21  C   UNL     1       9.535   7.942   1.631  0.00  0.00    +0.277 C 
ENDBRANCH  17  20
ENDBRANCH  11  14
ENDBRANCH   8  11
BRANCH   1  22
ATOM     22  C   UNL     1       6.789  -0.096   5.316  0.00  0.00    +0.222 C 
BRANCH  22  24
ATOM     23  N   UNL     1       4.842  -0.112   3.791  0.00  0.00    -0.314 N 
ATOM     24  C   UNL     1       6.101   0.302   4.036  0.00  0.00    +0.233 C 
ATOM     25  O   UNL     1       6.680   0.995   3.227  0.00  0.00    -0.274 OA
ATOM     26  H   UNL     1       4.379  -0.666   4.439  0.00  0.00    +0.149 HD
BRANCH  23  27
ATOM     27  C   UNL     1       4.173   0.276   2.547  0.00  0.00    +0.102 C 
BRANCH  27  28
ATOM     28  C   UNL     1       2.764  -0.321   2.518  0.00  0.00    +0.000 C 
BRANCH  28  29
ATOM     29  C   UNL     1       2.066   0.083   1.218  0.00  0.00    -0.077 C 
BRANCH  29  36
ATOM     30  C   UNL     1      -0.019   1.526   0.010  0.00  0.00    -0.013 C 
ATOM     31  C   UNL     1       0.002  -0.004   0.002  0.00  0.00    -0.072 C 
ATOM     32  C   UNL     1      -1.434  -0.533   0.011  0.00  0.00    -0.016 C 
ATOM     33  C   UNL     1      -1.408  -2.064   0.003  0.00  0.00    -0.003 C 
ATOM     34  C   UNL     1      -0.600  -2.558   1.206  0.00  0.00    -0.019 C 
ATOM     35  C   UNL     1       0.805  -1.954   1.152  0.00  0.00    -0.078 C 
ATOM     36  N   UNL     1       0.713  -0.490   1.191  0.00  0.00    +0.381 N 
ATOM     37  H   UNL     1       0.213  -0.206   2.020  0.00  0.00    -0.081 HD
ENDBRANCH  29  36
ENDBRANCH  28  29
ENDBRANCH  27  28
ENDBRANCH  23  27
ENDBRANCH  22  24
ENDBRANCH   1  22
TORSDOF 9
