REMARK  Name = ZINC32911907
REMARK  8 active torsions:
REMARK  status: ('A' for Active; 'I' for Inactive)
REMARK    1  A    between atoms: C_1  and  O_2
REMARK    2  A    between atoms: O_2  and  C_3
REMARK    3  A    between atoms: C_3  and  C_5
REMARK    4  A    between atoms: C_5  and  C_7
REMARK    5  A    between atoms: C_5  and  N_14
REMARK    6  A    between atoms: N_17  and  S_20
REMARK    7  A    between atoms: S_20  and  C_23
REMARK    8  A    between atoms: C_27  and  C_29
REMARK                            x       y       z     vdW  Elec       q    Type
REMARK                         _______ _______ _______ _____ _____    ______ ____
ROOT
ATOM      1  N   UNL     1      -0.101   5.945  -4.328  0.00  0.00    +0.393 N 
ATOM      2  C   UNL     1      -1.284   5.526  -3.564  0.00  0.00    -0.060 C 
ATOM      3  C   UNL     1      -1.329   6.292  -2.238  0.00  0.00    +0.091 C 
ATOM      4  N   UNL     1      -0.044   6.106  -1.546  0.00  0.00    -0.180 NA
ATOM      5  C   UNL     1       1.193   6.382  -2.292  0.00  0.00    +0.091 C 
ATOM      6  C   UNL     1       1.140   5.606  -3.618  0.00  0.00    -0.060 C 
ATOM      7  H   UNL     1      -0.139   7.040  -4.430  0.00  0.00    -0.080 HD
ENDROOT
BRANCH   4   8
ATOM      8  S   UNL     1       0.007   5.607   0.032  0.00  0.00    +0.061 S 
ATOM      9  O   UNL     1      -1.238   5.969   0.613  0.00  0.00    -0.153 OA
ATOM     10  O   UNL     1       1.250   6.051   0.558  0.00  0.00    -0.153 OA
BRANCH   8  11
ATOM     11  C   UNL     1       0.065   3.846   0.019  0.00  0.00    +0.107 A 
ATOM     12  C   UNL     1       1.286   3.196  -0.012  0.00  0.00    +0.028 A 
ATOM     13  C   UNL     1       1.341   1.814  -0.021  0.00  0.00    +0.003 A 
ATOM     14  C   UNL     1       0.176   1.074   0.000  0.00  0.00    +0.019 A 
ATOM     15  C   UNL     1      -1.059   1.724   0.026  0.00  0.00    +0.054 A 
ATOM     16  C   UNL     1      -1.107   3.119   0.042  0.00  0.00    +0.047 A 
BRANCH  15  17
ATOM     17  C   UNL     1      -2.272   0.962   0.042  0.00  0.00    +0.099 C 
ATOM     18  N   UNL     1      -3.234   0.358   0.055  0.00  0.00    -0.191 NA
ENDBRANCH  15  17
ENDBRANCH   8  11
ENDBRANCH   4   8
BRANCH   1  19
ATOM     19  C   UNL     1      -0.111   5.363  -5.677  0.00  0.00    +0.073 C 
BRANCH  19  20
ATOM     20  C   UNL     1       1.072   5.878  -6.455  0.00  0.00    -0.050 A 
ATOM     21  C   UNL     1       2.243   5.144  -6.498  0.00  0.00    +0.004 A 
ATOM     22  C   UNL     1       3.327   5.613  -7.216  0.00  0.00    +0.020 A 
ATOM     23  C   UNL     1       3.243   6.822  -7.883  0.00  0.00    +0.041 A 
ATOM     24  C   UNL     1       2.073   7.559  -7.835  0.00  0.00    +0.020 A 
ATOM     25  C   UNL     1       0.988   7.086  -7.121  0.00  0.00    +0.004 A 
ATOM     26 CL   UNL     1       4.607   7.415  -8.780  0.00  0.00    -0.084 Cl
ENDBRANCH  19  20
BRANCH  19  27
ATOM     27  C   UNL     1      -0.032   3.862  -5.576  0.00  0.00    +0.297 C 
ATOM     28  O   UNL     1       0.027   3.331  -4.493  0.00  0.00    -0.252 OA
BRANCH  27  30
ATOM     29  C   UNL     1       0.051   1.675  -6.519  0.00  0.00    +0.280 C 
ATOM     30  O   UNL     1      -0.027   3.114  -6.691  0.00  0.00    -0.469 OA
ENDBRANCH  27  30
ENDBRANCH  19  27
ENDBRANCH   1  19
TORSDOF 7
