REMARK  Name = ZINC12491994
REMARK  8 active torsions:
REMARK  status: ('A' for Active; 'I' for Inactive)
REMARK    1  A    between atoms: C_1  and  O_2
REMARK    2  A    between atoms: O_2  and  C_3
REMARK    3  A    between atoms: C_7  and  C_11
REMARK    4  A    between atoms: C_8  and  O_9
REMARK    5  A    between atoms: O_9  and  C_10
REMARK    6  A    between atoms: N_15  and  C_31
REMARK    7  A    between atoms: C_17  and  C_18
REMARK    8  A    between atoms: C_17  and  C_20
REMARK                            x       y       z     vdW  Elec       q    Type
REMARK                         _______ _______ _______ _____ _____    ______ ____
ROOT
ATOM      1  C   UNL     1      -2.395   2.059   1.267  0.00  0.00    +0.032 C 
ATOM      2  C   UNL     1      -3.626   2.358   0.777  0.00  0.00    +0.080 A 
ATOM      3  C   UNL     1      -4.876   1.578   0.846  0.00  0.00    +0.270 A 
ATOM      4  O   UNL     1      -4.920   0.495   1.400  0.00  0.00    -0.266 OA
ATOM      5  N   UNL     1      -5.946   2.109   0.279  0.00  0.00    -0.269 N 
ATOM      6  C   UNL     1      -5.877   3.335  -0.343  0.00  0.00    +0.109 A 
ATOM      7  C   UNL     1      -6.891   4.038  -0.983  0.00  0.00    +0.127 C 
ATOM      8  S   UNL     1      -4.169   3.807  -0.118  0.00  0.00    -0.064 S 
ENDROOT
BRANCH   7   9
ATOM      9  C   UNL     1      -6.580   5.280  -1.712  0.00  0.00    +0.177 A 
ATOM     10  N   UNL     1      -5.393   5.845  -1.835  0.00  0.00    -0.128 NA
ATOM     11  N   UNL     1      -5.491   6.913  -2.545  0.00  0.00    -0.134 NA
ATOM     12  C   UNL     1      -6.727   7.097  -2.909  0.00  0.00    +0.134 A 
ATOM     13  N   UNL     1      -7.464   6.074  -2.385  0.00  0.00    -0.310 N 
ATOM     14  C   UNL     1      -8.908   5.886  -2.516  0.00  0.00    +0.125 C 
ATOM     15  C   UNL     1      -9.386   6.524  -3.823  0.00  0.00    +0.022 C 
ATOM     16  C   UNL     1      -9.753   7.987  -3.578  0.00  0.00    +0.002 C 
ATOM     17  C   UNL     1      -8.537   8.774  -3.101  0.00  0.00    +0.008 C 
ATOM     18  C   UNL     1      -7.271   8.216  -3.760  0.00  0.00    +0.076 C 
ENDBRANCH   7   9
BRANCH   1  23
ATOM     19  C   UNL     1       1.029   3.613   1.275  0.00  0.00    +0.162 A 
ATOM     20  C   UNL     1       0.961   4.399   0.135  0.00  0.00    +0.049 A 
ATOM     21  C   UNL     1      -0.193   4.427  -0.630  0.00  0.00    +0.004 A 
ATOM     22  C   UNL     1      -1.287   3.672  -0.267  0.00  0.00    +0.012 A 
ATOM     23  C   UNL     1      -1.234   2.869   0.879  0.00  0.00    +0.022 A 
ATOM     24  C   UNL     1      -0.066   2.846   1.656  0.00  0.00    +0.169 A 
BRANCH  19  26
ATOM     25  C   UNL     1       3.252   4.405   1.570  0.00  0.00    +0.277 C 
ATOM     26  O   UNL     1       2.166   3.592   2.020  0.00  0.00    -0.491 OA
ENDBRANCH  19  26
BRANCH  24  27
ATOM     27  O   UNL     1      -0.003   2.074   2.772  0.00  0.00    -0.491 OA
ATOM     28  C   UNL     1      -0.411   2.677   4.002  0.00  0.00    +0.277 C 
ENDBRANCH  24  27
ENDBRANCH   1  23
BRANCH   5  29
ATOM     29  C   UNL     1      -7.163   1.416   0.311  0.00  0.00    +0.051 A 
ATOM     30  C   UNL     1      -8.050   1.616   1.360  0.00  0.00    +0.026 A 
ATOM     31  C   UNL     1      -9.252   0.935   1.387  0.00  0.00    +0.002 A 
ATOM     32  C   UNL     1      -9.566   0.047   0.375  0.00  0.00    +0.000 A 
ATOM     33  C   UNL     1      -8.683  -0.159  -0.668  0.00  0.00    +0.002 A 
ATOM     34  C   UNL     1      -7.482   0.522  -0.703  0.00  0.00    +0.026 A 
ENDBRANCH   5  29
BRANCH   7  35
ATOM     35  C   UNL     1      -8.238   3.555  -0.935  0.00  0.00    +0.106 C 
ATOM     36  N   UNL     1      -9.307   3.172  -0.897  0.00  0.00    -0.191 NA
ENDBRANCH   7  35
TORSDOF 6
