REMARK  Name = ZINC49776190
REMARK  10 active torsions:
REMARK  status: ('A' for Active; 'I' for Inactive)
REMARK    1  A    between atoms: C_1  and  C_2
REMARK    2  A    between atoms: C_2  and  C_3
REMARK    3  A    between atoms: C_3  and  C_31
REMARK    4  A    between atoms: N_6  and  C_10
REMARK    5  A    between atoms: C_10  and  C_11
REMARK    6  A    between atoms: N_13  and  C_14
REMARK    7  A    between atoms: C_14  and  C_15
REMARK    8  A    between atoms: C_15  and  N_16
REMARK    9  A    between atoms: C_20  and  C_21
REMARK   10  A    between atoms: C_31  and  C_32
REMARK                            x       y       z     vdW  Elec       q    Type
REMARK                         _______ _______ _______ _____ _____    ______ ____
ROOT
ATOM      1  C   UNL     1      -5.052   2.684   2.570  0.00  0.00    +0.231 C 
ATOM      2  O   UNL     1      -3.915   2.740   2.153  0.00  0.00    -0.274 OA
ATOM      3  N   UNL     1      -5.634   3.783   3.091  0.00  0.00    -0.312 N 
ATOM      4  H   UNL     1      -6.544   3.738   3.424  0.00  0.00    +0.149 HD
ENDROOT
BRANCH   1   5
ATOM      5  C   UNL     1      -5.815   1.386   2.506  0.00  0.00    +0.213 C 
BRANCH   5   9
ATOM      6  C   UNL     1      -3.487  -1.354   1.575  0.00  0.00    +0.112 C 
ATOM      7  C   UNL     1      -4.150  -0.457   2.602  0.00  0.00    +0.247 C 
ATOM      8  O   UNL     1      -3.978  -0.466   3.802  0.00  0.00    -0.273 OA
ATOM      9  N   UNL     1      -4.971   0.352   1.903  0.00  0.00    -0.215 N 
ATOM     10  C   UNL     1      -4.919   0.095   0.592  0.00  0.00    +0.310 C 
ATOM     11  O   UNL     1      -5.570   0.695  -0.241  0.00  0.00    -0.252 OA
ATOM     12  N   UNL     1      -4.066  -0.903   0.297  0.00  0.00    -0.285 N 
ATOM     13  H   UNL     1      -3.869  -1.256  -0.585  0.00  0.00    +0.151 HD
BRANCH   6  15
ATOM     14  C   UNL     1      -1.655   0.332   1.373  0.00  0.00    +0.006 C 
ATOM     15  C   UNL     1      -1.971  -1.150   1.581  0.00  0.00    +0.032 C 
ENDBRANCH   6  15
BRANCH   6  16
ATOM     16  C   UNL     1      -3.833  -2.822   1.834  0.00  0.00    +0.032 C 
ATOM     17  C   UNL     1      -5.344  -3.021   1.699  0.00  0.00    +0.006 C 
ENDBRANCH   6  16
ENDBRANCH   5   9
ENDBRANCH   1   5
BRANCH   3  18
ATOM     18  C   UNL     1      -4.892   5.045   3.153  0.00  0.00    +0.123 C 
BRANCH  18  19
ATOM     19  C   UNL     1      -5.774   6.125   3.783  0.00  0.00    +0.136 C 
BRANCH  19  20
ATOM     20  N   UNL     1      -5.032   7.386   3.845  0.00  0.00    -0.227 N 
ATOM     21  C   UNL     1      -4.304   7.656   4.915  0.00  0.00    +0.260 C 
ATOM     22  O   UNL     1      -4.233   6.882   5.851  0.00  0.00    -0.269 OA
ATOM     23  C   UNL     1      -3.580   8.944   4.916  0.00  0.00    +0.080 C 
ATOM     24  C   UNL     1      -2.769   9.480   5.861  0.00  0.00    +0.028 C 
ATOM     25  S   UNL     1      -4.068   9.602   3.326  0.00  0.00    -0.026 S 
ATOM     26  C   UNL     1      -5.103   8.244   2.806  0.00  0.00    +0.286 C 
ATOM     27  O   UNL     1      -5.724   8.123   1.768  0.00  0.00    -0.262 OA
BRANCH  24  28
ATOM     28  C   UNL     1      -2.373   8.679   7.028  0.00  0.00    -0.024 A 
ATOM     29  C   UNL     1      -2.062   7.323   6.878  0.00  0.00    +0.009 A 
ATOM     30  C   UNL     1      -1.691   6.578   7.976  0.00  0.00    +0.020 A 
ATOM     31  C   UNL     1      -1.624   7.170   9.228  0.00  0.00    +0.041 A 
ATOM     32  C   UNL     1      -1.931   8.512   9.385  0.00  0.00    +0.020 A 
ATOM     33  C   UNL     1      -2.298   9.271   8.294  0.00  0.00    +0.009 A 
ATOM     34 CL   UNL     1      -1.156   6.224  10.606  0.00  0.00    -0.084 Cl
ENDBRANCH  24  28
ENDBRANCH  19  20
ENDBRANCH  18  19
ENDBRANCH   3  18
TORSDOF 8
