REMARK  Name = ZINC59337500
REMARK  6 active torsions:
REMARK  status: ('A' for Active; 'I' for Inactive)
REMARK    1  A    between atoms: C_1  and  C_2
REMARK    2  A    between atoms: C_5  and  N_9
REMARK    3  A    between atoms: N_12  and  C_13
REMARK    4  A    between atoms: N_12  and  C_14
REMARK    5  A    between atoms: C_14  and  C_16
REMARK    6  A    between atoms: C_14  and  C_17
REMARK                            x       y       z     vdW  Elec       q    Type
REMARK                         _______ _______ _______ _____ _____    ______ ____
ROOT
ATOM      1  N   UNL     1      -0.168  -4.374   0.138  0.00  0.00    -0.268 N 
ATOM      2  C   UNL     1      -0.188  -4.990  -1.060  0.00  0.00    +0.307 C 
ATOM      3  O   UNL     1      -0.204  -4.331  -2.082  0.00  0.00    -0.252 OA
ATOM      4  N   UNL     1      -0.189  -6.336  -1.127  0.00  0.00    -0.282 N 
ATOM      5  C   UNL     1      -0.169  -7.130   0.105  0.00  0.00    +0.134 C 
ATOM      6  H   UNL     1      -0.081  -4.897   0.951  0.00  0.00    +0.156 HD
ENDROOT
BRANCH   1  11
ATOM      7  C   UNL     1      -0.597   1.276   0.431  0.00  0.00    +0.044 C 
ATOM      8  C   UNL     1      -0.483  -0.224   0.353  0.00  0.00    -0.049 A 
ATOM      9  C   UNL     1       0.176  -0.812  -0.710  0.00  0.00    +0.005 A 
ATOM     10  C   UNL     1       0.282  -2.187  -0.784  0.00  0.00    +0.025 A 
ATOM     11  C   UNL     1      -0.274  -2.980   0.211  0.00  0.00    +0.049 A 
ATOM     12  C   UNL     1      -0.936  -2.387   1.278  0.00  0.00    +0.039 A 
ATOM     13  C   UNL     1      -1.034  -1.010   1.349  0.00  0.00    +0.020 A 
ATOM     14 BR   UNL     1      -1.695  -3.461   2.637  0.00  0.00    -0.048 Br
ENDBRANCH   1  11
BRANCH   4  15
ATOM     15  C   UNL     1      -0.210  -7.005  -2.429  0.00  0.00    +0.106 C 
ATOM     16  C   UNL     1      -1.432  -7.922  -2.512  0.00  0.00    +0.033 C 
BRANCH  15  17
ATOM     17  C   UNL     1       1.044  -7.824  -2.594  0.00  0.00    -0.009 A 
ATOM     18  C   UNL     1       1.002  -9.196  -2.426  0.00  0.00    +0.007 A 
ATOM     19  C   UNL     1       2.152  -9.947  -2.577  0.00  0.00    +0.000 A 
ATOM     20  C   UNL     1       3.346  -9.327  -2.896  0.00  0.00    +0.001 A 
ATOM     21  C   UNL     1       3.390  -7.956  -3.064  0.00  0.00    +0.020 A 
ATOM     22  C   UNL     1       2.237  -7.204  -2.918  0.00  0.00    +0.046 A 
ATOM     23 CL   UNL     1       2.291  -5.483  -3.136  0.00  0.00    -0.083 Cl
ENDBRANCH  15  17
ENDBRANCH   4  15
TORSDOF 3
