REMARK  Name = ZINC13782012
REMARK  13 active torsions:
REMARK  status: ('A' for Active; 'I' for Inactive)
REMARK    1  A    between atoms: N_6  and  C_7
REMARK    2  A    between atoms: C_7  and  C_8
REMARK    3  A    between atoms: C_8  and  C_9
REMARK    4  A    between atoms: C_9  and  N_10
REMARK    5  A    between atoms: N_10  and  C_11
REMARK    6  A    between atoms: C_11  and  N_13
REMARK    7  A    between atoms: N_13  and  C_14
REMARK    8  A    between atoms: C_14  and  C_15
REMARK    9  A    between atoms: C_15  and  C_16
REMARK   10  A    between atoms: C_16  and  N_17
REMARK   11  A    between atoms: N_17  and  C_18
REMARK   12  A    between atoms: N_17  and  C_26
REMARK   13  A    between atoms: C_18  and  C_19
REMARK                            x       y       z     vdW  Elec       q    Type
REMARK                         _______ _______ _______ _____ _____    ______ ____
ROOT
ATOM      1  C   UNL     1       3.005   6.864  -1.691  0.00  0.00    +0.105 C 
ENDROOT
BRANCH   1   2
ATOM      2  N   UNL     1       3.300   7.107  -3.106  0.00  0.00    -0.327 N 
ATOM      3  H   UNL     1       2.677   6.813  -3.788  0.00  0.00    +0.148 HD
BRANCH   2   4
ATOM      4  C   UNL     1       4.437   7.739  -3.458  0.00  0.00    +0.130 C 
ATOM      5  S   UNL     1       5.537   8.257  -2.253  0.00  0.00    -0.019 S 
BRANCH   4   6
ATOM      6  N   UNL     1       4.709   7.962  -4.759  0.00  0.00    -0.327 N 
ATOM      7  H   UNL     1       4.085   7.668  -5.442  0.00  0.00    +0.148 HD
BRANCH   6   8
ATOM      8  C   UNL     1       5.945   8.649  -5.142  0.00  0.00    +0.105 C 
BRANCH   8   9
ATOM      9  C   UNL     1       6.008   8.774  -6.666  0.00  0.00    +0.037 C 
BRANCH   9  10
ATOM     10  C   UNL     1       7.299   9.491  -7.066  0.00  0.00    +0.104 C 
BRANCH  10  16
ATOM     11  C   UNL     1      10.553  11.351  -8.950  0.00  0.00    +0.005 A 
ATOM     12  C   UNL     1      10.566  11.440 -10.336  0.00  0.00    +0.018 A 
ATOM     13  C   UNL     1       9.511  10.917 -11.057  0.00  0.00    +0.084 A 
ATOM     14  C   UNL     1       8.447  10.231  -9.127  0.00  0.00    +0.096 A 
ATOM     15  C   UNL     1       9.476  10.736  -8.338  0.00  0.00    +0.041 A 
ATOM     16  N   UNL     1       7.359   9.610  -8.524  0.00  0.00    -0.330 N 
ATOM     17  H   UNL     1       6.639   9.257  -9.070  0.00  0.00    +0.147 HD
ATOM     18  N   UNL     1       8.440  10.301 -10.489  0.00  0.00    -0.350 N 
ATOM     19  H   UNL     1       7.673   9.913 -11.051  0.00  0.00    +0.166 HD
ENDBRANCH  10  16
ENDBRANCH   9  10
ENDBRANCH   8   9
ENDBRANCH   6   8
ENDBRANCH   4   6
ENDBRANCH   2   4
ENDBRANCH   1   2
BRANCH   1  20
ATOM     20  C   UNL     1       1.665   6.137  -1.567  0.00  0.00    +0.038 C 
BRANCH  20  21
ATOM     21  C   UNL     1       1.357   5.883  -0.090  0.00  0.00    +0.108 C 
BRANCH  21  22
ATOM     22  N   UNL     1       0.073   5.187   0.028  0.00  0.00    -0.312 N 
BRANCH  22  23
ATOM     23  C   UNL     1       0.033   3.798   0.021  0.00  0.00    +0.099 A 
ATOM     24  C   UNL     1      -1.195   3.144   0.029  0.00  0.00    +0.042 A 
ATOM     25  C   UNL     1      -1.221   1.761   0.017  0.00  0.00    +0.005 A 
ATOM     26  C   UNL     1      -0.013   1.076   0.008  0.00  0.00    +0.018 A 
ATOM     27  C   UNL     1       1.169   1.789   0.001  0.00  0.00    +0.084 A 
ATOM     28  N   UNL     1       1.232   3.147   0.007  0.00  0.00    -0.350 N 
ATOM     29  H   UNL     1       2.126   3.652   0.001  0.00  0.00    +0.166 HD
ENDBRANCH  22  23
BRANCH  22  30
ATOM     30  C   UNL     1      -1.168   5.955   0.154  0.00  0.00    +0.141 C 
BRANCH  30  31
ATOM     31  C   UNL     1      -1.457   6.208   1.612  0.00  0.00    -0.030 A 
ATOM     32  C   UNL     1      -2.220   5.307   2.331  0.00  0.00    +0.006 A 
ATOM     33  C   UNL     1      -2.481   5.535   3.669  0.00  0.00    +0.015 A 
ATOM     34  C   UNL     1      -1.988   6.671   4.285  0.00  0.00    +0.018 A 
ATOM     35  C   UNL     1      -1.229   7.575   3.564  0.00  0.00    +0.015 A 
ATOM     36  C   UNL     1      -0.964   7.343   2.228  0.00  0.00    +0.006 A 
ATOM     37 BR   UNL     1      -2.350   6.987   6.114  0.00  0.00    -0.050 Br
ENDBRANCH  30  31
ENDBRANCH  22  30
ENDBRANCH  21  22
ENDBRANCH  20  21
ENDBRANCH   1  20
TORSDOF 13
