REMARK  Name = ZINC56327621
REMARK  6 active torsions:
REMARK  status: ('A' for Active; 'I' for Inactive)
REMARK    1  A    between atoms: C_3  and  N_15
REMARK    2  A    between atoms: C_5  and  N_7
REMARK    3  A    between atoms: C_8  and  C_10
REMARK    4  A    between atoms: C_16  and  C_18
REMARK    5  A    between atoms: C_21  and  S_23
REMARK    6  A    between atoms: S_23  and  N_26
REMARK                            x       y       z     vdW  Elec       q    Type
REMARK                         _______ _______ _______ _____ _____    ______ ____
ROOT
ATOM      1  C   UNL     1       0.587   1.754   0.194  0.00  0.00    +0.004 A 
ATOM      2  C   UNL     1       1.855   2.270   0.381  0.00  0.00    +0.023 A 
ATOM      3  C   UNL     1       2.956   1.423   0.394  0.00  0.00    +0.036 A 
ATOM      4  C   UNL     1       2.781   0.057   0.218  0.00  0.00    +0.046 A 
ATOM      5  C   UNL     1       1.507  -0.458   0.030  0.00  0.00    +0.035 A 
ATOM      6  C   UNL     1       0.409   0.395   0.019  0.00  0.00    +0.023 A 
ENDROOT
BRANCH   5   7
ATOM      7  N   UNL     1       1.327  -1.833  -0.148  0.00  0.00    -0.281 N 
ATOM      8  C   UNL     1       2.119  -2.706   0.504  0.00  0.00    +0.255 C 
ATOM      9  O   UNL     1       2.927  -2.303   1.320  0.00  0.00    -0.269 OA
ATOM     10  H   UNL     1       0.631  -2.158  -0.740  0.00  0.00    +0.155 HD
BRANCH   8  11
ATOM     11  C   UNL     1       2.009  -4.142   0.230  0.00  0.00    +0.074 A 
ATOM     12  C   UNL     1       2.718  -5.195   0.787  0.00  0.00    +0.021 A 
ATOM     13  C   UNL     1       2.389  -6.447   0.325  0.00  0.00    +0.008 A 
ATOM     14  C   UNL     1       1.423  -6.568  -0.619  0.00  0.00    +0.046 A 
ATOM     15  S   UNL     1       0.924  -4.989  -0.903  0.00  0.00    -0.092 S 
ENDBRANCH   8  11
ENDBRANCH   5   7
BRANCH   3  16
ATOM     16  N   UNL     1       4.239   1.946   0.582  0.00  0.00    -0.279 N 
ATOM     17  C   UNL     1       4.554   3.156   0.080  0.00  0.00    +0.284 C 
ATOM     18  O   UNL     1       3.756   3.751  -0.620  0.00  0.00    -0.266 OA
ATOM     19  H   UNL     1       4.902   1.437   1.075  0.00  0.00    +0.155 HD
BRANCH  17  20
ATOM     20  C   UNL     1       5.859   3.756   0.376  0.00  0.00    +0.192 A 
ATOM     21  C   UNL     1       6.302   4.971  -0.062  0.00  0.00    +0.057 A 
ATOM     22  C   UNL     1       7.594   5.141   0.458  0.00  0.00    +0.072 A 
ATOM     23  C   UNL     1       7.880   4.036   1.182  0.00  0.00    +0.258 A 
ATOM     24  O   UNL     1       6.830   3.206   1.134  0.00  0.00    -0.432 OA
BRANCH  23  25
ATOM     25  S   UNL     1       9.385   3.739   2.049  0.00  0.00    +0.089 S 
ATOM     26  O   UNL     1       9.506   2.329   2.181  0.00  0.00    -0.150 OA
ATOM     27  O   UNL     1      10.380   4.534   1.420  0.00  0.00    -0.150 OA
BRANCH  25  28
ATOM     28  N   UNL     1       9.195   4.343   3.580  0.00  0.00    -0.201 NA
ATOM     29  H   UNL     1       8.359   4.763   3.835  0.00  0.00    +0.144 HD
ATOM     30  H   UNL     1       9.920   4.277   4.221  0.00  0.00    +0.144 HD
ENDBRANCH  25  28
ENDBRANCH  23  25
ENDBRANCH  17  20
ENDBRANCH   3  16
TORSDOF 6
