REMARK  Name = ZINC22282489
REMARK  3 active torsions:
REMARK  status: ('A' for Active; 'I' for Inactive)
REMARK    1  A    between atoms: N_9  and  C_13
REMARK    2  A    between atoms: C_13  and  C_14
REMARK    3  A    between atoms: C_27  and  C_29
REMARK                            x       y       z     vdW  Elec       q    Type
REMARK                         _______ _______ _______ _____ _____    ______ ____
ROOT
ATOM      1  C   UNL     1       3.324  -4.455   1.358  0.00  0.00    +0.240 C 
ATOM      2  O   UNL     1       2.994  -3.745   2.284  0.00  0.00    -0.273 OA
ATOM      3  N   UNL     1       3.749  -5.713   1.591  0.00  0.00    -0.256 N 
ATOM      4  C   UNL     1       4.127  -6.547   0.531  0.00  0.00    +0.058 A 
ATOM      5  C   UNL     1       5.316  -6.330  -0.148  0.00  0.00    +0.025 A 
ATOM      6  C   UNL     1       5.689  -7.183  -1.170  0.00  0.00    +0.002 A 
ATOM      7  C   UNL     1       4.883  -8.251  -1.518  0.00  0.00    +0.002 A 
ATOM      8  C   UNL     1       3.703  -8.465  -0.858  0.00  0.00    +0.025 A 
ATOM      9  C   UNL     1       3.311  -7.609   0.158  0.00  0.00    +0.055 A 
ATOM     10  N   UNL     1       2.089  -7.788   0.819  0.00  0.00    -0.284 N 
ATOM     11  C   UNL     1       2.031  -7.779   2.169  0.00  0.00    +0.219 C 
ATOM     12  O   UNL     1       0.956  -7.859   2.725  0.00  0.00    -0.275 OA
ATOM     13  C   UNL     1       3.290  -7.671   2.988  0.00  0.00    +0.128 C 
ATOM     14  C   UNL     1       3.818  -6.236   2.956  0.00  0.00    +0.194 C 
ATOM     15  H   UNL     1       1.167  -7.937   0.239  0.00  0.00    +0.155 HD
ENDROOT
BRANCH  14  16
ATOM     16  C   UNL     1       5.271  -6.218   3.434  0.00  0.00    +0.409 C 
ATOM     17  F   UNL     1       5.753  -4.905   3.412  0.00  0.00    -0.169 F 
ATOM     18  F   UNL     1       5.339  -6.718   4.739  0.00  0.00    -0.169 F 
ATOM     19  F   UNL     1       6.050  -7.015   2.588  0.00  0.00    -0.169 F 
ENDBRANCH  14  16
BRANCH   1  20
ATOM     20  C   UNL     1       3.258  -3.931  -0.054  0.00  0.00    +0.231 C 
BRANCH  20  29
ATOM     21  C   UNL     1      -0.017   1.372   0.010  0.00  0.00    +0.001 A 
ATOM     22  C   UNL     1       1.161   2.099   0.002  0.00  0.00    +0.002 A 
ATOM     23  C   UNL     1       2.377   1.432  -0.013  0.00  0.00    +0.029 A 
ATOM     24  C   UNL     1       2.399   0.066  -0.021  0.00  0.00    +0.121 A 
ATOM     25  C   UNL     1       1.225  -0.698  -0.014  0.00  0.00    +0.065 A 
ATOM     26  C   UNL     1       0.002  -0.004   0.002  0.00  0.00    +0.015 A 
ATOM     27  C   UNL     1       1.491  -2.142  -0.025  0.00  0.00    +0.268 C 
ATOM     28  O   UNL     1       0.579  -2.946  -0.021  0.00  0.00    -0.268 OA
ATOM     29  N   UNL     1       2.769  -2.551  -0.040  0.00  0.00    -0.159 N 
ATOM     30  S   UNL     1       3.686  -1.151  -0.041  0.00  0.00    +0.078 S 
ATOM     31  O   UNL     1       4.342  -1.066  -1.298  0.00  0.00    -0.150 OA
ATOM     32  O   UNL     1       4.368  -1.080   1.204  0.00  0.00    -0.150 OA
ENDBRANCH  20  29
ENDBRANCH   1  20
TORSDOF 3
