REMARK  Name = ZINC13238858
REMARK  11 active torsions:
REMARK  status: ('A' for Active; 'I' for Inactive)
REMARK    1  A    between atoms: C_1  and  C_2
REMARK    2  A    between atoms: C_2  and  C_3
REMARK    3  A    between atoms: C_2  and  C_4
REMARK    4  A    between atoms: C_4  and  C_6
REMARK    5  A    between atoms: C_4  and  N_8
REMARK    6  A    between atoms: C_9  and  C_25
REMARK    7  A    between atoms: C_12  and  S_13
REMARK    8  A    between atoms: S_13  and  C_14
REMARK    9  A    between atoms: C_14  and  C_15
REMARK   10  A    between atoms: N_17  and  C_18
REMARK   11  A    between atoms: C_19  and  C_23
REMARK                            x       y       z     vdW  Elec       q    Type
REMARK                         _______ _______ _______ _____ _____    ______ ____
ROOT
ATOM      1  N   UNL     1       2.038  -8.008  -0.058  0.00  0.00    -0.287 N 
ATOM      2  C   UNL     1       3.228  -8.701  -0.080  0.00  0.00    +0.172 A 
ATOM      3  N   UNL     1       4.193  -7.808  -0.083  0.00  0.00    -0.128 NA
ATOM      4  N   UNL     1       3.695  -6.624  -0.071  0.00  0.00    -0.122 NA
ATOM      5  C   UNL     1       2.382  -6.685  -0.059  0.00  0.00    +0.193 A 
ENDROOT
BRANCH   2   6
ATOM      6  C   UNL     1       3.389 -10.164  -0.090  0.00  0.00    +0.056 A 
ATOM      7  C   UNL     1       4.510 -10.912   0.171  0.00  0.00    +0.019 A 
ATOM      8  C   UNL     1       4.419 -12.284   0.100  0.00  0.00    +0.008 A 
ATOM      9  C   UNL     1       3.229 -12.853  -0.225  0.00  0.00    +0.046 A 
ATOM     10  S   UNL     1       2.177 -11.427  -0.438  0.00  0.00    -0.094 S 
ENDBRANCH   2   6
BRANCH   1  11
ATOM     11  C   UNL     1       0.686  -8.571  -0.040  0.00  0.00    +0.206 C 
BRANCH  11  13
ATOM     12  C   UNL     1      -1.457  -8.693   1.239  0.00  0.00    +0.010 C 
ATOM     13  C   UNL     1      -0.044  -8.104   1.220  0.00  0.00    +0.017 C 
ATOM     14  C   UNL     1       0.721  -8.577   2.458  0.00  0.00    +0.010 C 
ENDBRANCH  11  13
BRANCH  11  15
ATOM     15  C   UNL     1      -0.068  -8.106  -1.259  0.00  0.00    +0.379 C 
ATOM     16  O   UNL     1      -1.085  -7.466  -1.132  0.00  0.00    -0.244 OA
ATOM     17  O   UNL     1       0.390  -8.401  -2.486  0.00  0.00    -0.244 OA
ENDBRANCH  11  15
ENDBRANCH   1  11
BRANCH   5  18
ATOM     18  S   UNL     1       1.273  -5.316  -0.041  0.00  0.00    -0.077 S 
BRANCH  18  19
ATOM     19  C   UNL     1       2.459  -3.950  -0.044  0.00  0.00    +0.173 C 
BRANCH  19  20
ATOM     20  C   UNL     1       1.715  -2.639  -0.029  0.00  0.00    +0.228 C 
ATOM     21  O   UNL     1       0.503  -2.630  -0.018  0.00  0.00    -0.275 OA
ATOM     22  N   UNL     1       2.398  -1.477  -0.029  0.00  0.00    -0.278 N 
ATOM     23  H   UNL     1       3.368  -1.484  -0.039  0.00  0.00    +0.155 HD
BRANCH  22  24
ATOM     24  C   UNL     1       1.713  -0.270  -0.016  0.00  0.00    +0.089 A 
ATOM     25  C   UNL     1       2.234   1.018  -0.014  0.00  0.00    +0.080 A 
ATOM     26  C   UNL     1       1.284   2.103   0.001  0.00  0.00    +0.028 A 
ATOM     27  C   UNL     1      -0.022   1.777   0.012  0.00  0.00    +0.048 A 
ATOM     28  S   UNL     1       0.002  -0.004   0.002  0.00  0.00    -0.081 S 
BRANCH  25  29
ATOM     29  C   UNL     1       3.646   1.256  -0.026  0.00  0.00    +0.102 C 
ATOM     30  N   UNL     1       4.766   1.446  -0.036  0.00  0.00    -0.191 NA
ENDBRANCH  25  29
ENDBRANCH  22  24
ENDBRANCH  19  20
ENDBRANCH  18  19
ENDBRANCH   5  18
TORSDOF 9
