REMARK  Name = ZINC47930090
REMARK  5 active torsions:
REMARK  status: ('A' for Active; 'I' for Inactive)
REMARK    1  A    between atoms: C_1  and  C_2
REMARK    2  A    between atoms: C_2  and  C_3
REMARK    3  A    between atoms: C_3  and  N_4
REMARK    4  A    between atoms: C_9  and  C_11
REMARK    5  A    between atoms: N_13  and  C_14
REMARK                            x       y       z     vdW  Elec       q    Type
REMARK                         _______ _______ _______ _____ _____    ______ ____
ROOT
ATOM      1  C   UNL     1      -1.560  -4.590  -2.537  0.00  0.00    +0.268 C 
ATOM      2  O   UNL     1      -1.696  -5.794  -2.631  0.00  0.00    -0.268 OA
ATOM      3  N   UNL     1      -1.406  -3.841  -3.647  0.00  0.00    -0.276 N 
ATOM      4  H   UNL     1      -1.370  -2.874  -3.579  0.00  0.00    +0.155 HD
ENDROOT
BRANCH   3   5
ATOM      5  C   UNL     1      -1.298  -4.460  -4.901  0.00  0.00    +0.097 A 
ATOM      6  C   UNL     1      -2.180  -4.168  -5.890  0.00  0.00    +0.110 A 
ATOM      7  N   UNL     1      -2.078  -4.765  -7.105  0.00  0.00    -0.365 N 
ATOM      8  C   UNL     1      -1.100  -5.665  -7.372  0.00  0.00    +0.086 A 
ATOM      9  C   UNL     1      -0.190  -5.998  -6.430  0.00  0.00    +0.070 A 
ATOM     10  C   UNL     1      -0.260  -5.394  -5.155  0.00  0.00    +0.203 A 
ATOM     11  O   UNL     1       0.553  -5.674  -4.286  0.00  0.00    -0.286 OA
ATOM     12  H   UNL     1      -2.719  -4.543  -7.798  0.00  0.00    +0.165 HD
ENDBRANCH   3   5
BRANCH   1  18
ATOM     13  N   UNL     1      -1.412  -2.039   0.025  0.00  0.00    -0.229 N 
ATOM     14  C   UNL     1      -1.559  -2.704   1.186  0.00  0.00    +0.267 A 
ATOM     15  O   UNL     1      -1.552  -2.100   2.245  0.00  0.00    -0.266 OA
ATOM     16  C   UNL     1      -1.723  -4.107   1.169  0.00  0.00    +0.074 A 
ATOM     17  C   UNL     1      -1.725  -4.735  -0.041  0.00  0.00    +0.040 A 
ATOM     18  C   UNL     1      -1.563  -3.946  -1.206  0.00  0.00    +0.146 A 
ATOM     19  N   UNL     1      -1.421  -2.644  -1.107  0.00  0.00    -0.164 NA
BRANCH  13  20
ATOM     20  C   UNL     1      -1.243  -0.584   0.054  0.00  0.00    +0.147 C 
BRANCH  20  22
ATOM     21  C   UNL     1       0.424   1.274   0.173  0.00  0.00    +0.005 C 
ATOM     22  C   UNL     1       0.247  -0.246   0.143  0.00  0.00    +0.020 C 
ENDBRANCH  20  22
ENDBRANCH  13  20
ENDBRANCH   1  18
TORSDOF 4
