REMARK  Name = ZINC63350642
REMARK  5 active torsions:
REMARK  status: ('A' for Active; 'I' for Inactive)
REMARK    1  A    between atoms: C_1  and  O_2
REMARK    2  A    between atoms: O_2  and  C_3
REMARK    3  A    between atoms: C_3  and  C_5
REMARK    4  A    between atoms: C_8  and  C_11
REMARK    5  A    between atoms: N_29  and  C_32
REMARK                            x       y       z     vdW  Elec       q    Type
REMARK                         _______ _______ _______ _____ _____    ______ ____
ROOT
ATOM      1  C   UNL     1       0.845  -6.366  -1.336  0.00  0.00    +0.135 C 
ATOM      2  C   UNL     1       2.276  -6.844  -1.045  0.00  0.00    +0.131 C 
ATOM      3  C   UNL     1       3.118  -6.496  -2.265  0.00  0.00    -0.034 C 
ATOM      4  C   UNL     1       4.117  -5.738  -1.824  0.00  0.00    -0.001 A 
ATOM      5  C   UNL     1       5.278  -5.152  -2.514  0.00  0.00    +0.010 A 
ATOM      6  C   UNL     1       6.117  -4.406  -1.748  0.00  0.00    +0.001 A 
ATOM      7  C   UNL     1       5.920  -4.187  -0.381  0.00  0.00    +0.002 A 
ATOM      8  C   UNL     1       4.883  -4.691   0.335  0.00  0.00    +0.026 A 
ATOM      9  C   UNL     1       3.935  -5.495  -0.361  0.00  0.00    +0.043 A 
ATOM     10  N   UNL     1       2.861  -6.120   0.086  0.00  0.00    -0.375 N 
ATOM     11  C   UNL     1       2.759  -6.921  -3.669  0.00  0.00    +0.065 C 
ATOM     12  C   UNL     1       1.308  -6.466  -3.906  0.00  0.00    +0.169 C 
ATOM     13  N   UNL     1       0.518  -6.800  -2.701  0.00  0.00    -0.264 N 
ATOM     14  C   UNL     1      -0.500  -7.570  -3.104  0.00  0.00    +0.317 C 
ATOM     15  O   UNL     1      -1.408  -7.926  -2.379  0.00  0.00    -0.252 OA
ATOM     16  N   UNL     1      -0.401  -7.903  -4.398  0.00  0.00    -0.192 N 
ATOM     17  C   UNL     1       0.678  -7.301  -5.000  0.00  0.00    +0.248 C 
ATOM     18  O   UNL     1       1.055  -7.410  -6.147  0.00  0.00    -0.273 OA
ATOM     19  H   UNL     1       2.512  -6.105   0.991  0.00  0.00    +0.160 HD
ENDROOT
BRANCH  16  20
ATOM     20  C   UNL     1      -1.296  -8.755  -5.064  0.00  0.00    +0.049 A 
ATOM     21  C   UNL     1      -1.041  -9.145  -6.371  0.00  0.00    +0.028 A 
ATOM     22  C   UNL     1      -1.922  -9.982  -7.027  0.00  0.00    +0.051 A 
ATOM     23  C   UNL     1      -3.063 -10.437  -6.382  0.00  0.00    +0.162 A 
ATOM     24  C   UNL     1      -3.319 -10.050  -5.072  0.00  0.00    +0.164 A 
ATOM     25  C   UNL     1      -2.433  -9.212  -4.413  0.00  0.00    +0.073 A 
ATOM     26  O   UNL     1      -4.429 -10.493  -4.420  0.00  0.00    -0.485 OA
ATOM     27  C   UNL     1      -5.479 -11.032  -5.229  0.00  0.00    +0.270 C 
ATOM     28  C   UNL     1      -4.855 -11.995  -6.248  0.00  0.00    +0.270 C 
ATOM     29  O   UNL     1      -3.922 -11.259  -7.046  0.00  0.00    -0.485 OA
ENDBRANCH  16  20
BRANCH   1  33
ATOM     30  C   UNL     1       0.646  -2.103  -1.071  0.00  0.00    +0.059 A 
ATOM     31  C   UNL     1      -0.039  -2.896  -0.148  0.00  0.00    +0.015 A 
ATOM     32  C   UNL     1       0.029  -4.270  -0.239  0.00  0.00    +0.006 A 
ATOM     33  C   UNL     1       0.775  -4.864  -1.243  0.00  0.00    -0.025 A 
ATOM     34  C   UNL     1       1.457  -4.084  -2.160  0.00  0.00    +0.006 A 
ATOM     35  C   UNL     1       1.392  -2.708  -2.084  0.00  0.00    +0.015 A 
BRANCH  30  36
ATOM     36  C   UNL     1       0.577  -0.630  -0.979  0.00  0.00    +0.339 C 
ATOM     37  O   UNL     1       1.170   0.057  -1.786  0.00  0.00    -0.245 OA
BRANCH  36  39
ATOM     38  C   UNL     1      -0.166   1.380   0.028  0.00  0.00    +0.280 C 
ATOM     39  O   UNL     1      -0.143  -0.049  -0.000  0.00  0.00    -0.464 OA
ENDBRANCH  36  39
ENDBRANCH  30  36
ENDBRANCH   1  33
TORSDOF 4
