REMARK  Name = ZINC40797953
REMARK  10 active torsions:
REMARK  status: ('A' for Active; 'I' for Inactive)
REMARK    1  A    between atoms: C_1  and  C_2
REMARK    2  A    between atoms: N_8  and  C_33
REMARK    3  A    between atoms: C_11  and  C_13
REMARK    4  A    between atoms: C_11  and  C_14
REMARK    5  A    between atoms: N_16  and  C_17
REMARK    6  A    between atoms: C_18  and  C_26
REMARK    7  A    between atoms: N_28  and  C_29
REMARK    8  A    between atoms: C_29  and  C_30
REMARK    9  A    between atoms: C_30  and  O_31
REMARK   10  A    between atoms: O_31  and  C_32
REMARK                            x       y       z     vdW  Elec       q    Type
REMARK                         _______ _______ _______ _____ _____    ______ ____
ROOT
ATOM      1  C   UNL     1       2.194  -4.685   0.833  0.00  0.00    +0.270 C 
ATOM      2  O   UNL     1       2.938  -4.569   1.784  0.00  0.00    -0.271 OA
ATOM      3  N   UNL     1       2.699  -4.724  -0.416  0.00  0.00    -0.276 N 
ATOM      4  H   UNL     1       2.105  -4.818  -1.177  0.00  0.00    +0.155 HD
ENDROOT
BRANCH   1  15
ATOM      5  C   UNL     1      -0.018   1.503   0.010  0.00  0.00    +0.044 C 
ATOM      6  C   UNL     1       0.002  -0.004   0.002  0.00  0.00    -0.048 A 
ATOM      7  C   UNL     1       0.006  -0.687  -1.200  0.00  0.00    +0.007 A 
ATOM      8  C   UNL     1       0.019  -2.070  -1.216  0.00  0.00    +0.048 A 
ATOM      9  C   UNL     1       0.031  -2.773  -0.024  0.00  0.00    +0.144 A 
ATOM     10  C   UNL     1       0.038  -2.085   1.188  0.00  0.00    +0.078 A 
ATOM     11  C   UNL     1       0.023  -0.700   1.197  0.00  0.00    +0.030 A 
ATOM     12  N   UNL     1       0.086  -2.805   2.389  0.00  0.00    -0.268 N 
ATOM     13  C   UNL     1       0.342  -4.129   2.355  0.00  0.00    +0.273 C 
ATOM     14  O   UNL     1       0.279  -4.788   3.371  0.00  0.00    -0.270 OA
ATOM     15  C   UNL     1       0.706  -4.787   1.048  0.00  0.00    +0.258 C 
ATOM     16  O   UNL     1       0.025  -4.133  -0.026  0.00  0.00    -0.465 OA
ATOM     17  C   UNL     1       0.298  -6.261   1.088  0.00  0.00    +0.076 C 
ATOM     18  C   UNL     1      -0.140  -2.127   3.668  0.00  0.00    +0.138 C 
ENDBRANCH   1  15
BRANCH   3  19
ATOM     19  C   UNL     1       4.069  -4.631  -0.613  0.00  0.00    +0.085 A 
ATOM     20  C   UNL     1       4.759  -4.647  -1.815  0.00  0.00    +0.069 A 
ATOM     21  C   UNL     1       6.206  -4.533  -1.751  0.00  0.00    -0.023 A 
ATOM     22  C   UNL     1       6.697  -4.425  -0.497  0.00  0.00    -0.004 A 
ATOM     23  S   UNL     1       5.270  -4.465   0.548  0.00  0.00    -0.077 S 
ATOM     24  C   UNL     1       8.135  -4.294  -0.103  0.00  0.00    +0.043 C 
ATOM     25  C   UNL     1       9.003  -4.681  -1.309  0.00  0.00    +0.005 C 
ATOM     26  C   UNL     1       8.480  -3.951  -2.550  0.00  0.00    +0.005 C 
ATOM     27  C   UNL     1       7.126  -4.531  -2.963  0.00  0.00    +0.037 C 
BRANCH  20  28
ATOM     28  C   UNL     1       4.059  -4.774  -3.097  0.00  0.00    +0.247 C 
ATOM     29  O   UNL     1       3.689  -3.778  -3.689  0.00  0.00    -0.270 OA
ATOM     30  N   UNL     1       3.826  -5.995  -3.619  0.00  0.00    -0.309 N 
ATOM     31  H   UNL     1       4.121  -6.789  -3.147  0.00  0.00    +0.149 HD
BRANCH  30  32
ATOM     32  C   UNL     1       3.126  -6.122  -4.900  0.00  0.00    +0.132 C 
BRANCH  32  33
ATOM     33  C   UNL     1       2.992  -7.602  -5.263  0.00  0.00    +0.178 C 
BRANCH  33  34
ATOM     34  O   UNL     1       2.152  -8.253  -4.308  0.00  0.00    -0.381 OA
ATOM     35  C   UNL     1       1.960  -9.647  -4.556  0.00  0.00    +0.194 C 
ENDBRANCH  33  34
ENDBRANCH  32  33
ENDBRANCH  30  32
ENDBRANCH  20  28
ENDBRANCH   3  19
TORSDOF 6
