REMARK  Name = ZINC08597808
REMARK  6 active torsions:
REMARK  status: ('A' for Active; 'I' for Inactive)
REMARK    1  A    between atoms: C_1  and  C_2
REMARK    2  A    between atoms: C_2  and  O_3
REMARK    3  A    between atoms: O_3  and  C_4
REMARK    4  A    between atoms: C_7  and  N_10
REMARK    5  A    between atoms: N_24  and  C_27
REMARK    6  A    between atoms: C_27  and  C_28
REMARK                            x       y       z     vdW  Elec       q    Type
REMARK                         _______ _______ _______ _____ _____    ______ ____
ROOT
ATOM      1  N   UNL     1      -1.989  -5.990  -0.012  0.00  0.00    -0.234 N 
ATOM      2  C   UNL     1      -0.934  -6.797  -0.115  0.00  0.00    +0.243 C 
ATOM      3  O   UNL     1       0.193  -6.354  -0.196  0.00  0.00    -0.273 OA
ATOM      4  C   UNL     1      -1.196  -8.296  -0.129  0.00  0.00    +0.265 C 
ATOM      5  S   UNL     1      -2.943  -8.337   0.469  0.00  0.00    +0.013 S 
ATOM      6  O   UNL     1      -2.960  -8.538   1.876  0.00  0.00    -0.171 OA
ATOM      7  O   UNL     1      -3.715  -9.180  -0.376  0.00  0.00    -0.171 OA
ATOM      8  C   UNL     1      -3.318  -6.581   0.101  0.00  0.00    +0.263 C 
ATOM      9  C   UNL     1      -4.133  -6.460  -1.148  0.00  0.00    +0.028 A 
ATOM     10  C   UNL     1      -3.928  -6.821  -2.461  0.00  0.00    +0.010 A 
ATOM     11  C   UNL     1      -4.902  -6.567  -3.411  0.00  0.00    +0.001 A 
ATOM     12  C   UNL     1      -6.082  -5.949  -3.038  0.00  0.00    +0.002 A 
ATOM     13  C   UNL     1      -6.292  -5.585  -1.725  0.00  0.00    +0.024 A 
ATOM     14  C   UNL     1      -5.317  -5.835  -0.762  0.00  0.00    +0.044 A 
ATOM     15  N   UNL     1      -5.296  -5.563   0.608  0.00  0.00    -0.263 N 
ATOM     16  C   UNL     1      -4.149  -5.972   1.189  0.00  0.00    +0.271 C 
ATOM     17  O   UNL     1      -3.851  -5.867   2.360  0.00  0.00    -0.271 OA
ENDROOT
BRANCH   1  21
ATOM     18  C   UNL     1      -1.498  -1.849   0.007  0.00  0.00    +0.121 A 
ATOM     19  C   UNL     1      -1.369  -2.568   1.187  0.00  0.00    +0.047 A 
ATOM     20  C   UNL     1      -1.532  -3.939   1.181  0.00  0.00    +0.027 A 
ATOM     21  C   UNL     1      -1.824  -4.598  -0.005  0.00  0.00    +0.039 A 
ATOM     22  C   UNL     1      -1.952  -3.878  -1.185  0.00  0.00    +0.027 A 
ATOM     23  C   UNL     1      -1.795  -2.507  -1.178  0.00  0.00    +0.047 A 
BRANCH  18  24
ATOM     24  O   UNL     1      -1.337  -0.499   0.013  0.00  0.00    -0.492 OA
BRANCH  24  26
ATOM     25  C   UNL     1      -0.889   1.624   1.078  0.00  0.00    +0.048 C 
ATOM     26  C   UNL     1      -1.032   0.113   1.268  0.00  0.00    +0.225 C 
ENDBRANCH  24  26
ENDBRANCH  18  24
ENDBRANCH   1  21
BRANCH  15  27
ATOM     27  C   UNL     1      -6.391  -4.910   1.329  0.00  0.00    +0.149 C 
BRANCH  27  28
ATOM     28  C   UNL     1      -7.351  -5.955   1.838  0.00  0.00    -0.028 A 
ATOM     29  C   UNL     1      -8.413  -6.360   1.050  0.00  0.00    +0.005 A 
ATOM     30  C   UNL     1      -9.293  -7.318   1.516  0.00  0.00    +0.002 A 
ATOM     31  C   UNL     1      -9.113  -7.871   2.771  0.00  0.00    +0.020 A 
ATOM     32  C   UNL     1      -8.052  -7.466   3.559  0.00  0.00    +0.041 A 
ATOM     33  C   UNL     1      -7.167  -6.511   3.089  0.00  0.00    +0.025 A 
ATOM     34 CL   UNL     1      -7.825  -8.159   5.134  0.00  0.00    -0.084 Cl
ENDBRANCH  27  28
ENDBRANCH  15  27
TORSDOF 5
