REMARK  Name = ZINC36290175
REMARK  4 active torsions:
REMARK  status: ('A' for Active; 'I' for Inactive)
REMARK    1  A    between atoms: C_1  and  C_2
REMARK    2  A    between atoms: C_3  and  C_16
REMARK    3  A    between atoms: C_5  and  N_15
REMARK    4  A    between atoms: C_6  and  C_10
REMARK                            x       y       z     vdW  Elec       q    Type
REMARK                         _______ _______ _______ _____ _____    ______ ____
ROOT
ATOM      1  C   UNL     1      -0.018   1.503   0.010  0.00  0.00    +0.054 C 
ATOM      2  C   UNL     1       0.002  -0.004   0.002  0.00  0.00    +0.018 A 
ATOM      3  C   UNL     1      -1.035  -0.867   0.002  0.00  0.00    +0.102 A 
ATOM      4  N   UNL     1      -0.804  -2.235  -0.006  0.00  0.00    -0.271 N 
ATOM      5  C   UNL     1      -1.552  -3.407  -0.009  0.00  0.00    +0.130 A 
ATOM      6  C   UNL     1      -0.677  -4.452  -0.018  0.00  0.00    +0.118 A 
ATOM      7  N   UNL     1       0.583  -3.940  -0.021  0.00  0.00    -0.219 NA
ATOM      8  C   UNL     1       0.507  -2.643  -0.014  0.00  0.00    +0.180 A 
ATOM      9  S   UNL     1       1.405  -1.108  -0.018  0.00  0.00    -0.054 S 
ENDROOT
BRANCH   6  10
ATOM     10  C   UNL     1      -1.033  -5.885  -0.023  0.00  0.00    +0.041 A 
ATOM     11  C   UNL     1      -0.396  -6.931  -0.636  0.00  0.00    +0.018 A 
ATOM     12  C   UNL     1      -0.921  -8.200  -0.497  0.00  0.00    +0.008 A 
ATOM     13  C   UNL     1      -2.046  -8.372   0.239  0.00  0.00    +0.046 A 
ATOM     14  S   UNL     1      -2.402  -6.707   0.775  0.00  0.00    -0.095 S 
ENDBRANCH   6  10
BRANCH   3  15
ATOM     15  C   UNL     1      -2.416  -0.355   0.011  0.00  0.00    +0.152 A 
ATOM     16  C   UNL     1      -3.010   0.360  -0.985  0.00  0.00    +0.051 A 
ATOM     17  C   UNL     1      -4.324   0.638  -0.556  0.00  0.00    +0.042 A 
ATOM     18  C   UNL     1      -4.466   0.086   0.664  0.00  0.00    +0.196 A 
ATOM     19  O   UNL     1      -3.313  -0.518   1.002  0.00  0.00    -0.461 OA
ENDBRANCH   3  15
BRANCH   5  20
ATOM     20  N   UNL     1      -2.946  -3.498  -0.002  0.00  0.00    -0.342 N 
ATOM     21  H   UNL     1      -3.485  -2.691   0.005  0.00  0.00    +0.144 HD
ATOM     22  H   UNL     1      -3.376  -4.368  -0.005  0.00  0.00    +0.144 HD
ENDBRANCH   5  20
TORSDOF 3
