REMARK  Name = ZINC15947360
REMARK  8 active torsions:
REMARK  status: ('A' for Active; 'I' for Inactive)
REMARK    1  A    between atoms: C_4  and  C_7
REMARK    2  A    between atoms: C_7  and  N_8
REMARK    3  A    between atoms: C_16  and  O_37
REMARK    4  A    between atoms: C_18  and  C_21
REMARK    5  A    between atoms: C_25  and  O_27
REMARK    6  A    between atoms: O_27  and  C_28
REMARK    7  A    between atoms: C_28  and  C_30
REMARK    8  A    between atoms: C_31  and  C_32
REMARK                            x       y       z     vdW  Elec       q    Type
REMARK                         _______ _______ _______ _____ _____    ______ ____
ROOT
ATOM      1  N   UNL     1       3.979  -1.344   0.950  0.00  0.00    +0.386 N 
ATOM      2  C   UNL     1       5.321  -1.942   0.944  0.00  0.00    -0.073 C 
ATOM      3  C   UNL     1       5.966  -1.806   2.327  0.00  0.00    +0.018 C 
ATOM      4  C   UNL     1       4.987  -2.356   3.356  0.00  0.00    -0.027 A 
ATOM      5  C   UNL     1       3.683  -2.522   3.029  0.00  0.00    -0.021 A 
ATOM      6  S   UNL     1       2.932  -3.172   4.494  0.00  0.00    -0.080 S 
ATOM      7  C   UNL     1       4.262  -3.226   5.484  0.00  0.00    +0.080 A 
ATOM      8  C   UNL     1       5.324  -2.737   4.713  0.00  0.00    +0.067 A 
ATOM      9  C   UNL     1       6.659  -2.657   5.360  0.00  0.00    +0.220 C 
ATOM     10  N   UNL     1       6.817  -3.270   6.502  0.00  0.00    -0.223 NA
ATOM     11  C   UNL     1       5.795  -4.078   7.154  0.00  0.00    +0.224 C 
ATOM     12  N   UNL     1       4.437  -3.638   6.786  0.00  0.00    -0.313 N 
ATOM     13  C   UNL     1       3.056  -2.208   1.709  0.00  0.00    -0.035 C 
ATOM     14  H   UNL     1       3.707  -3.638   7.425  0.00  0.00    +0.149 HD
ATOM     15  H   UNL     1       4.019  -0.434   1.382  0.00  0.00    -0.081 HD
ENDROOT
BRANCH  11  16
ATOM     16  C   UNL     1       5.971  -5.518   6.745  0.00  0.00    -0.002 A 
ATOM     17  C   UNL     1       4.873  -6.356   6.675  0.00  0.00    +0.007 A 
ATOM     18  C   UNL     1       5.032  -7.677   6.299  0.00  0.00    +0.004 A 
ATOM     19  C   UNL     1       6.288  -8.164   5.994  0.00  0.00    +0.046 A 
ATOM     20  C   UNL     1       7.391  -7.325   6.064  0.00  0.00    +0.132 A 
ATOM     21  C   UNL     1       7.229  -5.998   6.435  0.00  0.00    +0.053 A 
BRANCH  20  22
ATOM     22  O   UNL     1       8.629  -7.802   5.765  0.00  0.00    -0.423 OA
BRANCH  22  23
ATOM     23  C   UNL     1       9.519  -7.930   6.771  0.00  0.00    +0.337 C 
ATOM     24  O   UNL     1       9.173  -7.722   7.920  0.00  0.00    -0.245 OA
BRANCH  23  25
ATOM     25  C   UNL     1      10.852  -8.304   6.492  0.00  0.00    +0.095 C 
ATOM     26  C   UNL     1      11.748  -8.433   7.504  0.00  0.00    +0.053 C 
BRANCH  26  27
ATOM     27  C   UNL     1      13.083  -8.808   7.223  0.00  0.00    +0.128 A 
ATOM     28  C   UNL     1      14.091  -8.980   8.150  0.00  0.00    +0.049 A 
ATOM     29  C   UNL     1      15.237  -9.349   7.430  0.00  0.00    +0.042 A 
ATOM     30  C   UNL     1      14.893  -9.387   6.123  0.00  0.00    +0.195 A 
ATOM     31  O   UNL     1      13.597  -9.067   6.003  0.00  0.00    -0.464 OA
ENDBRANCH  26  27
ENDBRANCH  23  25
ENDBRANCH  22  23
ENDBRANCH  20  22
ENDBRANCH  11  16
BRANCH   9  32
ATOM     32  O   UNL     1       7.676  -1.974   4.786  0.00  0.00    -0.492 OA
ATOM     33  H   UNL     1       8.497  -1.989   5.295  0.00  0.00    +0.294 HD
ENDBRANCH   9  32
BRANCH   1  34
ATOM     34  C   UNL     1       3.498  -1.209  -0.432  0.00  0.00    -0.043 C 
BRANCH  34  38
ATOM     35  C   UNL     1      -0.244   0.851  -0.443  0.00  0.00    +0.000 A 
ATOM     36  C   UNL     1       0.937   1.563  -0.538  0.00  0.00    +0.000 A 
ATOM     37  C   UNL     1       2.148   0.896  -0.534  0.00  0.00    +0.002 A 
ATOM     38  C   UNL     1       2.178  -0.482  -0.435  0.00  0.00    -0.064 A 
ATOM     39  C   UNL     1       0.997  -1.194  -0.339  0.00  0.00    +0.002 A 
ATOM     40  C   UNL     1      -0.214  -0.527  -0.344  0.00  0.00    +0.000 A 
ENDBRANCH  34  38
ENDBRANCH   1  34
TORSDOF 8
