REMARK  Name = ZINC36371105
REMARK  10 active torsions:
REMARK  status: ('A' for Active; 'I' for Inactive)
REMARK    1  A    between atoms: C_1  and  C_2
REMARK    2  A    between atoms: C_4  and  O_42
REMARK    3  A    between atoms: C_14  and  C_20
REMARK    4  A    between atoms: C_16  and  C_18
REMARK    5  A    between atoms: C_16  and  C_19
REMARK    6  A    between atoms: C_20  and  C_22
REMARK    7  A    between atoms: C_22  and  O_23
REMARK    8  A    between atoms: O_23  and  C_24
REMARK    9  A    between atoms: C_24  and  C_26
REMARK   10  A    between atoms: C_38  and  C_39
REMARK                            x       y       z     vdW  Elec       q    Type
REMARK                         _______ _______ _______ _____ _____    ______ ____
ROOT
ATOM      1  C   UNL     1       0.300   1.646  -0.026  0.00  0.00    +0.015 C 
ATOM      2  C   UNL     1       0.142   0.126   0.026  0.00  0.00    +0.012 C 
ATOM      3  C   UNL     1      -1.302  -0.247   0.313  0.00  0.00    +0.044 C 
ATOM      4  C   UNL     1      -1.704   0.465   1.614  0.00  0.00    +0.154 C 
ATOM      5  C   UNL     1      -0.790   0.079   2.773  0.00  0.00    +0.153 C 
ATOM      6  C   UNL     1       0.690   0.317   2.432  0.00  0.00    +0.037 C 
ATOM      7  C   UNL     1       0.999  -0.472   1.174  0.00  0.00    +0.007 C 
ATOM      8  C   UNL     1       2.425  -0.349   0.648  0.00  0.00    +0.039 C 
ATOM      9  C   UNL     1       2.305  -0.437  -0.891  0.00  0.00    +0.162 C 
ATOM     10  C   UNL     1       0.779  -0.522  -1.209  0.00  0.00    +0.165 C 
ATOM     11  O   UNL     1       0.516  -1.937  -1.189  0.00  0.00    -0.332 OA
ATOM     12  C   UNL     1       1.740  -2.594  -1.529  0.00  0.00    +0.166 C 
ATOM     13  O   UNL     1       2.853  -1.682  -1.341  0.00  0.00    -0.343 OA
ATOM     14  C   UNL     1       1.692  -3.037  -2.992  0.00  0.00    +0.074 C 
ATOM     15  C   UNL     1       1.929  -3.819  -0.631  0.00  0.00    +0.074 C 
ATOM     16  C   UNL     1       1.567  -0.155   3.594  0.00  0.00    +0.048 C 
ATOM     17  C   UNL     1       1.272   0.689   4.838  0.00  0.00    +0.194 C 
ATOM     18  C   UNL     1      -0.217   0.612   5.118  0.00  0.00    -0.020 C 
ATOM     19  C   UNL     1      -0.627   0.276   6.333  0.00  0.00    +0.054 C 
ATOM     20  C   UNL     1      -2.062   0.171   6.637  0.00  0.00    +0.179 C 
ATOM     21  O   UNL     1      -2.443  -0.100   7.761  0.00  0.00    -0.288 OA
ATOM     22  C   UNL     1      -3.029   0.403   5.550  0.00  0.00    +0.047 C 
ATOM     23  C   UNL     1      -2.598   0.743   4.346  0.00  0.00    -0.009 C 
ATOM     24  C   UNL     1      -1.156   0.909   4.007  0.00  0.00    +0.047 C 
ATOM     25  C   UNL     1      -0.961   2.384   3.652  0.00  0.00    +0.023 C 
ATOM     26  F   UNL     1       1.985   0.184   5.931  0.00  0.00    -0.241 F 
ATOM     27  F   UNL     1      -0.964  -1.278   3.064  0.00  0.00    -0.238 F 
ENDROOT
BRANCH  10  28
ATOM     28  C   UNL     1       0.394   0.152  -2.500  0.00  0.00    +0.205 C 
ATOM     29  O   UNL     1       1.083   1.037  -2.948  0.00  0.00    -0.291 OA
BRANCH  28  30
ATOM     30  C   UNL     1      -0.851  -0.278  -3.233  0.00  0.00    +0.309 C 
BRANCH  30  31
ATOM     31  O   UNL     1      -1.065   0.581  -4.354  0.00  0.00    -0.457 OA
BRANCH  31  32
ATOM     32  C   UNL     1      -2.140   0.331  -5.117  0.00  0.00    +0.311 C 
ATOM     33  O   UNL     1      -2.876  -0.587  -4.842  0.00  0.00    -0.251 OA
BRANCH  32  34
ATOM     34  C   UNL     1      -2.430   1.196  -6.317  0.00  0.00    +0.098 C 
ATOM     35  C   UNL     1      -3.662   2.102  -6.253  0.00  0.00    +0.015 C 
ATOM     36  C   UNL     1      -3.671   0.860  -7.146  0.00  0.00    +0.015 C 
ENDBRANCH  32  34
ENDBRANCH  31  32
ENDBRANCH  30  31
ENDBRANCH  28  30
ENDBRANCH  10  28
BRANCH   4  37
ATOM     37  O   UNL     1      -3.048   0.110   1.944  0.00  0.00    -0.389 OA
ATOM     38  H   UNL     1      -3.696   0.353   1.269  0.00  0.00    +0.210 HD
ENDBRANCH   4  37
TORSDOF 6
