REMARK  Name = ZINC39483298
REMARK  11 active torsions:
REMARK  status: ('A' for Active; 'I' for Inactive)
REMARK    1  A    between atoms: C_1  and  C_2
REMARK    2  A    between atoms: C_2  and  C_3
REMARK    3  A    between atoms: C_18  and  C_19
REMARK    4  A    between atoms: C_21  and  S_31
REMARK    5  A    between atoms: C_23  and  S_25
REMARK    6  A    between atoms: S_25  and  C_28
REMARK    7  A    between atoms: C_28  and  C_29
REMARK    8  A    between atoms: C_28  and  C_30
REMARK    9  A    between atoms: S_31  and  C_34
REMARK   10  A    between atoms: C_34  and  C_35
REMARK   11  A    between atoms: C_34  and  C_36
REMARK                            x       y       z     vdW  Elec       q    Type
REMARK                         _______ _______ _______ _____ _____    ______ ____
ROOT
ATOM      1  C   UNL     1       0.795   0.896   2.167  0.00  0.00    -0.021 A 
ATOM      2  C   UNL     1       2.171   0.860   2.206  0.00  0.00    +0.006 A 
ATOM      3  C   UNL     1       2.836  -0.050   3.018  0.00  0.00    +0.001 A 
ATOM      4  C   UNL     1       2.131  -0.931   3.809  0.00  0.00    +0.015 A 
ATOM      5  C   UNL     1       0.738  -0.907   3.791  0.00  0.00    +0.065 A 
ATOM      6  C   UNL     1       0.057   0.012   2.959  0.00  0.00    +0.082 A 
ATOM      7  N   UNL     1      -1.287  -0.003   2.937  0.00  0.00    -0.229 NA
ATOM      8  C   UNL     1      -1.996  -0.816   3.693  0.00  0.00    +0.140 A 
ATOM      9  N   UNL     1      -1.417  -1.681   4.588  0.00  0.00    -0.293 N 
ATOM     10  C   UNL     1      -0.064  -1.813   4.622  0.00  0.00    +0.262 A 
ATOM     11  O   UNL     1       0.466  -2.648   5.331  0.00  0.00    -0.267 OA
ATOM     12  C   UNL     1      -2.204  -2.454   5.540  0.00  0.00    +0.127 C 
ATOM     13  C   UNL     1      -3.615  -2.742   5.080  0.00  0.00    +0.026 C 
ATOM     14  C   UNL     1      -4.322  -1.507   4.547  0.00  0.00    +0.040 C 
ATOM     15  C   UNL     1      -3.457  -0.795   3.547  0.00  0.00    -0.004 C 
ATOM     16  C   UNL     1      -4.022  -0.137   2.516  0.00  0.00    +0.015 C 
ENDROOT
BRANCH  16  17
ATOM     17  C   UNL     1      -5.484   0.023   2.457  0.00  0.00    -0.021 A 
ATOM     18  C   UNL     1      -6.224   0.162   3.635  0.00  0.00    +0.035 A 
ATOM     19  C   UNL     1      -7.594   0.311   3.571  0.00  0.00    +0.091 A 
ATOM     20  C   UNL     1      -8.236   0.323   2.345  0.00  0.00    +0.054 A 
ATOM     21  C   UNL     1      -7.511   0.186   1.175  0.00  0.00    +0.091 A 
ATOM     22  C   UNL     1      -6.140   0.042   1.222  0.00  0.00    +0.035 A 
BRANCH  21  23
ATOM     23  S   UNL     1      -8.339   0.203  -0.380  0.00  0.00    -0.001 S 
ATOM     24  O   UNL     1      -7.496  -0.540  -1.249  0.00  0.00    -0.169 OA
ATOM     25  O   UNL     1      -9.657  -0.244  -0.093  0.00  0.00    -0.169 OA
BRANCH  23  26
ATOM     26  C   UNL     1      -8.366   1.948  -0.875  0.00  0.00    +0.130 C 
ATOM     27  C   UNL     1      -6.931   2.466  -0.993  0.00  0.00    +0.032 C 
ATOM     28  C   UNL     1      -9.070   2.083  -2.227  0.00  0.00    +0.032 C 
ENDBRANCH  23  26
ENDBRANCH  21  23
BRANCH  19  29
ATOM     29  S   UNL     1      -8.529   0.485   5.055  0.00  0.00    -0.001 S 
ATOM     30  O   UNL     1      -9.825   0.006   4.725  0.00  0.00    -0.169 OA
ATOM     31  O   UNL     1      -7.750  -0.161   6.052  0.00  0.00    -0.169 OA
BRANCH  29  32
ATOM     32  C   UNL     1      -8.583   2.272   5.364  0.00  0.00    +0.130 C 
ATOM     33  C   UNL     1      -9.270   2.537   6.705  0.00  0.00    +0.032 C 
ATOM     34  C   UNL     1      -7.157   2.826   5.403  0.00  0.00    +0.032 C 
ENDBRANCH  29  32
ENDBRANCH  19  29
ENDBRANCH  16  17
BRANCH   1  36
ATOM     35  C   UNL     1      -0.259   3.139   2.091  0.00  0.00    +0.009 C 
ATOM     36  C   UNL     1       0.089   1.889   1.280  0.00  0.00    +0.034 C 
ENDBRANCH   1  36
TORSDOF 6
