REMARK  Name = ZINC65248618
REMARK  6 active torsions:
REMARK  status: ('A' for Active; 'I' for Inactive)
REMARK    1  A    between atoms: C_1  and  C_2
REMARK    2  A    between atoms: C_2  and  O_3
REMARK    3  A    between atoms: O_3  and  C_4
REMARK    4  A    between atoms: C_9  and  C_10
REMARK    5  A    between atoms: C_13  and  C_16
REMARK    6  A    between atoms: C_18  and  O_29
REMARK                            x       y       z     vdW  Elec       q    Type
REMARK                         _______ _______ _______ _____ _____    ______ ____
ROOT
ATOM      1  C   UNL     1       1.986  -1.424  -3.485  0.00  0.00    +0.171 C 
ATOM      2  N   UNL     1       1.942  -0.133  -3.419  0.00  0.00    -0.067 NA
ATOM      3  O   UNL     1       2.570   0.452  -4.544  0.00  0.00    -0.368 OA
ATOM      4  C   UNL     1       3.035  -0.632  -5.363  0.00  0.00    +0.311 C 
ATOM      5  N   UNL     1       2.637  -1.845  -4.630  0.00  0.00    -0.288 N 
ATOM      6  H   UNL     1       2.799  -2.762  -4.899  0.00  0.00    +0.151 HD
ENDROOT
BRANCH   4   7
ATOM      7  C   UNL     1       2.367  -0.588  -6.738  0.00  0.00    +0.202 C 
ATOM      8  C   UNL     1       2.779   0.706  -7.414  0.00  0.00    +0.120 C 
ATOM      9  C   UNL     1       3.427   0.600  -8.646  0.00  0.00    +0.036 A 
ATOM     10  C   UNL     1       3.844   1.754  -9.342  0.00  0.00    +0.013 A 
ATOM     11  C   UNL     1       4.474   1.624 -10.541  0.00  0.00    +0.002 A 
ATOM     12  C   UNL     1       4.718   0.372 -11.098  0.00  0.00    +0.022 A 
ATOM     13  C   UNL     1       4.338  -0.778 -10.473  0.00  0.00    +0.063 A 
ATOM     14  C   UNL     1       3.682  -0.719  -9.231  0.00  0.00    +0.062 A 
ATOM     15  N   UNL     1       3.311  -1.850  -8.618  0.00  0.00    -0.283 N 
ATOM     16  C   UNL     1       2.694  -1.878  -7.455  0.00  0.00    +0.233 C 
ATOM     17  O   UNL     1       2.386  -2.946  -6.956  0.00  0.00    -0.274 OA
ATOM     18 CL   UNL     1       4.665  -2.316 -11.210  0.00  0.00    -0.082 Cl
ATOM     19  H   UNL     1       3.507  -2.694  -9.054  0.00  0.00    +0.155 HD
BRANCH   8  20
ATOM     20  O   UNL     1       2.531   1.895  -6.855  0.00  0.00    -0.509 OA
ATOM     21  H   UNL     1       2.839   2.648  -7.378  0.00  0.00    +0.292 HD
ENDBRANCH   8  20
ENDBRANCH   4   7
BRANCH   1  27
ATOM     22  C   UNL     1       0.777  -1.809  -1.336  0.00  0.00    +0.131 A 
ATOM     23  C   UNL     1       0.244  -2.668  -0.388  0.00  0.00    +0.046 A 
ATOM     24  C   UNL     1       0.352  -4.035  -0.554  0.00  0.00    +0.004 A 
ATOM     25  C   UNL     1       0.993  -4.556  -1.665  0.00  0.00    +0.001 A 
ATOM     26  C   UNL     1       1.528  -3.714  -2.618  0.00  0.00    +0.015 A 
ATOM     27  C   UNL     1       1.419  -2.332  -2.464  0.00  0.00    +0.060 A 
BRANCH  22  28
ATOM     28  O   UNL     1       0.671  -0.465  -1.174  0.00  0.00    -0.492 OA
BRANCH  28  30
ATOM     29  C   UNL     1      -0.019   1.526   0.010  0.00  0.00    +0.048 C 
ATOM     30  C   UNL     1       0.002  -0.004   0.002  0.00  0.00    +0.226 C 
ENDBRANCH  28  30
ENDBRANCH  22  28
ENDBRANCH   1  27
TORSDOF 5
