REMARK  Name = ZINC63398570
REMARK  9 active torsions:
REMARK  status: ('A' for Active; 'I' for Inactive)
REMARK    1  A    between atoms: C_1  and  C_2
REMARK    2  A    between atoms: C_2  and  C_4
REMARK    3  A    between atoms: C_2  and  N_21
REMARK    4  A    between atoms: N_6  and  C_7
REMARK    5  A    between atoms: C_15  and  C_17
REMARK    6  A    between atoms: C_17  and  O_19
REMARK    7  A    between atoms: O_19  and  C_20
REMARK    8  A    between atoms: C_24  and  C_27
REMARK    9  A    between atoms: C_27  and  C_28
REMARK                            x       y       z     vdW  Elec       q    Type
REMARK                         _______ _______ _______ _____ _____    ______ ____
ROOT
ATOM      1  C   UNL     1       0.633   0.273   1.817  0.00  0.00    +0.203 C 
ATOM      2  O   UNL     1       1.108  -0.695   1.263  0.00  0.00    -0.277 OA
ATOM      3  N   UNL     1       0.760   0.417   3.151  0.00  0.00    -0.288 N 
ATOM      4  H   UNL     1       0.320   1.154   3.603  0.00  0.00    +0.155 HD
ENDROOT
BRANCH   3   5
ATOM      5  C   UNL     1       1.507  -0.472   3.864  0.00  0.00    +0.053 C 
ATOM      6  C   UNL     1       1.656  -0.524   5.239  0.00  0.00    +0.018 A 
ATOM      7  C   UNL     1       1.126   0.265   6.288  0.00  0.00    +0.011 A 
ATOM      8  C   UNL     1       1.450  -0.021   7.573  0.00  0.00    +0.001 A 
ATOM      9  C   UNL     1       2.300  -1.082   7.896  0.00  0.00    +0.002 A 
ATOM     10  C   UNL     1       2.844  -1.879   6.944  0.00  0.00    +0.026 A 
ATOM     11  C   UNL     1       2.553  -1.643   5.575  0.00  0.00    +0.045 A 
ATOM     12  N   UNL     1       2.947  -2.262   4.481  0.00  0.00    -0.367 N 
ATOM     13  C   UNL     1       2.340  -1.610   3.317  0.00  0.00    +0.234 C 
ATOM     14  H   UNL     1       3.541  -3.029   4.451  0.00  0.00    +0.161 HD
BRANCH  13  15
ATOM     15  C   UNL     1       3.415  -1.075   2.406  0.00  0.00    +0.335 C 
ATOM     16  O   UNL     1       4.436  -0.629   2.873  0.00  0.00    -0.248 OA
BRANCH  15  17
ATOM     17  O   UNL     1       3.238  -1.095   1.075  0.00  0.00    -0.466 OA
ATOM     18  C   UNL     1       4.298  -0.573   0.272  0.00  0.00    +0.280 C 
ENDBRANCH  15  17
ENDBRANCH  13  15
ENDBRANCH   3   5
BRANCH   1  20
ATOM     19  C   UNL     1       0.874   2.423   0.605  0.00  0.00    -0.004 C 
ATOM     20  C   UNL     1      -0.100   1.316   1.013  0.00  0.00    +0.016 C 
BRANCH  20  21
ATOM     21  N   UNL     1      -0.669   0.696  -0.191  0.00  0.00    +0.387 N 
ATOM     22  C   UNL     1      -1.661  -0.312   0.202  0.00  0.00    -0.078 C 
ATOM     23  C   UNL     1      -2.198  -1.018  -1.045  0.00  0.00    -0.015 C 
ATOM     24  C   UNL     1      -2.854   0.014  -1.967  0.00  0.00    -0.010 C 
ATOM     25  C   UNL     1      -1.831   1.101  -2.310  0.00  0.00    -0.015 C 
ATOM     26  C   UNL     1      -1.308   1.728  -1.016  0.00  0.00    -0.078 C 
ATOM     27  H   UNL     1       0.067   0.252  -0.720  0.00  0.00    -0.081 HD
BRANCH  24  28
ATOM     28  C   UNL     1      -3.323  -0.672  -3.252  0.00  0.00    +0.038 C 
BRANCH  28  29
ATOM     29  C   UNL     1      -4.076   0.317  -4.103  0.00  0.00    -0.047 A 
ATOM     30  C   UNL     1      -5.442   0.461  -3.950  0.00  0.00    +0.003 A 
ATOM     31  C   UNL     1      -6.134   1.368  -4.731  0.00  0.00    +0.000 A 
ATOM     32  C   UNL     1      -5.458   2.132  -5.665  0.00  0.00    +0.000 A 
ATOM     33  C   UNL     1      -4.092   1.988  -5.817  0.00  0.00    +0.000 A 
ATOM     34  C   UNL     1      -3.400   1.084  -5.033  0.00  0.00    +0.003 A 
ENDBRANCH  28  29
ENDBRANCH  24  28
ENDBRANCH  20  21
ENDBRANCH   1  20
TORSDOF 7
