REMARK  Name = ZINC14184960
REMARK  8 active torsions:
REMARK  status: ('A' for Active; 'I' for Inactive)
REMARK    1  A    between atoms: C_1  and  C_2
REMARK    2  A    between atoms: C_2  and  C_23
REMARK    3  A    between atoms: N_5  and  N_9
REMARK    4  A    between atoms: C_10  and  C_12
REMARK    5  A    between atoms: C_12  and  S_13
REMARK    6  A    between atoms: S_13  and  C_14
REMARK    7  A    between atoms: C_23  and  C_24
REMARK    8  A    between atoms: C_24  and  C_25
REMARK                            x       y       z     vdW  Elec       q    Type
REMARK                         _______ _______ _______ _____ _____    ______ ____
ROOT
ATOM      1  C   UNL     1       1.748   2.588  -1.259  0.00  0.00    +0.041 C 
ATOM      2  C   UNL     1       1.437   1.773  -0.002  0.00  0.00    +0.112 C 
ATOM      3  C   UNL     1      -0.016   1.343   0.009  0.00  0.00    +0.263 C 
ATOM      4  O   UNL     1      -0.992   2.062   0.018  0.00  0.00    -0.271 OA
ATOM      5  N   UNL     1       0.002  -0.004   0.002  0.00  0.00    -0.137 N 
ATOM      6  C   UNL     1       1.252  -0.481  -0.013  0.00  0.00    +0.326 C 
ATOM      7  O   UNL     1       1.524  -1.665  -0.021  0.00  0.00    -0.251 OA
ATOM      8  N   UNL     1       2.175   0.498  -0.016  0.00  0.00    -0.284 N 
ATOM      9  H   UNL     1       3.139   0.386  -0.026  0.00  0.00    +0.151 HD
ENDROOT
BRANCH   5  10
ATOM     10  N   UNL     1      -1.146  -0.807   0.009  0.00  0.00    -0.223 N 
ATOM     11  C   UNL     1      -1.537  -1.434  -1.117  0.00  0.00    +0.240 C 
ATOM     12  O   UNL     1      -0.894  -1.304  -2.138  0.00  0.00    -0.273 OA
ATOM     13  H   UNL     1      -1.660  -0.911   0.826  0.00  0.00    +0.174 HD
BRANCH  11  14
ATOM     14  C   UNL     1      -2.772  -2.298  -1.110  0.00  0.00    +0.174 C 
BRANCH  14  15
ATOM     15  S   UNL     1      -3.031  -2.998  -2.763  0.00  0.00    -0.076 S 
BRANCH  15  16
ATOM     16  C   UNL     1      -4.491  -3.969  -2.591  0.00  0.00    +0.196 A 
ATOM     17  N   UNL     1      -5.197  -4.126  -1.494  0.00  0.00    -0.122 NA
ATOM     18  N   UNL     1      -6.204  -4.896  -1.717  0.00  0.00    -0.129 NA
ATOM     19  C   UNL     1      -6.195  -5.285  -2.978  0.00  0.00    +0.162 A 
ATOM     20  N   UNL     1      -5.096  -4.700  -3.570  0.00  0.00    -0.278 N 
ATOM     21  C   UNL     1      -4.821  -4.922  -4.891  0.00  0.00    +0.095 A 
ATOM     22  C   UNL     1      -5.621  -5.716  -5.631  0.00  0.00    +0.018 A 
ATOM     23  C   UNL     1      -6.750  -6.327  -5.054  0.00  0.00    +0.005 A 
ATOM     24  C   UNL     1      -7.037  -6.117  -3.743  0.00  0.00    +0.049 A 
ENDBRANCH  15  16
ENDBRANCH  14  15
ENDBRANCH  11  14
ENDBRANCH   5  10
BRANCH   2  25
ATOM     25  C   UNL     1       1.772   2.575   1.257  0.00  0.00    +0.040 C 
BRANCH  25  26
ATOM     26  C   UNL     1       3.243   2.995   1.219  0.00  0.00    +0.038 C 
BRANCH  26  27
ATOM     27  C   UNL     1       3.572   3.784   2.460  0.00  0.00    -0.047 A 
ATOM     28  C   UNL     1       3.425   5.159   2.463  0.00  0.00    +0.003 A 
ATOM     29  C   UNL     1       3.722   5.883   3.603  0.00  0.00    +0.000 A 
ATOM     30  C   UNL     1       4.177   5.233   4.735  0.00  0.00    +0.000 A 
ATOM     31  C   UNL     1       4.329   3.859   4.730  0.00  0.00    +0.000 A 
ATOM     32  C   UNL     1       4.027   3.135   3.592  0.00  0.00    +0.003 A 
ENDBRANCH  26  27
ENDBRANCH  25  26
ENDBRANCH   2  25
TORSDOF 7
