REMARK  Name = ZINC14607764
REMARK  6 active torsions:
REMARK  status: ('A' for Active; 'I' for Inactive)
REMARK    1  A    between atoms: C_1  and  O_2
REMARK    2  A    between atoms: O_2  and  C_3
REMARK    3  A    between atoms: C_3  and  C_4
REMARK    4  A    between atoms: C_5  and  C_26
REMARK    5  A    between atoms: C_14  and  C_19
REMARK    6  A    between atoms: C_24  and  O_25
REMARK                            x       y       z     vdW  Elec       q    Type
REMARK                         _______ _______ _______ _____ _____    ______ ____
ROOT
ATOM      1  C   UNL     1      -0.718   1.572   1.248  0.00  0.00    +0.099 A 
ATOM      2  C   UNL     1      -0.450   2.771   1.920  0.00  0.00    +0.053 A 
ATOM      3  C   UNL     1      -1.322   2.840   3.009  0.00  0.00    +0.186 A 
ATOM      4  N   UNL     1      -1.508   3.747   3.974  0.00  0.00    -0.128 NA
ATOM      5  N   UNL     1      -2.396   3.574   4.890  0.00  0.00    -0.142 NA
ATOM      6  C   UNL     1      -3.171   2.474   4.914  0.00  0.00    +0.150 A 
ATOM      7  C   UNL     1      -3.021   1.500   3.948  0.00  0.00    +0.076 A 
ATOM      8  N   UNL     1      -2.082   1.694   2.979  0.00  0.00    -0.214 N 
ATOM      9  N   UNL     1      -1.679   0.938   1.876  0.00  0.00    -0.167 NA
ATOM     10  C   UNL     1      -3.850   0.248   3.942  0.00  0.00    +0.066 C 
ATOM     11  C   UNL     1      -5.155   0.444   4.710  0.00  0.00    +0.036 C 
ATOM     12  C   UNL     1      -4.841   0.958   6.121  0.00  0.00    +0.090 C 
ATOM     13  C   UNL     1      -4.184   2.314   5.972  0.00  0.00    +0.185 C 
ATOM     14  O   UNL     1      -4.481   3.238   6.700  0.00  0.00    -0.290 OA
ENDROOT
BRANCH   2  15
ATOM     15  C   UNL     1       0.568   3.781   1.544  0.00  0.00    -0.012 A 
ATOM     16  C   UNL     1       1.923   3.459   1.594  0.00  0.00    +0.011 A 
ATOM     17  C   UNL     1       2.867   4.401   1.238  0.00  0.00    +0.039 A 
ATOM     18  C   UNL     1       2.470   5.667   0.841  0.00  0.00    +0.123 A 
ATOM     19  C   UNL     1       1.124   5.993   0.795  0.00  0.00    +0.039 A 
ATOM     20  C   UNL     1       0.172   5.057   1.144  0.00  0.00    +0.011 A 
ATOM     21  F   UNL     1       3.397   6.588   0.498  0.00  0.00    -0.205 F 
ENDBRANCH   2  15
BRANCH  11  22
ATOM     22  C   UNL     1      -5.885  -0.872   4.804  0.00  0.00    -0.002 A 
ATOM     23  C   UNL     1      -5.288  -1.951   5.426  0.00  0.00    +0.007 A 
ATOM     24  C   UNL     1      -5.957  -3.157   5.513  0.00  0.00    +0.001 A 
ATOM     25  C   UNL     1      -7.226  -3.287   4.979  0.00  0.00    +0.004 A 
ATOM     26  C   UNL     1      -7.827  -2.211   4.356  0.00  0.00    +0.046 A 
ATOM     27  C   UNL     1      -7.160  -0.998   4.272  0.00  0.00    +0.120 A 
BRANCH  27  28
ATOM     28  O   UNL     1      -7.752   0.064   3.664  0.00  0.00    -0.506 OA
ATOM     29  H   UNL     1      -7.576   0.123   2.716  0.00  0.00    +0.292 HD
ENDBRANCH  27  28
ENDBRANCH  11  22
BRANCH   1  30
ATOM     30  C   UNL     1      -0.013   1.086   0.008  0.00  0.00    +0.217 C 
BRANCH  30  32
ATOM     31  C   UNL     1      -0.114   1.152  -2.386  0.00  0.00    +0.194 C 
ATOM     32  O   UNL     1      -0.704   1.559  -1.150  0.00  0.00    -0.377 OA
ENDBRANCH  30  32
ENDBRANCH   1  30
TORSDOF 5
