REMARK  Name = ZINC36862630
REMARK  5 active torsions:
REMARK  status: ('A' for Active; 'I' for Inactive)
REMARK    1  A    between atoms: C_1  and  C_2
REMARK    2  A    between atoms: C_2  and  N_3
REMARK    3  A    between atoms: C_5  and  N_20
REMARK    4  A    between atoms: C_7  and  C_8
REMARK    5  A    between atoms: N_10  and  C_11
REMARK                            x       y       z     vdW  Elec       q    Type
REMARK                         _______ _______ _______ _____ _____    ______ ____
ROOT
ATOM      1  C   UNL     1      -1.915  -0.840  -2.596  0.00  0.00    +0.265 C 
ATOM      2  O   UNL     1      -0.777  -1.036  -2.979  0.00  0.00    -0.268 OA
ATOM      3  N   UNL     1      -2.813  -0.259  -3.416  0.00  0.00    -0.278 N 
ATOM      4  H   UNL     1      -3.695  -0.030  -3.085  0.00  0.00    +0.155 HD
ENDROOT
BRANCH   3   5
ATOM      5  C   UNL     1      -2.471   0.014  -4.746  0.00  0.00    +0.071 A 
ATOM      6  C   UNL     1      -1.310   0.720  -5.035  0.00  0.00    +0.065 A 
ATOM      7  C   UNL     1      -0.975   0.987  -6.349  0.00  0.00    +0.037 A 
ATOM      8  C   UNL     1      -1.795   0.554  -7.376  0.00  0.00    +0.021 A 
ATOM      9  C   UNL     1      -2.953  -0.148  -7.091  0.00  0.00    +0.037 A 
ATOM     10  C   UNL     1      -3.290  -0.424  -5.779  0.00  0.00    +0.065 A 
ATOM     11 CL   UNL     1      -4.739  -1.311  -5.423  0.00  0.00    -0.082 Cl
ATOM     12 BR   UNL     1      -1.333   0.923  -9.172  0.00  0.00    -0.050 Br
ATOM     13 CL   UNL     1      -0.280   1.264  -3.748  0.00  0.00    -0.082 Cl
ENDBRANCH   3   5
BRANCH   1  18
ATOM     14  N   UNL     1      -1.479  -1.741  -0.267  0.00  0.00    -0.342 N 
ATOM     15  C   UNL     1      -2.214  -1.983   0.851  0.00  0.00    +0.109 A 
ATOM     16  C   UNL     1      -3.507  -1.646   0.606  0.00  0.00    +0.043 A 
ATOM     17  C   UNL     1      -3.584  -1.177  -0.713  0.00  0.00    +0.055 A 
ATOM     18  C   UNL     1      -2.311  -1.237  -1.241  0.00  0.00    +0.106 A 
BRANCH  16  19
ATOM     19  N   UNL     1      -4.579  -1.750   1.512  0.00  0.00    -0.357 N 
ATOM     20  H   UNL     1      -4.425  -2.089   2.408  0.00  0.00    +0.142 HD
ATOM     21  H   UNL     1      -5.471  -1.483   1.242  0.00  0.00    +0.142 HD
ENDBRANCH  16  19
BRANCH  14  23
ATOM     22  C   UNL     1       0.712  -0.657  -0.193  0.00  0.00    +0.027 C 
ATOM     23  C   UNL     1      -0.040  -1.972  -0.409  0.00  0.00    +0.118 C 
ENDBRANCH  14  23
ENDBRANCH   1  18
TORSDOF 4
