REMARK  Name = ZINC63694333
REMARK  5 active torsions:
REMARK  status: ('A' for Active; 'I' for Inactive)
REMARK    1  A    between atoms: C_4  and  C_7
REMARK    2  A    between atoms: C_10  and  C_22
REMARK    3  A    between atoms: N_13  and  C_14
REMARK    4  A    between atoms: N_24  and  C_25
REMARK    5  A    between atoms: C_25  and  C_26
REMARK                            x       y       z     vdW  Elec       q    Type
REMARK                         _______ _______ _______ _____ _____    ______ ____
ROOT
ATOM      1  C   UNL     1       3.711  -0.707  -0.038  0.00  0.00    +0.105 C 
ATOM      2  C   UNL     1       4.036  -1.275   1.368  0.00  0.00    +0.054 C 
ATOM      3  C   UNL     1       4.952  -2.473   1.006  0.00  0.00    +0.157 C 
ATOM      4  N   UNL     1       4.376  -2.986  -0.257  0.00  0.00    -0.241 NA
ATOM      5  N   UNL     1       3.623  -1.911  -0.894  0.00  0.00    -0.230 NA
ATOM      6  H   UNL     1       5.099  -3.332  -0.870  0.00  0.00    +0.142 HD
ENDROOT
BRANCH   5   7
ATOM      7  C   UNL     1       4.132  -1.634  -2.244  0.00  0.00    +0.096 C 
ATOM      8  C   UNL     1       3.943  -2.874  -3.135  0.00  0.00    +0.044 C 
ATOM      9  C   UNL     1       4.754  -2.712  -4.443  0.00  0.00    +0.167 C 
ATOM     10  S   UNL     1       6.140  -1.619  -3.927  0.00  0.00    -0.029 S 
ATOM     11  O   UNL     1       6.059  -0.398  -4.649  0.00  0.00    -0.174 OA
ATOM     12  O   UNL     1       7.349  -2.365  -3.948  0.00  0.00    -0.174 OA
ATOM     13  C   UNL     1       5.653  -1.315  -2.177  0.00  0.00    +0.186 C 
ENDBRANCH   5   7
BRANCH   1  17
ATOM     14  C   UNL     1      -0.017   1.378   0.010  0.00  0.00    +0.000 A 
ATOM     15  C   UNL     1       1.171   2.086   0.002  0.00  0.00    +0.000 A 
ATOM     16  C   UNL     1       2.377   1.411  -0.013  0.00  0.00    +0.005 A 
ATOM     17  C   UNL     1       2.396   0.029  -0.020  0.00  0.00    -0.029 A 
ATOM     18  C   UNL     1       1.208  -0.679  -0.012  0.00  0.00    +0.005 A 
ATOM     19  C   UNL     1       0.002  -0.004   0.002  0.00  0.00    +0.000 A 
ENDBRANCH   1  17
BRANCH   3  20
ATOM     20  C   UNL     1       4.898  -3.526   2.083  0.00  0.00    +0.232 C 
ATOM     21  O   UNL     1       4.204  -4.509   1.935  0.00  0.00    -0.274 OA
ATOM     22  N   UNL     1       5.621  -3.374   3.210  0.00  0.00    -0.310 N 
ATOM     23  H   UNL     1       6.176  -2.588   3.328  0.00  0.00    +0.149 HD
BRANCH  22  24
ATOM     24  C   UNL     1       5.568  -4.397   4.257  0.00  0.00    +0.151 C 
BRANCH  24  25
ATOM     25  C   UNL     1       6.473  -3.985   5.420  0.00  0.00    +0.191 C 
ATOM     26  N   UNL     1       6.071  -2.668   5.929  0.00  0.00    -0.362 N 
ATOM     27  C   UNL     1       7.085  -1.865   5.781  0.00  0.00    +0.060 A 
ATOM     28  C   UNL     1       7.289  -0.445   6.098  0.00  0.00    +0.027 A 
ATOM     29  C   UNL     1       8.476   0.133   5.824  0.00  0.00    +0.002 A 
ATOM     30  C   UNL     1       9.545  -0.569   5.241  0.00  0.00    +0.002 A 
ATOM     31  C   UNL     1       9.463  -1.874   4.910  0.00  0.00    +0.027 A 
ATOM     32  C   UNL     1       8.216  -2.609   5.163  0.00  0.00    +0.060 A 
ATOM     33  N   UNL     1       7.859  -3.843   4.954  0.00  0.00    -0.362 N 
ATOM     34  H   UNL     1       5.207  -2.438   6.307  0.00  0.00    +0.162 HD
ATOM     35  H   UNL     1       8.407  -4.541   4.562  0.00  0.00    +0.162 HD
ENDBRANCH  24  25
ENDBRANCH  22  24
ENDBRANCH   3  20
TORSDOF 5
