REMARK  Name = ZINC10058477
REMARK  11 active torsions:
REMARK  status: ('A' for Active; 'I' for Inactive)
REMARK    1  A    between atoms: C_1  and  C_2
REMARK    2  A    between atoms: C_2  and  N_3
REMARK    3  A    between atoms: C_7  and  C_9
REMARK    4  A    between atoms: C_9  and  C_11
REMARK    5  A    between atoms: C_9  and  S_12
REMARK    6  A    between atoms: S_12  and  C_13
REMARK    7  A    between atoms: N_26  and  C_27
REMARK    8  A    between atoms: C_27  and  C_28
REMARK    9  A    between atoms: C_28  and  C_29
REMARK   10  A    between atoms: C_29  and  C_30
REMARK   11  A    between atoms: C_29  and  C_31
REMARK                            x       y       z     vdW  Elec       q    Type
REMARK                         _______ _______ _______ _____ _____    ______ ____
ROOT
ATOM      1  C   UNL     1      -2.448  -4.567  -0.787  0.00  0.00    +0.198 A 
ATOM      2  N   UNL     1      -1.374  -5.216  -0.409  0.00  0.00    -0.120 NA
ATOM      3  N   UNL     1      -1.591  -6.581  -0.631  0.00  0.00    -0.109 NA
ATOM      4  C   UNL     1      -2.791  -6.725  -1.148  0.00  0.00    +0.240 A 
ATOM      5  N   UNL     1      -3.351  -5.481  -1.257  0.00  0.00    -0.256 N 
ATOM      6  C   UNL     1      -4.633  -5.325  -1.780  0.00  0.00    +0.064 A 
ATOM      7  C   UNL     1      -5.210  -4.070  -1.894  0.00  0.00    +0.027 A 
ATOM      8  C   UNL     1      -6.484  -3.943  -2.413  0.00  0.00    +0.002 A 
ATOM      9  C   UNL     1      -7.193  -5.062  -2.822  0.00  0.00    +0.001 A 
ATOM     10  C   UNL     1      -6.635  -6.319  -2.715  0.00  0.00    +0.015 A 
ATOM     11  C   UNL     1      -5.350  -6.459  -2.192  0.00  0.00    +0.064 A 
ATOM     12  C   UNL     1      -4.718  -7.785  -2.061  0.00  0.00    +0.263 A 
ATOM     13  O   UNL     1      -5.310  -8.789  -2.408  0.00  0.00    -0.267 OA
ATOM     14  N   UNL     1      -3.473  -7.864  -1.548  0.00  0.00    -0.277 N 
ENDROOT
BRANCH   1  15
ATOM     15  S   UNL     1      -2.684  -2.822  -0.710  0.00  0.00    -0.073 S 
BRANCH  15  16
ATOM     16  C   UNL     1      -1.135  -2.201   0.001  0.00  0.00    +0.137 C 
ATOM     17  C   UNL     1      -0.989  -2.717   1.434  0.00  0.00    +0.029 C 
BRANCH  16  22
ATOM     18  N   UNL     1       1.142   2.033   0.002  0.00  0.00    -0.299 N 
ATOM     19  C   UNL     1      -0.016   1.344   0.009  0.00  0.00    +0.306 C 
ATOM     20  O   UNL     1      -1.077   1.937   0.018  0.00  0.00    -0.252 OA
ATOM     21  N   UNL     1       0.002  -0.004   0.002  0.00  0.00    -0.239 N 
ATOM     22  C   UNL     1      -1.156  -0.694   0.009  0.00  0.00    +0.233 C 
ATOM     23  O   UNL     1      -2.214  -0.102   0.023  0.00  0.00    -0.274 OA
ATOM     24  H   UNL     1       1.988   1.560  -0.009  0.00  0.00    +0.150 HD
ATOM     25  H   UNL     1       0.849  -0.478  -0.009  0.00  0.00    +0.159 HD
BRANCH  18  27
ATOM     26  C   UNL     1       2.557   4.028  -0.001  0.00  0.00    +0.024 C 
ATOM     27  C   UNL     1       1.122   3.498   0.010  0.00  0.00    +0.102 C 
ENDBRANCH  18  27
ENDBRANCH  16  22
ENDBRANCH  15  16
ENDBRANCH   1  15
BRANCH  14  28
ATOM     28  C   UNL     1      -2.832  -9.174  -1.411  0.00  0.00    +0.128 C 
BRANCH  28  29
ATOM     29  C   UNL     1      -3.164  -9.763  -0.039  0.00  0.00    +0.025 C 
BRANCH  29  30
ATOM     30  C   UNL     1      -2.494 -11.131   0.104  0.00  0.00    -0.016 C 
ATOM     31  C   UNL     1      -0.974 -10.959   0.094  0.00  0.00    +0.007 C 
ATOM     32  C   UNL     1      -2.925 -11.775   1.423  0.00  0.00    +0.007 C 
ENDBRANCH  29  30
ENDBRANCH  28  29
ENDBRANCH  14  28
TORSDOF 7
