REMARK  Name = ZINC17130861
REMARK  4 active torsions:
REMARK  status: ('A' for Active; 'I' for Inactive)
REMARK    1  A    between atoms: C_7  and  C_15
REMARK    2  A    between atoms: N_16  and  C_17
REMARK    3  A    between atoms: C_20  and  S_23
REMARK    4  A    between atoms: S_23  and  N_26
REMARK                            x       y       z     vdW  Elec       q    Type
REMARK                         _______ _______ _______ _____ _____    ______ ____
ROOT
ATOM      1  C   UNL     1       1.216  -0.683  -0.022  0.00  0.00    +0.064 A 
ATOM      2  C   UNL     1      -0.007  -0.004  -0.020  0.00  0.00    +0.029 A 
ATOM      3  C   UNL     1      -0.025   1.375  -0.012  0.00  0.00    +0.031 A 
ATOM      4  C   UNL     1       1.162   2.086  -0.007  0.00  0.00    +0.113 A 
ATOM      5  C   UNL     1       2.376   1.421  -0.009  0.00  0.00    +0.031 A 
ATOM      6  C   UNL     1       2.411   0.043  -0.016  0.00  0.00    +0.029 A 
ENDROOT
BRANCH   4   7
ATOM      7  S   UNL     1       1.127   3.848   0.003  0.00  0.00    +0.102 S 
ATOM      8  O   UNL     1       2.365   4.281  -0.543  0.00  0.00    -0.146 OA
ATOM      9  O   UNL     1      -0.125   4.233  -0.547  0.00  0.00    -0.146 OA
BRANCH   7  10
ATOM     10  N   UNL     1       1.115   4.329   1.588  0.00  0.00    -0.093 NA
ATOM     11  C   UNL     1       1.090   5.598   1.884  0.00  0.00    +0.212 C 
ATOM     12  N   UNL     1       1.073   6.537   0.880  0.00  0.00    -0.369 N 
ATOM     13  N   UNL     1       1.080   5.997   3.199  0.00  0.00    -0.369 N 
ATOM     14  H   UNL     1       1.052   7.609   1.130  0.00  0.00    +0.159 HD
ATOM     15  H   UNL     1       1.081   6.218  -0.172  0.00  0.00    +0.159 HD
ATOM     16  H   UNL     1       1.059   7.068   3.449  0.00  0.00    +0.159 HD
ATOM     17  H   UNL     1       1.094   5.245   4.002  0.00  0.00    +0.159 HD
ENDBRANCH   7  10
ENDBRANCH   4   7
BRANCH   1  19
ATOM     18  C   UNL     1       2.055  -2.681  -0.831  0.00  0.00    +0.120 C 
ATOM     19  N   UNL     1       1.242  -2.048  -0.029  0.00  0.00    -0.255 NA
BRANCH  18  26
ATOM     20  C   UNL     1       4.384  -4.917  -3.618  0.00  0.00    +0.001 A 
ATOM     21  C   UNL     1       4.387  -6.311  -3.596  0.00  0.00    +0.002 A 
ATOM     22  C   UNL     1       3.655  -7.013  -2.693  0.00  0.00    +0.028 A 
ATOM     23  C   UNL     1       2.864  -6.324  -1.747  0.00  0.00    +0.072 A 
ATOM     24  C   UNL     1       2.865  -4.860  -1.775  0.00  0.00    +0.010 A 
ATOM     25  C   UNL     1       3.645  -4.194  -2.734  0.00  0.00    +0.010 A 
ATOM     26  C   UNL     1       2.084  -4.146  -0.839  0.00  0.00    +0.011 A 
ATOM     27  C   UNL     1       1.335  -4.899   0.094  0.00  0.00    +0.010 A 
ATOM     28  C   UNL     1       0.536  -4.274   1.064  0.00  0.00    +0.010 A 
ATOM     29  C   UNL     1      -0.169  -5.035   1.944  0.00  0.00    +0.001 A 
ATOM     30  C   UNL     1      -0.118  -6.428   1.907  0.00  0.00    +0.002 A 
ATOM     31  C   UNL     1       0.627  -7.092   0.986  0.00  0.00    +0.028 A 
ATOM     32  C   UNL     1       1.389  -6.363   0.047  0.00  0.00    +0.072 A 
ATOM     33  N   UNL     1       2.139  -6.988  -0.853  0.00  0.00    -0.247 NA
ENDBRANCH  18  26
ENDBRANCH   1  19
TORSDOF 4
