REMARK  Name = ZINC14607179
REMARK  5 active torsions:
REMARK  status: ('A' for Active; 'I' for Inactive)
REMARK    1  A    between atoms: C_1  and  C_2
REMARK    2  A    between atoms: C_2  and  C_27
REMARK    3  A    between atoms: C_6  and  C_14
REMARK    4  A    between atoms: N_16  and  C_17
REMARK    5  A    between atoms: C_22  and  C_23
REMARK                            x       y       z     vdW  Elec       q    Type
REMARK                         _______ _______ _______ _____ _____    ______ ____
ROOT
ATOM      1  C   UNL     1       6.740   9.668   0.558  0.00  0.00    +0.042 C 
ATOM      2  C   UNL     1       5.582   9.331  -0.346  0.00  0.00    -0.035 C 
ATOM      3  C   UNL     1       4.464   8.802   0.166  0.00  0.00    +0.137 C 
ATOM      4  N   UNL     1       3.314   8.442  -0.550  0.00  0.00    -0.245 N 
ATOM      5  N   UNL     1       2.423   7.949   0.397  0.00  0.00    -0.210 N 
ATOM      6  C   UNL     1       1.059   7.433   0.242  0.00  0.00    +0.191 C 
ATOM      7  C   UNL     1       0.285   7.846   1.508  0.00  0.00    +0.130 C 
ATOM      8  C   UNL     1       1.063   7.419   2.729  0.00  0.00    +0.222 C 
ATOM      9  O   UNL     1       0.481   6.926   3.672  0.00  0.00    -0.275 OA
ATOM     10  N   UNL     1       2.407   7.583   2.778  0.00  0.00    -0.257 N 
ATOM     11  C   UNL     1       3.046   8.014   1.629  0.00  0.00    +0.208 C 
ATOM     12  N   UNL     1       4.235   8.517   1.482  0.00  0.00    -0.201 NA
ATOM     13  C   UNL     1       5.683   9.589  -1.828  0.00  0.00    +0.042 C 
ATOM     14  H   UNL     1       3.170   8.520  -1.506  0.00  0.00    +0.172 HD
ATOM     15  H   UNL     1       2.905   7.405   3.592  0.00  0.00    +0.157 HD
ENDROOT
BRANCH   6  16
ATOM     16  C   UNL     1       1.085   5.931   0.122  0.00  0.00    +0.240 C 
ATOM     17  O   UNL     1       2.146   5.342   0.109  0.00  0.00    -0.273 OA
ATOM     18  N   UNL     1      -0.069   5.242   0.028  0.00  0.00    -0.283 N 
ATOM     19  H   UNL     1      -0.912   5.715  -0.043  0.00  0.00    +0.155 HD
BRANCH  18  20
ATOM     20  C   UNL     1      -0.051   3.842   0.033  0.00  0.00    +0.045 A 
ATOM     21  C   UNL     1       1.004   3.162   0.628  0.00  0.00    +0.024 A 
ATOM     22  C   UNL     1       1.019   1.781   0.631  0.00  0.00    +0.002 A 
ATOM     23  C   UNL     1      -0.015   1.076   0.041  0.00  0.00    +0.001 A 
ATOM     24  C   UNL     1      -1.063   1.750  -0.557  0.00  0.00    +0.014 A 
ATOM     25  C   UNL     1      -1.087   3.131  -0.558  0.00  0.00    +0.076 A 
BRANCH  25  26
ATOM     26  C   UNL     1      -2.233   3.865  -1.204  0.00  0.00    +0.419 C 
ATOM     27  F   UNL     1      -3.145   2.941  -1.725  0.00  0.00    -0.166 F 
ATOM     28  F   UNL     1      -2.873   4.664  -0.251  0.00  0.00    -0.166 F 
ATOM     29  F   UNL     1      -1.746   4.673  -2.238  0.00  0.00    -0.166 F 
ENDBRANCH  25  26
ENDBRANCH  18  20
ENDBRANCH   6  16
TORSDOF 3
