REMARK  Name = ZINC63514576
REMARK  6 active torsions:
REMARK  status: ('A' for Active; 'I' for Inactive)
REMARK    1  A    between atoms: C_1  and  C_2
REMARK    2  A    between atoms: C_2  and  C_3
REMARK    3  A    between atoms: C_2  and  N_4
REMARK    4  A    between atoms: C_9  and  C_27
REMARK    5  A    between atoms: N_23  and  C_26
REMARK    6  A    between atoms: C_27  and  C_28
REMARK                            x       y       z     vdW  Elec       q    Type
REMARK                         _______ _______ _______ _____ _____    ______ ____
ROOT
ATOM      1  N   UNL     1      -1.372  -0.511   0.012  0.00  0.00    -0.239 N 
ATOM      2  C   UNL     1      -2.271  -0.240   1.005  0.00  0.00    +0.227 C 
ATOM      3  O   UNL     1      -2.197   0.636   1.839  0.00  0.00    -0.275 OA
ATOM      4  C   UNL     1      -3.372  -1.253   0.847  0.00  0.00    +0.107 C 
ATOM      5  C   UNL     1      -4.831  -0.800   0.982  0.00  0.00    +0.072 C 
ATOM      6  N   UNL     1      -5.541  -1.674  -0.011  0.00  0.00    -0.295 NA
ATOM      7  C   UNL     1      -4.551  -2.035  -1.073  0.00  0.00    +0.136 C 
ATOM      8  C   UNL     1      -3.321  -1.301  -0.734  0.00  0.00    +0.122 C 
ATOM      9  C   UNL     1      -1.897  -1.305  -0.977  0.00  0.00    +0.228 C 
ATOM     10  O   UNL     1      -1.299  -1.883  -1.858  0.00  0.00    -0.275 OA
ATOM     11  C   UNL     1      -4.366  -3.530  -1.098  0.00  0.00    +0.004 A 
ATOM     12  C   UNL     1      -3.885  -4.436  -0.180  0.00  0.00    +0.008 A 
ATOM     13  C   UNL     1      -3.833  -5.782  -0.498  0.00  0.00    +0.000 A 
ATOM     14  C   UNL     1      -4.267  -6.213  -1.738  0.00  0.00    +0.002 A 
ATOM     15  C   UNL     1      -4.752  -5.309  -2.660  0.00  0.00    +0.024 A 
ATOM     16  C   UNL     1      -4.807  -3.952  -2.348  0.00  0.00    +0.041 A 
ATOM     17  N   UNL     1      -5.250  -2.862  -3.098  0.00  0.00    -0.272 N 
ATOM     18  C   UNL     1      -5.135  -1.702  -2.425  0.00  0.00    +0.245 C 
ATOM     19  O   UNL     1      -5.441  -0.600  -2.829  0.00  0.00    -0.273 OA
ATOM     20  C   UNL     1      -5.778  -2.967  -4.460  0.00  0.00    +0.138 C 
ATOM     21  H   UNL     1      -5.911  -2.500   0.434  0.00  0.00    +0.124 HD
ENDROOT
BRANCH   1  23
ATOM     22  C   UNL     1      -0.019   1.526   0.010  0.00  0.00    +0.028 C 
ATOM     23  C   UNL     1       0.002  -0.004   0.002  0.00  0.00    +0.078 C 
ATOM     24  C   UNL     1       0.742  -0.511   1.242  0.00  0.00    +0.028 C 
ENDBRANCH   1  23
BRANCH   5  25
ATOM     25  C   UNL     1      -4.977   0.677   0.612  0.00  0.00    +0.052 C 
BRANCH  25  26
ATOM     26  C   UNL     1      -6.393   1.123   0.872  0.00  0.00    -0.040 C 
ATOM     27  C   UNL     1      -6.863   1.732   1.984  0.00  0.00    -0.001 A 
ATOM     28  C   UNL     1      -6.221   2.147   3.237  0.00  0.00    +0.010 A 
ATOM     29  C   UNL     1      -6.969   2.749   4.189  0.00  0.00    +0.001 A 
ATOM     30  C   UNL     1      -8.339   2.986   4.010  0.00  0.00    +0.002 A 
ATOM     31  C   UNL     1      -8.999   2.634   2.887  0.00  0.00    +0.026 A 
ATOM     32  C   UNL     1      -8.310   1.995   1.819  0.00  0.00    +0.043 A 
ATOM     33  N   UNL     1      -8.720   1.564   0.650  0.00  0.00    -0.380 N 
ATOM     34  C   UNL     1      -7.575   0.984  -0.061  0.00  0.00    +0.144 C 
ATOM     35  H   UNL     1      -9.627   1.622   0.312  0.00  0.00    +0.160 HD
ENDBRANCH  25  26
ENDBRANCH   5  25
TORSDOF 3
