REMARK  Name = ZINC19363580
REMARK  8 active torsions:
REMARK  status: ('A' for Active; 'I' for Inactive)
REMARK    1  A    between atoms: C_1  and  N_2
REMARK    2  A    between atoms: C_9  and  O_32
REMARK    3  A    between atoms: C_11  and  C_13
REMARK    4  A    between atoms: C_13  and  N_14
REMARK    5  A    between atoms: N_14  and  C_15
REMARK    6  A    between atoms: N_22  and  C_25
REMARK    7  A    between atoms: C_25  and  C_26
REMARK    8  A    between atoms: O_32  and  C_33
REMARK                            x       y       z     vdW  Elec       q    Type
REMARK                         _______ _______ _______ _____ _____    ______ ____
ROOT
ATOM      1  N   UNL     1       2.062   1.451   1.022  0.00  0.00    -0.347 N 
ATOM      2  H   UNL     1       1.203   1.894   0.938  0.00  0.00    +0.146 HD
ENDROOT
BRANCH   1   3
ATOM      3  C   UNL     1       3.187   2.182   1.159  0.00  0.00    +0.086 C 
ATOM      4  C   UNL     1       3.107   3.555   1.295  0.00  0.00    +0.113 C 
ATOM      5  C   UNL     1       4.315   4.399   1.293  0.00  0.00    +0.256 C 
ATOM      6  O   UNL     1       5.421   3.908   1.172  0.00  0.00    -0.270 OA
ATOM      7  N   UNL     1       4.161   5.733   1.430  0.00  0.00    -0.263 N 
ATOM      8  C   UNL     1       2.948   6.287   1.565  0.00  0.00    +0.146 C 
ATOM      9  S   UNL     1       2.849   7.988   1.733  0.00  0.00    -0.018 S 
ATOM     10  N   UNL     1       1.808   5.582   1.575  0.00  0.00    -0.245 N 
ATOM     11  C   UNL     1       1.810   4.239   1.441  0.00  0.00    +0.259 C 
ATOM     12  O   UNL     1       0.768   3.610   1.446  0.00  0.00    -0.269 OA
ATOM     13  H   UNL     1       4.945   6.303   1.431  0.00  0.00    +0.157 HD
BRANCH  10  14
ATOM     14  C   UNL     1       0.532   6.284   1.728  0.00  0.00    +0.150 C 
BRANCH  14  15
ATOM     15  C   UNL     1      -0.001   6.660   0.369  0.00  0.00    -0.030 A 
ATOM     16  C   UNL     1       0.342   7.873  -0.197  0.00  0.00    +0.005 A 
ATOM     17  C   UNL     1      -0.147   8.218  -1.443  0.00  0.00    +0.000 A 
ATOM     18  C   UNL     1      -0.978   7.348  -2.124  0.00  0.00    +0.000 A 
ATOM     19  C   UNL     1      -1.320   6.133  -1.559  0.00  0.00    +0.000 A 
ATOM     20  C   UNL     1      -0.827   5.787  -0.314  0.00  0.00    +0.005 A 
ENDBRANCH  14  15
ENDBRANCH  10  14
ENDBRANCH   1   3
BRANCH   1  21
ATOM     21  C   UNL     1       2.136  -0.012   1.000  0.00  0.00    +0.124 C 
BRANCH  21  32
ATOM     22  C   UNL     1       0.587  -0.653   3.376  0.00  0.00    +0.105 C 
ATOM     23  N   UNL     1      -0.021  -0.139   2.141  0.00  0.00    -0.297 NA
ATOM     24  C   UNL     1      -1.432  -0.542   2.041  0.00  0.00    +0.089 C 
ATOM     25  C   UNL     1      -2.103   0.304   0.958  0.00  0.00    +0.051 C 
ATOM     26  C   UNL     1      -1.281   0.266  -0.306  0.00  0.00    -0.034 A 
ATOM     27  C   UNL     1      -1.881   0.659  -1.493  0.00  0.00    +0.053 A 
ATOM     28  C   UNL     1      -1.166   0.646  -2.679  0.00  0.00    +0.170 A 
ATOM     29  C   UNL     1       0.163   0.235  -2.679  0.00  0.00    +0.208 A 
ATOM     30  C   UNL     1       0.759  -0.159  -1.489  0.00  0.00    +0.170 A 
ATOM     31  C   UNL     1       0.034  -0.145  -0.301  0.00  0.00    +0.020 A 
ATOM     32  C   UNL     1       0.722  -0.594   0.962  0.00  0.00    +0.107 C 
ATOM     33  O   UNL     1       0.644   0.311  -3.955  0.00  0.00    -0.449 OA
ATOM     34  C   UNL     1      -0.519   0.380  -4.800  0.00  0.00    +0.467 C 
ATOM     35  O   UNL     1      -1.520   0.978  -3.955  0.00  0.00    -0.452 OA
BRANCH  30  36
ATOM     36  O   UNL     1       2.058  -0.560  -1.484  0.00  0.00    -0.491 OA
ATOM     37  C   UNL     1       2.316  -1.928  -1.809  0.00  0.00    +0.277 C 
ENDBRANCH  30  36
ENDBRANCH  21  32
ENDBRANCH   1  21
TORSDOF 6
