REMARK  Name = ZINC33402553
REMARK  11 active torsions:
REMARK  status: ('A' for Active; 'I' for Inactive)
REMARK    1  A    between atoms: C_1  and  C_2
REMARK    2  A    between atoms: C_2  and  C_27
REMARK    3  A    between atoms: C_4  and  N_10
REMARK    4  A    between atoms: C_6  and  C_8
REMARK    5  A    between atoms: C_6  and  C_9
REMARK    6  A    between atoms: N_10  and  C_11
REMARK    7  A    between atoms: C_11  and  C_12
REMARK    8  A    between atoms: C_12  and  C_14
REMARK    9  A    between atoms: C_12  and  O_26
REMARK   10  A    between atoms: C_14  and  O_15
REMARK   11  A    between atoms: O_15  and  C_16
REMARK                            x       y       z     vdW  Elec       q    Type
REMARK                         _______ _______ _______ _____ _____    ______ ____
ROOT
ATOM      1  C   UNL     1      -0.936   1.046  -3.591  0.00  0.00    +0.115 C 
ENDROOT
BRANCH   1   2
ATOM      2  N   UNL     1      -0.030   1.121  -2.438  0.00  0.00    -0.311 NA
ATOM      3  H   UNL     1       0.788   1.817  -2.677  0.00  0.00    +0.122 HD
BRANCH   2   7
ATOM      4  C   UNL     1      -2.003   0.773   1.486  0.00  0.00    -0.010 C 
ATOM      5  C   UNL     1      -0.718   1.580   1.270  0.00  0.00    -0.072 C 
ATOM      6  C   UNL     1      -0.013   1.088   0.008  0.00  0.00    +0.006 C 
ATOM      7  C   UNL     1      -0.740   1.592  -1.238  0.00  0.00    +0.051 C 
ATOM      8  C   UNL     1      -0.736   3.121  -1.218  0.00  0.00    +0.006 C 
ATOM      9  C   UNL     1      -1.448   3.638   0.030  0.00  0.00    -0.072 C 
ATOM     10  N   UNL     1      -0.990   3.002   1.247  0.00  0.00    +0.386 N 
ATOM     11  C   UNL     1      -1.156   5.152   0.137  0.00  0.00    -0.010 C 
ATOM     12  C   UNL     1      -2.963   3.480  -0.142  0.00  0.00    -0.010 C 
ATOM     13  C   UNL     1       0.213   1.286   2.467  0.00  0.00    -0.010 C 
ATOM     14  H   UNL     1      -1.777   3.236   1.978  0.00  0.00    -0.084 HD
ATOM     15  H   UNL     1      -0.074   3.555   1.504  0.00  0.00    -0.084 HD
ENDBRANCH   2   7
ENDBRANCH   1   2
BRANCH   1  16
ATOM     16  C   UNL     1      -0.164   0.554  -4.817  0.00  0.00    +0.166 C 
BRANCH  16  17
ATOM     17  O   UNL     1       0.900   1.463  -5.106  0.00  0.00    -0.387 OA
ATOM     18  H   UNL     1       1.569   1.274  -5.958  0.00  0.00    +0.210 HD
ENDBRANCH  16  17
BRANCH  16  19
ATOM     19  C   UNL     1      -1.108   0.475  -6.018  0.00  0.00    +0.261 C 
BRANCH  19  20
ATOM     20  O   UNL     1      -0.417  -0.093  -7.131  0.00  0.00    -0.489 OA
BRANCH  20  21
ATOM     21  C   UNL     1      -1.118  -0.234  -8.287  0.00  0.00    +0.121 A 
ATOM     22  C   UNL     1      -2.457   0.168  -8.335  0.00  0.00    +0.046 A 
ATOM     23  C   UNL     1      -3.183   0.045  -9.478  0.00  0.00    +0.012 A 
ATOM     24  C   UNL     1      -2.587  -0.505 -10.627  0.00  0.00    -0.018 A 
ATOM     25  C   UNL     1      -3.310  -0.652 -11.822  0.00  0.00    +0.008 A 
ATOM     26  C   UNL     1      -2.702  -1.188 -12.916  0.00  0.00    +0.001 A 
ATOM     27  C   UNL     1      -1.370  -1.596 -12.869  0.00  0.00    +0.001 A 
ATOM     28  C   UNL     1      -0.639  -1.469 -11.728  0.00  0.00    +0.008 A 
ATOM     29  C   UNL     1      -1.232  -0.919 -10.579  0.00  0.00    -0.014 A 
ATOM     30  C   UNL     1      -0.508  -0.772  -9.384  0.00  0.00    +0.054 A 
ENDBRANCH  20  21
ENDBRANCH  19  20
ENDBRANCH  16  19
ENDBRANCH   1  16
TORSDOF 7
