REMARK  Name = ZINC52565871
REMARK  6 active torsions:
REMARK  status: ('A' for Active; 'I' for Inactive)
REMARK    1  A    between atoms: C_3  and  N_11
REMARK    2  A    between atoms: C_6  and  C_7
REMARK    3  A    between atoms: C_14  and  C_16
REMARK    4  A    between atoms: C_16  and  N_17
REMARK    5  A    between atoms: C_20  and  N_23
REMARK    6  A    between atoms: C_24  and  C_26
REMARK                            x       y       z     vdW  Elec       q    Type
REMARK                         _______ _______ _______ _____ _____    ______ ____
ROOT
ATOM      1  N   UNL     1       7.740   2.376   1.316  0.00  0.00    +0.382 N 
ATOM      2  C   UNL     1       7.232   1.163   1.968  0.00  0.00    -0.077 C 
ATOM      3  C   UNL     1       7.688   1.135   3.428  0.00  0.00    +0.004 C 
ATOM      4  C   UNL     1       9.218   1.141   3.480  0.00  0.00    +0.070 C 
ATOM      5  C   UNL     1       9.739   2.373   2.733  0.00  0.00    +0.004 C 
ATOM      6  C   UNL     1       9.208   2.355   1.298  0.00  0.00    -0.077 C 
ATOM      7  H   UNL     1       7.423   3.187   1.826  0.00  0.00    -0.081 HD
ENDROOT
BRANCH   4   8
ATOM      8  N   UNL     1       9.661   1.192   4.876  0.00  0.00    -0.309 N 
ATOM      9  C   UNL     1      10.874   0.714   5.216  0.00  0.00    +0.245 C 
ATOM     10  O   UNL     1      11.601   0.241   4.364  0.00  0.00    -0.270 OA
ATOM     11  H   UNL     1       9.080   1.569   5.556  0.00  0.00    +0.149 HD
BRANCH   9  12
ATOM     12  C   UNL     1      11.321   0.764   6.624  0.00  0.00    +0.050 C 
ATOM     13  C   UNL     1      12.546   0.287   6.963  0.00  0.00    +0.016 C 
ATOM     14  C   UNL     1      12.945   0.368   8.423  0.00  0.00    +0.192 C 
ATOM     15  C   UNL     1      11.943   0.974   9.381  0.00  0.00    +0.258 C 
ATOM     16  O   UNL     1      12.201   1.068  10.564  0.00  0.00    -0.272 OA
ATOM     17  N   UNL     1      10.768   1.405   8.907  0.00  0.00    -0.187 NA
ATOM     18  C   UNL     1      10.444   1.333   7.646  0.00  0.00    +0.113 C 
ATOM     19 CL   UNL     1      14.465   1.331   8.530  0.00  0.00    -0.107 Cl
ENDBRANCH   9  12
ENDBRANCH   4   8
BRANCH   1  20
ATOM     20  C   UNL     1       7.236   2.437  -0.062  0.00  0.00    -0.041 C 
BRANCH  20  24
ATOM     21  N   UNL     1       3.586   2.125  -0.021  0.00  0.00    -0.323 N 
ATOM     22  C   UNL     1       3.704   3.486  -0.010  0.00  0.00    +0.091 A 
ATOM     23  C   UNL     1       5.017   3.795  -0.022  0.00  0.00    +0.021 A 
ATOM     24  C   UNL     1       5.736   2.583  -0.043  0.00  0.00    -0.046 A 
ATOM     25  C   UNL     1       4.837   1.578  -0.036  0.00  0.00    +0.093 A 
BRANCH  21  28
ATOM     26  C   UNL     1      -0.017   1.379   0.010  0.00  0.00    +0.014 A 
ATOM     27  C   UNL     1       1.169   2.087   0.002  0.00  0.00    +0.026 A 
ATOM     28  C   UNL     1       2.381   1.409  -0.013  0.00  0.00    +0.046 A 
ATOM     29  C   UNL     1       2.396   0.021  -0.021  0.00  0.00    +0.026 A 
ATOM     30  C   UNL     1       1.207  -0.682  -0.013  0.00  0.00    +0.014 A 
ATOM     31  C   UNL     1       0.002  -0.004   0.002  0.00  0.00    +0.055 A 
BRANCH  31  32
ATOM     32  C   UNL     1      -1.294  -0.774   0.010  0.00  0.00    +0.417 C 
ATOM     33  F   UNL     1      -1.707  -1.005  -1.306  0.00  0.00    -0.166 F 
ATOM     34  F   UNL     1      -1.105  -1.998   0.661  0.00  0.00    -0.166 F 
ATOM     35  F   UNL     1      -2.272  -0.034   0.683  0.00  0.00    -0.166 F 
ENDBRANCH  31  32
ENDBRANCH  21  28
ENDBRANCH  20  24
ENDBRANCH   1  20
TORSDOF 6
