REMARK  Name = ZINC11967061
REMARK  18 active torsions:
REMARK  status: ('A' for Active; 'I' for Inactive)
REMARK    1  A    between atoms: C_1  and  C_2
REMARK    2  A    between atoms: C_2  and  N_76
REMARK    3  A    between atoms: C_3  and  C_4
REMARK    4  A    between atoms: C_3  and  N_76
REMARK    5  A    between atoms: C_5  and  C_6
REMARK    6  A    between atoms: C_5  and  N_76
REMARK    7  A    between atoms: C_6  and  C_7
REMARK    8  A    between atoms: C_12  and  C_15
REMARK    9  A    between atoms: C_15  and  C_26
REMARK   10  A    between atoms: N_18  and  C_22
REMARK   11  A    between atoms: C_22  and  C_23
REMARK   12  A    between atoms: C_23  and  N_78
REMARK   13  A    between atoms: C_24  and  N_78
REMARK   14  A    between atoms: C_25  and  N_78
REMARK   15  A    between atoms: C_26  and  C_27
REMARK   16  A    between atoms: C_27  and  C_28
REMARK   17  A    between atoms: C_28  and  C_29
REMARK   18  A    between atoms: C_28  and  C_30
REMARK                            x       y       z     vdW  Elec       q    Type
REMARK                         _______ _______ _______ _____ _____    ______ ____
ROOT
ATOM      1  C   UNL     1      -4.370   3.602  -2.218  0.00  0.00    +0.115 C 
ATOM      2  C   UNL     1      -3.830   3.119  -3.549  0.00  0.00    +0.247 C 
ATOM      3  O   UNL     1      -2.753   3.382  -4.042  0.00  0.00    -0.273 OA
ATOM      4  N   UNL     1      -4.794   2.336  -4.072  0.00  0.00    -0.226 N 
ATOM      5  C   UNL     1      -5.858   2.257  -3.264  0.00  0.00    +0.309 C 
ATOM      6  O   UNL     1      -6.854   1.610  -3.519  0.00  0.00    -0.252 OA
ATOM      7  N   UNL     1      -5.701   2.976  -2.137  0.00  0.00    -0.285 N 
ATOM      8  H   UNL     1      -6.340   3.064  -1.413  0.00  0.00    +0.151 HD
ENDROOT
BRANCH   1  14
ATOM      9  C   UNL     1      -0.011   1.208   0.014  0.00  0.00    +0.214 C 
ATOM     10  O   UNL     1       0.008  -0.005   0.030  0.00  0.00    -0.276 OA
ATOM     11  N   UNL     1      -1.189   1.863   0.010  0.00  0.00    -0.302 N 
ATOM     12  C   UNL     1      -1.228   3.332  -0.004  0.00  0.00    +0.108 C 
ATOM     13  C   UNL     1      -2.105   3.787  -1.180  0.00  0.00    +0.025 C 
ATOM     14  C   UNL     1      -3.480   3.123  -1.070  0.00  0.00    +0.024 C 
ATOM     15  C   UNL     1      -3.321   1.603  -1.147  0.00  0.00    +0.025 C 
ATOM     16  C   UNL     1      -2.458   1.123   0.024  0.00  0.00    +0.108 C 
BRANCH   9  17
ATOM     17  C   UNL     1       1.282   1.981  -0.006  0.00  0.00    +0.077 C 
BRANCH  17  18
ATOM     18  C   UNL     1       2.460   1.005  -0.003  0.00  0.00    -0.070 C 
BRANCH  18  19
ATOM     19  N   UNL     1       3.712   1.773  -0.166  0.00  0.00    +0.380 N 
ATOM     20  H   UNL     1       3.568   2.500  -0.876  0.00  0.00    -0.082 HD
BRANCH  19  22
ATOM     21  C   UNL     1       5.242   3.380   0.865  0.00  0.00    -0.017 C 
ATOM     22  C   UNL     1       4.079   2.418   1.113  0.00  0.00    -0.082 C 
ENDBRANCH  19  22
BRANCH  19  23
ATOM     23  C   UNL     1       4.801   0.877  -0.609  0.00  0.00    -0.082 C 
ATOM     24  C   UNL     1       4.624   0.593  -2.102  0.00  0.00    -0.017 C 
ENDBRANCH  19  23
ENDBRANCH  18  19
ENDBRANCH  17  18
ENDBRANCH   9  17
ENDBRANCH   1  14
BRANCH   4  25
ATOM     25  C   UNL     1      -4.691   1.655  -5.364  0.00  0.00    +0.099 C 
BRANCH  25  26
ATOM     26  C   UNL     1      -4.075   0.269  -5.163  0.00  0.00    -0.060 C 
BRANCH  26  29
ATOM     27  C   UNL     1      -3.014   0.269  -7.340  0.00  0.00    -0.097 C 
ATOM     28  C   UNL     1      -3.609  -1.827  -6.283  0.00  0.00    -0.097 C 
ATOM     29  N   UNL     1      -3.997  -0.413  -6.472  0.00  0.00    +0.377 N 
ATOM     30  H   UNL     1      -4.920  -0.378  -6.922  0.00  0.00    -0.083 HD
ENDBRANCH  26  29
ENDBRANCH  25  26
ENDBRANCH   4  25
BRANCH   1  31
ATOM     31  C   UNL     1      -4.487   5.127  -2.206  0.00  0.00    +0.036 C 
BRANCH  31  32
ATOM     32  C   UNL     1      -5.479   5.571  -3.283  0.00  0.00    +0.005 C 
BRANCH  32  33
ATOM     33  C   UNL     1      -5.596   7.096  -3.271  0.00  0.00    -0.017 C 
ATOM     34  C   UNL     1      -6.490   7.548  -4.428  0.00  0.00    +0.007 C 
ATOM     35  C   UNL     1      -6.209   7.551  -1.945  0.00  0.00    +0.007 C 
ENDBRANCH  32  33
ENDBRANCH  31  32
ENDBRANCH   1  31
TORSDOF 12
