REMARK  Name = ZINC08721755
REMARK  7 active torsions:
REMARK  status: ('A' for Active; 'I' for Inactive)
REMARK    1  A    between atoms: C_1  and  C_2
REMARK    2  A    between atoms: C_2  and  C_20
REMARK    3  A    between atoms: N_3  and  N_4
REMARK    4  A    between atoms: C_5  and  C_7
REMARK    5  A    between atoms: C_7  and  O_8
REMARK    6  A    between atoms: O_8  and  C_9
REMARK    7  A    between atoms: C_23  and  N_26
REMARK                            x       y       z     vdW  Elec       q    Type
REMARK                         _______ _______ _______ _____ _____    ______ ____
ROOT
ATOM      1  N   UNL     1       3.159  10.292   0.022  0.00  0.00    -0.204 N 
ATOM      2  C   UNL     1       2.100   9.458   0.028  0.00  0.00    +0.270 C 
ATOM      3  O   UNL     1       0.974   9.907   0.041  0.00  0.00    -0.270 OA
ATOM      4  H   UNL     1       4.060   9.932   0.011  0.00  0.00    +0.177 HD
ENDROOT
BRANCH   1   7
ATOM      5  C   UNL     1       5.377  11.923   0.008  0.00  0.00    +0.068 C 
ATOM      6  C   UNL     1       3.977  12.482   0.024  0.00  0.00    +0.063 C 
ATOM      7  N   UNL     1       2.958  11.678   0.030  0.00  0.00    -0.184 NA
BRANCH   6   8
ATOM      8  C   UNL     1       3.766  13.941   0.033  0.00  0.00    -0.002 A 
ATOM      9  C   UNL     1       4.860  14.809   0.032  0.00  0.00    +0.012 A 
ATOM     10  C   UNL     1       4.655  16.173   0.034  0.00  0.00    +0.033 A 
ATOM     11  C   UNL     1       3.369  16.682   0.049  0.00  0.00    +0.126 A 
ATOM     12  C   UNL     1       2.280  15.829   0.056  0.00  0.00    +0.033 A 
ATOM     13  C   UNL     1       2.470  14.463   0.048  0.00  0.00    +0.012 A 
BRANCH  11  14
ATOM     14  N   UNL     1       3.156  18.147   0.057  0.00  0.00    +0.056 N 
ATOM     15  O   UNL     1       2.025  18.599   0.069  0.00  0.00    -0.126 OA
ATOM     16  O   UNL     1       4.113  18.901   0.051  0.00  0.00    -0.126 OA
ENDBRANCH  11  14
ENDBRANCH   6   8
ENDBRANCH   1   7
BRANCH   2  17
ATOM     17  C   UNL     1       2.316   7.966   0.019  0.00  0.00    +0.326 C 
BRANCH  17  18
ATOM     18  O   UNL     1       1.051   7.302   0.028  0.00  0.00    -0.482 OA
BRANCH  18  19
ATOM     19  C   UNL     1       1.068   5.943   0.021  0.00  0.00    +0.136 A 
ATOM     20  C   UNL     1       2.293   5.268   0.006  0.00  0.00    +0.047 A 
ATOM     21  C   UNL     1       2.342   3.909  -0.000  0.00  0.00    +0.012 A 
ATOM     22  C   UNL     1       1.148   3.167   0.008  0.00  0.00    -0.017 A 
ATOM     23  C   UNL     1       1.163   1.762   0.000  0.00  0.00    +0.008 A 
ATOM     24  C   UNL     1      -0.013   1.076   0.008  0.00  0.00    +0.001 A 
ATOM     25  C   UNL     1      -1.235   1.746   0.017  0.00  0.00    +0.001 A 
ATOM     26  C   UNL     1      -1.288   3.106   0.030  0.00  0.00    +0.010 A 
ATOM     27  C   UNL     1      -0.095   3.849   0.023  0.00  0.00    -0.000 A 
ATOM     28  C   UNL     1      -0.112   5.254   0.029  0.00  0.00    +0.067 A 
ATOM     29 BR   UNL     1      -1.757   6.185   0.049  0.00  0.00    -0.046 Br
ENDBRANCH  18  19
ENDBRANCH  17  18
ENDBRANCH   2  17
TORSDOF 6
