REMARK  Name = ZINC14553998
REMARK  8 active torsions:
REMARK  status: ('A' for Active; 'I' for Inactive)
REMARK    1  A    between atoms: C_1  and  C_2
REMARK    2  A    between atoms: C_2  and  C_3
REMARK    3  A    between atoms: C_2  and  N_4
REMARK    4  A    between atoms: C_5  and  C_7
REMARK    5  A    between atoms: C_10  and  N_13
REMARK    6  A    between atoms: N_13  and  C_14
REMARK    7  A    between atoms: C_19  and  C_23
REMARK    8  A    between atoms: C_19  and  C_24
REMARK                            x       y       z     vdW  Elec       q    Type
REMARK                         _______ _______ _______ _____ _____    ______ ____
ROOT
ATOM      1  C   UNL     1       6.005   5.929   3.360  0.00  0.00    +0.037 A 
ATOM      2  C   UNL     1       5.099   6.522   2.477  0.00  0.00    +0.015 A 
ATOM      3  C   UNL     1       4.165   5.747   1.827  0.00  0.00    +0.024 A 
ATOM      4  C   UNL     1       4.122   4.374   2.050  0.00  0.00    +0.031 A 
ATOM      5  C   UNL     1       5.019   3.781   2.933  0.00  0.00    +0.024 A 
ATOM      6  C   UNL     1       5.959   4.550   3.582  0.00  0.00    +0.015 A 
ENDROOT
BRANCH   1   8
ATOM      7  N   UNL     1       7.880   6.184   4.910  0.00  0.00    -0.309 N 
ATOM      8  C   UNL     1       7.008   6.758   4.058  0.00  0.00    +0.244 C 
ATOM      9  O   UNL     1       7.046   7.957   3.864  0.00  0.00    -0.270 OA
ATOM     10  H   UNL     1       7.849   5.227   5.065  0.00  0.00    +0.149 HD
BRANCH   7  12
ATOM     11  C   UNL     1       8.255   7.600   6.869  0.00  0.00    +0.027 C 
ATOM     12  C   UNL     1       8.876   7.006   5.602  0.00  0.00    +0.067 C 
ATOM     13  C   UNL     1      10.078   6.139   5.982  0.00  0.00    +0.027 C 
ENDBRANCH   7  12
ENDBRANCH   1   8
BRANCH   4  14
ATOM     14  N   UNL     1       3.176   3.592   1.391  0.00  0.00    -0.320 N 
ATOM     15  H   UNL     1       2.547   4.005   0.778  0.00  0.00    +0.152 HD
BRANCH  14  16
ATOM     16  C   UNL     1       3.133   2.260   1.606  0.00  0.00    +0.094 C 
ATOM     17  C   UNL     1       2.195   1.485   0.953  0.00  0.00    +0.157 C 
ATOM     18  C   UNL     1       1.205   2.052   0.002  0.00  0.00    +0.350 C 
ATOM     19  O   UNL     1       1.468   2.985  -0.733  0.00  0.00    -0.245 OA
ATOM     20  O   UNL     1      -0.018   1.452   0.010  0.00  0.00    -0.419 OA
ATOM     21  C   UNL     1       0.002  -0.004   0.002  0.00  0.00    +0.255 C 
ATOM     22  O   UNL     1       0.829  -0.489   1.098  0.00  0.00    -0.419 OA
ATOM     23  C   UNL     1       2.093   0.015   1.143  0.00  0.00    +0.350 C 
ATOM     24  O   UNL     1       3.068  -0.687   1.326  0.00  0.00    -0.245 OA
ATOM     25  C   UNL     1      -1.424  -0.533   0.167  0.00  0.00    +0.104 C 
ATOM     26  C   UNL     1       0.577  -0.498  -1.327  0.00  0.00    +0.104 C 
ENDBRANCH  14  16
ENDBRANCH   4  14
TORSDOF 4
