REMARK  Name = ZINC11188207
REMARK  6 active torsions:
REMARK  status: ('A' for Active; 'I' for Inactive)
REMARK    1  A    between atoms: C_1  and  C_2
REMARK    2  A    between atoms: C_2  and  C_4
REMARK    3  A    between atoms: C_2  and  O_16
REMARK    4  A    between atoms: N_9  and  C_10
REMARK    5  A    between atoms: O_16  and  C_17
REMARK    6  A    between atoms: C_17  and  C_19
REMARK                            x       y       z     vdW  Elec       q    Type
REMARK                         _______ _______ _______ _____ _____    ______ ____
ROOT
ATOM      1  C   UNL     1      -4.889  -0.254   1.275  0.00  0.00    +0.062 C 
ATOM      2  C   UNL     1      -4.768   0.292  -0.150  0.00  0.00    +0.259 C 
ENDROOT
BRANCH   2   3
ATOM      3  C   UNL     1      -3.561   1.189  -0.243  0.00  0.00    +0.261 C 
ATOM      4  O   UNL     1      -3.701   2.372  -0.468  0.00  0.00    -0.271 OA
ATOM      5  N   UNL     1      -2.326   0.676  -0.076  0.00  0.00    -0.237 N 
ATOM      6  C   UNL     1      -1.246   1.478  -0.160  0.00  0.00    +0.310 C 
ATOM      7  O   UNL     1      -1.387   2.664  -0.385  0.00  0.00    -0.252 OA
ATOM      8  N   UNL     1      -0.011   0.966   0.007  0.00  0.00    -0.269 N 
ATOM      9  H   UNL     1      -2.199  -0.397   0.128  0.00  0.00    +0.159 HD
ATOM     10  H   UNL     1       0.122  -0.119   0.128  0.00  0.00    +0.156 HD
BRANCH   8  11
ATOM     11  C   UNL     1       1.102   1.814   0.027  0.00  0.00    +0.035 A 
ATOM     12  C   UNL     1       2.319   1.376  -0.477  0.00  0.00    +0.023 A 
ATOM     13  C   UNL     1       3.415   2.217  -0.459  0.00  0.00    +0.002 A 
ATOM     14  C   UNL     1       3.302   3.491   0.068  0.00  0.00    +0.000 A 
ATOM     15  C   UNL     1       2.092   3.928   0.576  0.00  0.00    +0.002 A 
ATOM     16  C   UNL     1       0.992   3.093   0.557  0.00  0.00    +0.023 A 
ENDBRANCH   8  11
ENDBRANCH   2   3
BRANCH   2  17
ATOM     17  O   UNL     1      -5.943   1.038  -0.475  0.00  0.00    -0.449 OA
BRANCH  17  18
ATOM     18  C   UNL     1      -6.962   0.359  -1.041  0.00  0.00    +0.339 C 
ATOM     19  O   UNL     1      -6.856  -0.834  -1.252  0.00  0.00    -0.245 OA
BRANCH  18  20
ATOM     20  C   UNL     1      -8.158   1.037  -1.390  0.00  0.00    +0.074 C 
ATOM     21  C   UNL     1      -9.180   0.357  -1.964  0.00  0.00    +0.025 C 
ATOM     22  C   UNL     1     -10.379   1.110  -2.359  0.00  0.00    +0.017 A 
ATOM     23  C   UNL     1     -11.570   0.463  -2.686  0.00  0.00    +0.011 A 
ATOM     24  C   UNL     1     -12.682   1.210  -3.014  0.00  0.00    +0.001 A 
ATOM     25  C   UNL     1     -12.619   2.594  -3.021  0.00  0.00    +0.004 A 
ATOM     26  C   UNL     1     -11.440   3.247  -2.710  0.00  0.00    +0.046 A 
ATOM     27  C   UNL     1     -10.311   2.514  -2.388  0.00  0.00    +0.128 A 
ATOM     28  O   UNL     1      -9.135   3.125  -2.105  0.00  0.00    -0.487 OA
ATOM     29  C   UNL     1      -8.290   2.514  -1.129  0.00  0.00    +0.271 C 
ENDBRANCH  18  20
ENDBRANCH  17  18
ENDBRANCH   2  17
TORSDOF 5
