REMARK  Name = ZINC67189303
REMARK  10 active torsions:
REMARK  status: ('A' for Active; 'I' for Inactive)
REMARK    1  A    between atoms: C_1  and  C_2
REMARK    2  A    between atoms: C_5  and  C_30
REMARK    3  A    between atoms: N_8  and  C_10
REMARK    4  A    between atoms: C_10  and  C_11
REMARK    5  A    between atoms: C_16  and  C_17
REMARK    6  A    between atoms: C_17  and  N_18
REMARK    7  A    between atoms: N_18  and  C_19
REMARK    8  A    between atoms: C_19  and  C_20
REMARK    9  A    between atoms: N_22  and  C_29
REMARK   10  A    between atoms: N_25  and  C_28
REMARK                            x       y       z     vdW  Elec       q    Type
REMARK                         _______ _______ _______ _____ _____    ______ ____
ROOT
ATOM      1  C   UNL     1       2.340   0.094   3.812  0.00  0.00    -0.063 A 
ATOM      2  C   UNL     1       2.928   1.227   4.343  0.00  0.00    +0.002 A 
ATOM      3  C   UNL     1       2.325   1.888   5.397  0.00  0.00    +0.000 A 
ATOM      4  C   UNL     1       1.136   1.415   5.920  0.00  0.00    +0.000 A 
ATOM      5  C   UNL     1       0.549   0.283   5.388  0.00  0.00    +0.002 A 
ATOM      6  C   UNL     1       1.149  -0.375   4.331  0.00  0.00    -0.063 A 
ENDROOT
BRANCH   1   7
ATOM      7  C   UNL     1       2.997  -0.626   2.662  0.00  0.00    -0.043 C 
BRANCH   7  13
ATOM      8  C   UNL     1       5.663   2.627   2.323  0.00  0.00    +0.005 C 
ATOM      9  C   UNL     1       4.794   2.281   1.112  0.00  0.00    -0.031 C 
ATOM     10  C   UNL     1       5.631   1.513   0.085  0.00  0.00    +0.003 C 
ATOM     11  C   UNL     1       6.092   0.190   0.703  0.00  0.00    -0.031 C 
ATOM     12  C   UNL     1       4.868  -0.604   1.165  0.00  0.00    -0.075 C 
ATOM     13  N   UNL     1       4.125   0.172   2.165  0.00  0.00    +0.383 N 
ATOM     14  C   UNL     1       3.618   1.410   1.559  0.00  0.00    -0.075 C 
ATOM     15  C   UNL     1       6.864  -0.620  -0.341  0.00  0.00    +0.005 C 
ATOM     16  H   UNL     1       4.737   0.401   2.934  0.00  0.00    -0.081 HD
ENDBRANCH   7  13
ENDBRANCH   1   7
BRANCH   6  17
ATOM     17  C   UNL     1       0.505  -1.607   3.748  0.00  0.00    -0.046 C 
BRANCH  17  18
ATOM     18  N   UNL     1       1.210  -2.802   4.230  0.00  0.00    +0.385 N 
ATOM     19  H   UNL     1       2.177  -2.761   3.945  0.00  0.00    -0.085 HD
ATOM     20  H   UNL     1       1.158  -2.840   5.237  0.00  0.00    -0.085 HD
BRANCH  18  21
ATOM     21  C   UNL     1       0.583  -4.003   3.661  0.00  0.00    -0.039 C 
BRANCH  21  22
ATOM     22  C   UNL     1       1.306  -5.229   4.156  0.00  0.00    +0.016 A 
ATOM     23  C   UNL     1       0.851  -5.904   5.233  0.00  0.00    +0.097 A 
ATOM     24  N   UNL     1       1.520  -7.016   5.668  0.00  0.00    -0.303 N 
ATOM     25  C   UNL     1       2.627  -7.442   5.034  0.00  0.00    +0.331 A 
ATOM     26  O   UNL     1       3.205  -8.432   5.438  0.00  0.00    -0.246 OA
ATOM     27  N   UNL     1       3.102  -6.789   3.958  0.00  0.00    -0.264 N 
ATOM     28  C   UNL     1       2.469  -5.692   3.493  0.00  0.00    +0.258 A 
ATOM     29  O   UNL     1       2.895  -5.104   2.517  0.00  0.00    -0.267 OA
ATOM     30  C   UNL     1       4.310  -7.273   3.284  0.00  0.00    +0.157 C 
ATOM     31  C   UNL     1       1.026  -7.748   6.837  0.00  0.00    +0.153 C 
ENDBRANCH  21  22
ENDBRANCH  18  21
ENDBRANCH  17  18
ENDBRANCH   6  17
TORSDOF 6
