REMARK  Name = ZINC39672059
REMARK  4 active torsions:
REMARK  status: ('A' for Active; 'I' for Inactive)
REMARK    1  A    between atoms: C_6  and  C_10
REMARK    2  A    between atoms: C_10  and  N_11
REMARK    3  A    between atoms: C_12  and  C_14
REMARK    4  A    between atoms: C_25  and  C_27
REMARK                            x       y       z     vdW  Elec       q    Type
REMARK                         _______ _______ _______ _____ _____    ______ ____
ROOT
ATOM      1  C   UNL     1       4.360  -5.485   2.025  0.00  0.00    +0.100 C 
ATOM      2  C   UNL     1       3.297  -5.712   3.123  0.00  0.00    +0.121 C 
ATOM      3  N   UNL     1       2.930  -7.142   2.999  0.00  0.00    -0.300 N 
ATOM      4  C   UNL     1       4.213  -7.829   2.718  0.00  0.00    +0.115 C 
ATOM      5  C   UNL     1       4.962  -6.876   1.764  0.00  0.00    -0.004 C 
ATOM      6  C   UNL     1       6.454  -6.875   2.083  0.00  0.00    -0.010 C 
ATOM      7  C   UNL     1       7.041  -8.252   1.761  0.00  0.00    -0.082 C 
ATOM      8  N   UNL     1       6.824  -8.559   0.342  0.00  0.00    +0.379 N 
ATOM      9  C   UNL     1       5.385  -8.650   0.064  0.00  0.00    -0.082 C 
ATOM     10  C   UNL     1       4.728  -7.290   0.315  0.00  0.00    -0.010 C 
ATOM     11  C   UNL     1       1.706  -7.694   3.116  0.00  0.00    +0.219 C 
ATOM     12  O   UNL     1       0.734  -6.985   3.273  0.00  0.00    -0.275 OA
ATOM     13  H   UNL     1       7.229  -7.830  -0.225  0.00  0.00    -0.086 HD
ATOM     14  H   UNL     1       7.264  -9.439   0.118  0.00  0.00    -0.086 HD
ENDROOT
BRANCH  11  15
ATOM     15  C   UNL     1       1.544  -9.191   3.052  0.00  0.00    +0.079 C 
ATOM     16  C   UNL     1       0.126  -9.537   2.582  0.00  0.00    +0.017 C 
ATOM     17  C   UNL     1       0.047 -11.048   2.355  0.00  0.00    +0.027 C 
ATOM     18  C   UNL     1       0.593 -11.779   3.546  0.00  0.00    -0.031 C 
ATOM     19  C   UNL     1       1.339 -11.233   4.453  0.00  0.00    -0.030 C 
ATOM     20  C   UNL     1       1.758  -9.791   4.443  0.00  0.00    +0.039 C 
ENDBRANCH  11  15
BRANCH   1  22
ATOM     21  N   UNL     1       4.419  -4.160  -0.063  0.00  0.00    -0.309 N 
ATOM     22  C   UNL     1       3.716  -4.949   0.772  0.00  0.00    +0.219 C 
ATOM     23  O   UNL     1       2.564  -5.229   0.516  0.00  0.00    -0.275 OA
ATOM     24  H   UNL     1       5.341  -3.936   0.142  0.00  0.00    +0.149 HD
BRANCH  21  25
ATOM     25  C   UNL     1       3.793  -3.639  -1.280  0.00  0.00    +0.161 C 
BRANCH  25  31
ATOM     26  C   UNL     1       7.518   0.313  -3.820  0.00  0.00    +0.005 A 
ATOM     27  C   UNL     1       7.868  -0.792  -4.613  0.00  0.00    +0.018 A 
ATOM     28  C   UNL     1       7.271  -1.987  -4.417  0.00  0.00    +0.092 A 
ATOM     29  N   UNL     1       6.322  -2.139  -3.448  0.00  0.00    -0.306 N 
ATOM     30  C   UNL     1       5.575  -3.212  -3.045  0.00  0.00    +0.117 A 
ATOM     31  C   UNL     1       4.785  -2.791  -2.033  0.00  0.00    +0.077 A 
ATOM     32  N   UNL     1       5.030  -1.497  -1.811  0.00  0.00    -0.231 NA
ATOM     33  C   UNL     1       5.960  -1.079  -2.658  0.00  0.00    +0.138 A 
ATOM     34  C   UNL     1       6.574   0.175  -2.851  0.00  0.00    +0.047 A 
ENDBRANCH  25  31
ENDBRANCH  21  25
ENDBRANCH   1  22
TORSDOF 4
