REMARK  Name = ZINC09284421
REMARK  6 active torsions:
REMARK  status: ('A' for Active; 'I' for Inactive)
REMARK    1  A    between atoms: C_10  and  O_11
REMARK    2  A    between atoms: O_11  and  C_12
REMARK    3  A    between atoms: C_12  and  C_13
REMARK    4  A    between atoms: N_15  and  C_16
REMARK    5  A    between atoms: C_20  and  S_22
REMARK    6  A    between atoms: S_22  and  N_25
REMARK                            x       y       z     vdW  Elec       q    Type
REMARK                         _______ _______ _______ _____ _____    ______ ____
ROOT
ATOM      1  C   UNL     1      -7.214   4.096   0.185  0.00  0.00    +0.035 A 
ATOM      2  C   UNL     1      -7.034   5.473   0.188  0.00  0.00    +0.023 A 
ATOM      3  C   UNL     1      -8.127   6.311   0.289  0.00  0.00    +0.004 A 
ATOM      4  C   UNL     1      -9.399   5.780   0.397  0.00  0.00    +0.029 A 
ATOM      5  C   UNL     1      -9.582   4.410   0.400  0.00  0.00    +0.110 A 
ATOM      6  C   UNL     1      -8.493   3.566   0.295  0.00  0.00    +0.052 A 
ENDROOT
BRANCH   1   9
ATOM      7  C   UNL     1      -5.041   3.616  -0.655  0.00  0.00    +0.255 C 
ATOM      8  O   UNL     1      -5.075   4.643  -1.299  0.00  0.00    -0.272 OA
ATOM      9  N   UNL     1      -6.109   3.245   0.078  0.00  0.00    -0.283 N 
ATOM     10  H   UNL     1      -6.112   2.387   0.531  0.00  0.00    +0.155 HD
BRANCH   7  11
ATOM     11  C   UNL     1      -3.805   2.754  -0.675  0.00  0.00    +0.324 C 
BRANCH  11  12
ATOM     12  O   UNL     1      -2.819   3.355  -1.518  0.00  0.00    -0.482 OA
BRANCH  12  22
ATOM     13  C   UNL     1       1.423   4.237  -4.050  0.00  0.00    +0.001 A 
ATOM     14  C   UNL     1       0.216   4.924  -3.931  0.00  0.00    +0.001 A 
ATOM     15  C   UNL     1      -0.791   4.440  -3.154  0.00  0.00    +0.012 A 
ATOM     16  C   UNL     1      -0.615   3.233  -2.460  0.00  0.00    +0.024 A 
ATOM     17  C   UNL     1       0.611   2.534  -2.580  0.00  0.00    -0.014 A 
ATOM     18  C   UNL     1       1.629   3.063  -3.392  0.00  0.00    +0.008 A 
ATOM     19  C   UNL     1       0.787   1.324  -1.886  0.00  0.00    +0.009 A 
ATOM     20  C   UNL     1      -0.220   0.839  -1.108  0.00  0.00    +0.004 A 
ATOM     21  C   UNL     1      -1.429   1.519  -0.992  0.00  0.00    +0.046 A 
ATOM     22  C   UNL     1      -1.636   2.701  -1.646  0.00  0.00    +0.129 A 
ENDBRANCH  12  22
ENDBRANCH  11  12
ENDBRANCH   7  11
ENDBRANCH   1   9
BRANCH   5  23
ATOM     23  S   UNL     1     -11.205   3.738   0.539  0.00  0.00    +0.073 S 
ATOM     24  O   UNL     1     -12.100   4.740   0.076  0.00  0.00    -0.150 OA
ATOM     25  O   UNL     1     -11.156   2.438  -0.031  0.00  0.00    -0.150 OA
BRANCH  23  26
ATOM     26  N   UNL     1     -11.515   3.537   2.153  0.00  0.00    -0.205 N 
ATOM     27  C   UNL     1     -11.596   4.629   2.977  0.00  0.00    +0.088 C 
ATOM     28  C   UNL     1     -11.590   6.804   3.692  0.00  0.00    +0.114 C 
ATOM     29  C   UNL     1     -11.455   5.960   4.980  0.00  0.00    +0.028 C 
ATOM     30  C   UNL     1     -11.879   4.563   4.461  0.00  0.00    +0.072 C 
ATOM     31  H   UNL     1     -11.639   2.646   2.516  0.00  0.00    +0.175 HD
ATOM     32  N   UNL     1     -11.443   5.851   2.571  0.00  0.00    -0.375 N 
ATOM     33  H   UNL     1     -11.246   6.121   1.601  0.00  0.00    +0.161 HD
ENDBRANCH  23  26
ENDBRANCH   5  23
TORSDOF 6
