REMARK  Name = ZINC44963247
REMARK  10 active torsions:
REMARK  status: ('A' for Active; 'I' for Inactive)
REMARK    1  A    between atoms: C_1  and  C_2
REMARK    2  A    between atoms: C_4  and  C_7
REMARK    3  A    between atoms: C_8  and  C_9
REMARK    4  A    between atoms: C_8  and  C_10
REMARK    5  A    between atoms: C_21  and  C_41
REMARK    6  A    between atoms: C_23  and  O_40
REMARK    7  A    between atoms: C_25  and  C_39
REMARK    8  A    between atoms: C_29  and  C_37
REMARK    9  A    between atoms: C_29  and  C_38
REMARK   10  A    between atoms: C_30  and  O_36
REMARK                            x       y       z     vdW  Elec       q    Type
REMARK                         _______ _______ _______ _____ _____    ______ ____
ROOT
ATOM      1  C   UNL     1      -4.597  -3.247   0.099  0.00  0.00    +0.205 C 
ATOM      2  C   UNL     1      -5.521  -2.864  -1.060  0.00  0.00    +0.083 C 
ATOM      3  C   UNL     1      -5.855  -1.376  -1.000  0.00  0.00    +0.151 C 
ATOM      4  C   UNL     1      -7.267  -0.945  -1.405  0.00  0.00    +0.148 C 
ATOM      5  O   UNL     1      -6.125  -0.715  -2.240  0.00  0.00    -0.368 OA
ATOM      6  C   UNL     1      -7.878   0.283  -0.721  0.00  0.00    +0.034 C 
ATOM      7  C   UNL     1      -8.065   0.022   0.777  0.00  0.00    +0.003 C 
ATOM      8  C   UNL     1      -8.533   1.320   1.438  0.00  0.00    +0.006 C 
ATOM      9  C   UNL     1      -7.691   1.643   2.676  0.00  0.00    +0.015 C 
ATOM     10  C   UNL     1      -7.667   0.432   3.606  0.00  0.00    +0.127 C 
ATOM     11  C   UNL     1      -6.719   0.617   4.792  0.00  0.00    +0.081 C 
ATOM     12  C   UNL     1      -6.729  -0.639   5.618  0.00  0.00    +0.147 C 
ATOM     13  O   UNL     1      -7.741  -0.912   6.237  0.00  0.00    -0.296 OA
ATOM     14  C   UNL     1      -5.555  -1.577   5.720  0.00  0.00    +0.050 C 
ATOM     15  C   UNL     1      -5.606  -2.618   4.609  0.00  0.00    +0.138 C 
ATOM     16  C   UNL     1      -4.424  -2.531   3.653  0.00  0.00    +0.152 C 
ATOM     17  C   UNL     1      -4.692  -3.419   2.454  0.00  0.00    +0.310 C 
ATOM     18  O   UNL     1      -4.450  -4.599   2.507  0.00  0.00    -0.251 OA
ATOM     19  O   UNL     1      -5.204  -2.878   1.336  0.00  0.00    -0.457 OA
ATOM     20  C   UNL     1      -5.681  -2.320   7.064  0.00  0.00    +0.021 C 
ATOM     21  C   UNL     1      -4.237  -0.814   5.723  0.00  0.00    +0.021 C 
ATOM     22  C   UNL     1      -7.229   1.771   5.674  0.00  0.00    +0.018 C 
ATOM     23  C   UNL     1      -6.282   2.042   2.237  0.00  0.00    +0.010 C 
ENDROOT
BRANCH   1  25
ATOM     24  C   UNL     1      -2.937  -1.567   0.764  0.00  0.00    +0.031 C 
ATOM     25  C   UNL     1      -3.271  -2.553  -0.058  0.00  0.00    -0.031 C 
ATOM     26  C   UNL     1      -2.322  -2.977  -1.149  0.00  0.00    +0.043 C 
BRANCH  24  30
ATOM     27  C   UNL     1       1.734  -1.390  -0.967  0.00  0.00    +0.073 C 
ATOM     28  C   UNL     1       0.556  -0.955  -0.133  0.00  0.00    +0.076 A 
ATOM     29  N   UNL     1      -0.640  -1.479  -0.086  0.00  0.00    -0.245 NA
ATOM     30  C   UNL     1      -1.582  -0.982   0.705  0.00  0.00    +0.071 A 
ATOM     31  C   UNL     1      -1.230   0.105   1.463  0.00  0.00    +0.074 A 
ATOM     32  S   UNL     1       0.471   0.318   0.964  0.00  0.00    -0.080 S 
ENDBRANCH  24  30
ENDBRANCH   1  25
BRANCH  15  33
ATOM     33  O   UNL     1      -6.828  -2.503   3.883  0.00  0.00    -0.390 OA
ATOM     34  H   UNL     1      -6.919  -3.140   3.161  0.00  0.00    +0.210 HD
ENDBRANCH  15  33
BRANCH  10  35
ATOM     35  O   UNL     1      -8.995   0.209   4.110  0.00  0.00    -0.391 OA
ATOM     36  H   UNL     1      -9.066  -0.545   4.710  0.00  0.00    +0.210 HD
ENDBRANCH  10  35
TORSDOF 4
