REMARK  Name = ZINC65360552
REMARK  8 active torsions:
REMARK  status: ('A' for Active; 'I' for Inactive)
REMARK    1  A    between atoms: C_1  and  C_2
REMARK    2  A    between atoms: C_3  and  C_9
REMARK    3  A    between atoms: C_4  and  C_8
REMARK    4  A    between atoms: N_5  and  C_7
REMARK    5  A    between atoms: C_9  and  C_10
REMARK    6  A    between atoms: C_9  and  N_11
REMARK    7  A    between atoms: N_14  and  C_15
REMARK    8  A    between atoms: C_18  and  N_21
REMARK                            x       y       z     vdW  Elec       q    Type
REMARK                         _______ _______ _______ _____ _____    ______ ____
ROOT
ATOM      1  N   UNL     1      -0.616   0.845  -2.744  0.00  0.00    -0.292 N 
ATOM      2  C   UNL     1      -1.164   1.103  -3.948  0.00  0.00    +0.304 C 
ATOM      3  O   UNL     1      -0.962   0.350  -4.881  0.00  0.00    -0.252 OA
ATOM      4  N   UNL     1      -1.935   2.195  -4.118  0.00  0.00    -0.269 N 
ATOM      5  H   UNL     1      -0.776   1.446  -1.999  0.00  0.00    +0.151 HD
ATOM      6  H   UNL     1      -2.151   2.759  -3.358  0.00  0.00    +0.156 HD
ENDROOT
BRANCH   4   7
ATOM      7  C   UNL     1      -2.423   2.517  -5.390  0.00  0.00    +0.035 A 
ATOM      8  C   UNL     1      -2.543   3.847  -5.772  0.00  0.00    +0.025 A 
ATOM      9  C   UNL     1      -3.023   4.164  -7.027  0.00  0.00    +0.029 A 
ATOM     10  C   UNL     1      -3.387   3.153  -7.907  0.00  0.00    +0.067 A 
ATOM     11  C   UNL     1      -3.267   1.824  -7.525  0.00  0.00    +0.029 A 
ATOM     12  C   UNL     1      -2.781   1.506  -6.272  0.00  0.00    +0.025 A 
BRANCH  10  13
ATOM     13  N   UNL     1      -3.875   3.476  -9.181  0.00  0.00    -0.220 N 
ATOM     14  C   UNL     1      -4.271   2.612 -10.137  0.00  0.00    +0.225 A 
ATOM     15  N   UNL     1      -4.658   3.307 -11.176  0.00  0.00    -0.222 NA
ATOM     16  C   UNL     1      -4.526   4.609 -10.924  0.00  0.00    +0.245 A 
ATOM     17  N   UNL     1      -4.055   4.763  -9.714  0.00  0.00    -0.154 NA
ENDBRANCH  10  13
ENDBRANCH   4   7
BRANCH   1  18
ATOM     18  C   UNL     1       0.222  -0.342  -2.559  0.00  0.00    +0.105 C 
ATOM     19  C   UNL     1       1.677   0.005  -2.885  0.00  0.00    +0.033 C 
BRANCH  18  22
ATOM     20  C   UNL     1      -0.218  -3.330  -1.601  0.00  0.00    +0.068 C 
ATOM     21  C   UNL     1      -0.069  -2.127  -0.706  0.00  0.00    +0.065 A 
ATOM     22  C   UNL     1       0.125  -0.808  -1.130  0.00  0.00    +0.016 A 
ATOM     23  C   UNL     1       0.210  -0.026  -0.029  0.00  0.00    +0.041 A 
ATOM     24  N   UNL     1       0.075  -0.821   1.052  0.00  0.00    -0.271 N 
ATOM     25  N   UNL     1      -0.104  -2.135   0.602  0.00  0.00    -0.176 NA
ATOM     26  C   UNL     1       0.105  -0.386   2.451  0.00  0.00    +0.172 C 
ATOM     27  C   UNL     1       0.419   1.467  -0.015  0.00  0.00    +0.065 C 
ENDBRANCH  18  22
ENDBRANCH   1  18
TORSDOF 4
