REMARK  Name = ZINC19939749
REMARK  8 active torsions:
REMARK  status: ('A' for Active; 'I' for Inactive)
REMARK    1  A    between atoms: C_1  and  C_2
REMARK    2  A    between atoms: C_3  and  C_7
REMARK    3  A    between atoms: C_7  and  N_8
REMARK    4  A    between atoms: N_8  and  C_9
REMARK    5  A    between atoms: N_8  and  C_10
REMARK    6  A    between atoms: N_21  and  C_24
REMARK    7  A    between atoms: C_24  and  C_25
REMARK    8  A    between atoms: C_29  and  C_31
REMARK                            x       y       z     vdW  Elec       q    Type
REMARK                         _______ _______ _______ _____ _____    ______ ____
ROOT
ATOM      1  C   UNL     1      -2.936  -1.833  -1.412  0.00  0.00    +0.062 C 
ATOM      2  C   UNL     1      -3.387  -1.997  -2.866  0.00  0.00    +0.024 C 
ATOM      3  C   UNL     1      -4.846  -2.452  -2.909  0.00  0.00    +0.038 C 
ATOM      4  C   UNL     1      -5.004  -3.690  -2.031  0.00  0.00    -0.023 A 
ATOM      5  C   UNL     1      -4.077  -3.990  -1.091  0.00  0.00    -0.003 A 
ATOM      6  S   UNL     1      -4.656  -5.483  -0.326  0.00  0.00    -0.073 S 
ATOM      7  C   UNL     1      -6.135  -5.702  -1.264  0.00  0.00    +0.116 A 
ATOM      8  C   UNL     1      -6.130  -4.599  -2.147  0.00  0.00    +0.076 A 
ATOM      9  C   UNL     1      -7.232  -4.492  -3.061  0.00  0.00    +0.263 A 
ATOM     10  O   UNL     1      -7.322  -3.578  -3.864  0.00  0.00    -0.267 OA
ATOM     11  N   UNL     1      -8.164  -5.470  -2.975  0.00  0.00    -0.294 N 
ATOM     12  C   UNL     1      -8.082  -6.493  -2.091  0.00  0.00    +0.203 A 
ATOM     13  N   UNL     1      -7.090  -6.626  -1.239  0.00  0.00    -0.230 NA
ATOM     14  C   UNL     1      -2.831  -3.223  -0.770  0.00  0.00    +0.061 C 
ENDROOT
BRANCH   1  15
ATOM     15  N   UNL     1      -1.625  -1.172  -1.374  0.00  0.00    -0.296 NA
ATOM     16  C   UNL     1      -0.611  -1.975  -2.071  0.00  0.00    +0.105 C 
BRANCH  15  17
ATOM     17  C   UNL     1      -1.216  -0.892   0.008  0.00  0.00    +0.145 C 
BRANCH  17  20
ATOM     18  C   UNL     1       1.770  -1.897  -0.025  0.00  0.00    +0.071 C 
ATOM     19  C   UNL     1       1.337  -0.454  -0.013  0.00  0.00    +0.106 A 
ATOM     20  C   UNL     1       0.002  -0.004   0.002  0.00  0.00    +0.121 A 
ATOM     21  N   UNL     1      -0.015   1.295   0.009  0.00  0.00    -0.052 NA
ATOM     22  O   UNL     1       1.332   1.738  -0.001  0.00  0.00    -0.242 OA
ATOM     23  N   UNL     1       2.137   0.570  -0.015  0.00  0.00    -0.054 NA
ENDBRANCH  17  20
ENDBRANCH  15  17
ENDBRANCH   1  15
BRANCH  11  24
ATOM     24  C   UNL     1      -9.315  -5.419  -3.881  0.00  0.00    +0.161 C 
BRANCH  24  25
ATOM     25  C   UNL     1     -10.428  -4.634  -3.236  0.00  0.00    -0.027 A 
ATOM     26  C   UNL     1     -11.369  -5.282  -2.457  0.00  0.00    +0.005 A 
ATOM     27  C   UNL     1     -12.387  -4.561  -1.863  0.00  0.00    +0.001 A 
ATOM     28  C   UNL     1     -12.470  -3.194  -2.053  0.00  0.00    +0.012 A 
ATOM     29  C   UNL     1     -11.531  -2.548  -2.836  0.00  0.00    +0.055 A 
ATOM     30  C   UNL     1     -10.510  -3.268  -3.427  0.00  0.00    +0.017 A 
BRANCH  29  31
ATOM     31  C   UNL     1     -11.621  -1.058  -3.044  0.00  0.00    +0.417 C 
ATOM     32  F   UNL     1     -12.403  -0.791  -4.173  0.00  0.00    -0.166 F 
ATOM     33  F   UNL     1     -12.207  -0.464  -1.921  0.00  0.00    -0.166 F 
ATOM     34  F   UNL     1     -10.338  -0.535  -3.232  0.00  0.00    -0.166 F 
ENDBRANCH  29  31
ENDBRANCH  24  25
ENDBRANCH  11  24
TORSDOF 6
