REMARK  Name = ZINC47778125
REMARK  7 active torsions:
REMARK  status: ('A' for Active; 'I' for Inactive)
REMARK    1  A    between atoms: C_3  and  C_6
REMARK    2  A    between atoms: C_6  and  C_8
REMARK    3  A    between atoms: C_6  and  N_25
REMARK    4  A    between atoms: C_8  and  N_9
REMARK    5  A    between atoms: N_12  and  C_13
REMARK    6  A    between atoms: C_13  and  C_14
REMARK    7  A    between atoms: C_14  and  C_15
REMARK                            x       y       z     vdW  Elec       q    Type
REMARK                         _______ _______ _______ _____ _____    ______ ____
ROOT
ATOM      1  N   UNL     1       5.570   0.024  -1.358  0.00  0.00    -0.301 N 
ATOM      2  C   UNL     1       6.234  -0.409  -2.448  0.00  0.00    +0.300 C 
ATOM      3  O   UNL     1       5.633  -0.605  -3.487  0.00  0.00    -0.253 OA
ATOM      4  N   UNL     1       7.563  -0.626  -2.386  0.00  0.00    -0.299 N 
ATOM      5  H   UNL     1       6.049   0.180  -0.529  0.00  0.00    +0.150 HD
ATOM      6  H   UNL     1       8.041  -0.470  -1.557  0.00  0.00    +0.150 HD
ENDROOT
BRANCH   1   7
ATOM      7  C   UNL     1       4.126   0.260  -1.425  0.00  0.00    +0.098 C 
BRANCH   7   8
ATOM      8  C   UNL     1       3.602   0.617  -0.032  0.00  0.00    +0.016 C 
BRANCH   8   9
ATOM      9  N   UNL     1       3.975  -0.441   0.917  0.00  0.00    +0.387 N 
ATOM     10  C   UNL     1       3.460  -1.729   0.439  0.00  0.00    -0.078 C 
ATOM     11  C   UNL     1       3.914  -2.846   1.381  0.00  0.00    -0.019 C 
ATOM     12  C   UNL     1       3.374  -2.570   2.788  0.00  0.00    -0.004 C 
ATOM     13  C   UNL     1       3.857  -1.191   3.247  0.00  0.00    -0.019 C 
ATOM     14  C   UNL     1       3.405  -0.136   2.235  0.00  0.00    -0.078 C 
ATOM     15  H   UNL     1       4.980  -0.488   0.989  0.00  0.00    -0.081 HD
ENDBRANCH   8   9
BRANCH   8  18
ATOM     16  C   UNL     1       0.038   1.554  -0.081  0.00  0.00    +0.041 A 
ATOM     17  C   UNL     1       1.408   1.895   0.005  0.00  0.00    +0.043 A 
ATOM     18  C   UNL     1       2.102   0.746  -0.077  0.00  0.00    +0.093 A 
ATOM     19  O   UNL     1       1.230  -0.268  -0.207  0.00  0.00    -0.469 OA
ATOM     20  C   UNL     1      -0.023   0.217  -0.210  0.00  0.00    +0.195 A 
ENDBRANCH   8  18
ENDBRANCH   7   8
ENDBRANCH   1   7
BRANCH   4  21
ATOM     21  C   UNL     1       8.284  -1.097  -3.571  0.00  0.00    +0.113 C 
BRANCH  21  22
ATOM     22  C   UNL     1       9.767  -1.261  -3.234  0.00  0.00    +0.095 C 
BRANCH  22  23
ATOM     23  C   UNL     1      10.509  -1.746  -4.453  0.00  0.00    +0.135 A 
ATOM     24  N   UNL     1      10.710  -2.991  -4.795  0.00  0.00    -0.134 NA
ATOM     25  N   UNL     1      11.373  -3.037  -5.897  0.00  0.00    -0.134 NA
ATOM     26  C   UNL     1      11.620  -1.825  -6.308  0.00  0.00    +0.133 A 
ATOM     27  N   UNL     1      11.085  -0.975  -5.401  0.00  0.00    -0.315 N 
ATOM     28  C   UNL     1      11.141   0.487  -5.439  0.00  0.00    +0.125 C 
ATOM     29  C   UNL     1      11.238   0.954  -6.895  0.00  0.00    +0.022 C 
ATOM     30  C   UNL     1      12.706   1.040  -7.311  0.00  0.00    +0.002 C 
ATOM     31  C   UNL     1      13.368  -0.332  -7.220  0.00  0.00    +0.008 C 
ATOM     32  C   UNL     1      12.353  -1.419  -7.560  0.00  0.00    +0.076 C 
ENDBRANCH  22  23
ENDBRANCH  21  22
ENDBRANCH   4  21
TORSDOF 7
