REMARK  Name = ZINC35062325
REMARK  12 active torsions:
REMARK  status: ('A' for Active; 'I' for Inactive)
REMARK    1  A    between atoms: C_1  and  C_2
REMARK    2  A    between atoms: C_7  and  N_8
REMARK    3  A    between atoms: C_18  and  C_19
REMARK    4  A    between atoms: C_19  and  C_21
REMARK    5  A    between atoms: C_19  and  N_22
REMARK    6  A    between atoms: N_22  and  C_23
REMARK    7  A    between atoms: C_23  and  C_24
REMARK    8  A    between atoms: C_24  and  N_25
REMARK    9  A    between atoms: N_25  and  C_26
REMARK   10  A    between atoms: N_25  and  C_27
REMARK   11  A    between atoms: C_28  and  C_30
REMARK   12  A    between atoms: C_30  and  C_31
REMARK                            x       y       z     vdW  Elec       q    Type
REMARK                         _______ _______ _______ _____ _____    ______ ____
ROOT
ATOM      1  N   UNL     1       0.976  -0.364   3.913  0.00  0.00    -0.263 N 
ATOM      2  C   UNL     1      -0.111   0.117   4.560  0.00  0.00    +0.266 A 
ATOM      3  O   UNL     1      -0.483  -0.363   5.615  0.00  0.00    -0.267 OA
ATOM      4  C   UNL     1      -0.826   1.241   3.938  0.00  0.00    +0.065 A 
ATOM      5  C   UNL     1      -1.956   1.809   4.522  0.00  0.00    +0.015 A 
ATOM      6  C   UNL     1      -2.588   2.861   3.896  0.00  0.00    +0.001 A 
ATOM      7  C   UNL     1      -2.107   3.358   2.692  0.00  0.00    +0.002 A 
ATOM      8  C   UNL     1      -0.992   2.811   2.098  0.00  0.00    +0.028 A 
ATOM      9  C   UNL     1      -0.334   1.744   2.713  0.00  0.00    +0.078 A 
ATOM     10  N   UNL     1       0.768   1.175   2.163  0.00  0.00    -0.231 NA
ATOM     11  C   UNL     1       1.382   0.186   2.737  0.00  0.00    +0.138 A 
ENDROOT
BRANCH   1  18
ATOM     12  C   UNL     1       0.400  -2.990   2.980  0.00  0.00    +0.046 C 
ATOM     13  C   UNL     1       1.444  -2.732   4.036  0.00  0.00    -0.025 A 
ATOM     14  C   UNL     1       2.157  -3.785   4.575  0.00  0.00    +0.025 A 
ATOM     15  C   UNL     1       3.115  -3.548   5.545  0.00  0.00    +0.041 A 
ATOM     16  C   UNL     1       3.362  -2.256   5.977  0.00  0.00    +0.022 A 
ATOM     17  C   UNL     1       2.652  -1.200   5.441  0.00  0.00    +0.028 A 
ATOM     18  C   UNL     1       1.694  -1.435   4.463  0.00  0.00    +0.054 A 
ATOM     19 CL   UNL     1       4.008  -4.874   6.222  0.00  0.00    -0.084 Cl
ENDBRANCH   1  18
BRANCH  11  20
ATOM     20  C   UNL     1       2.603  -0.386   2.064  0.00  0.00    +0.139 C 
ATOM     21  C   UNL     1       2.639   0.067   0.603  0.00  0.00    +0.036 C 
BRANCH  20  22
ATOM     22  N   UNL     1       3.807   0.088   2.752  0.00  0.00    -0.293 N 
ATOM     23  C   UNL     1       4.715  -0.797   3.208  0.00  0.00    +0.221 C 
ATOM     24  O   UNL     1       4.536  -1.986   3.049  0.00  0.00    -0.275 OA
BRANCH  22  25
ATOM     25  C   UNL     1       4.024   1.524   2.944  0.00  0.00    +0.090 C 
BRANCH  25  26
ATOM     26  C   UNL     1       3.530   1.933   4.333  0.00  0.00    -0.060 C 
BRANCH  26  27
ATOM     27  N   UNL     1       3.660   3.388   4.491  0.00  0.00    +0.377 N 
ATOM     28  C   UNL     1       2.763   4.065   3.545  0.00  0.00    -0.097 C 
ATOM     29  C   UNL     1       3.300   3.766   5.864  0.00  0.00    -0.097 C 
ATOM     30  H   UNL     1       4.613   3.662   4.306  0.00  0.00    -0.083 HD
ENDBRANCH  26  27
ENDBRANCH  25  26
ENDBRANCH  22  25
BRANCH  23  31
ATOM     31  C   UNL     1       5.953  -0.309   3.915  0.00  0.00    +0.138 C 
BRANCH  31  32
ATOM     32  C   UNL     1       6.798  -1.490   4.321  0.00  0.00    -0.001 A 
ATOM     33  C   UNL     1       7.788  -2.108   3.632  0.00  0.00    +0.011 A 
ATOM     34  C   UNL     1       8.434  -3.186   4.209  0.00  0.00    +0.008 A 
ATOM     35  C   UNL     1       8.059  -3.591   5.447  0.00  0.00    +0.045 A 
ATOM     36  S   UNL     1       6.759  -2.432   5.838  0.00  0.00    -0.101 S 
ENDBRANCH  31  32
ENDBRANCH  23  31
ENDBRANCH  20  22
ENDBRANCH  11  20
TORSDOF 8
