REMARK  Name = ZINC61669881
REMARK  3 active torsions:
REMARK  status: ('A' for Active; 'I' for Inactive)
REMARK    1  A    between atoms: C_14  and  N_15
REMARK    2  A    between atoms: N_15  and  C_16
REMARK    3  A    between atoms: C_16  and  C_17
REMARK                            x       y       z     vdW  Elec       q    Type
REMARK                         _______ _______ _______ _____ _____    ______ ____
ROOT
ATOM      1  C   UNL     1      -0.017   1.376   0.010  0.00  0.00    +0.000 A 
ATOM      2  C   UNL     1       1.173   2.079   0.002  0.00  0.00    +0.000 A 
ATOM      3  C   UNL     1       2.373   1.398  -0.013  0.00  0.00    +0.002 A 
ATOM      4  C   UNL     1       2.394   0.011  -0.021  0.00  0.00    -0.054 A 
ATOM      5  C   UNL     1       1.208  -0.690  -0.013  0.00  0.00    -0.041 A 
ATOM      6  C   UNL     1       0.002  -0.004   0.002  0.00  0.00    +0.004 A 
ATOM      7  C   UNL     1       1.179  -2.191  -0.020  0.00  0.00    +0.070 C 
ATOM      8  C   UNL     1       2.436  -2.773  -0.599  0.00  0.00    -0.041 A 
ATOM      9  C   UNL     1       2.387  -4.052  -1.137  0.00  0.00    +0.004 A 
ATOM     10  C   UNL     1       3.519  -4.625  -1.679  0.00  0.00    +0.000 A 
ATOM     11  C   UNL     1       4.710  -3.922  -1.686  0.00  0.00    +0.000 A 
ATOM     12  C   UNL     1       4.760  -2.651  -1.151  0.00  0.00    +0.002 A 
ATOM     13  C   UNL     1       3.622  -2.073  -0.606  0.00  0.00    -0.054 A 
ATOM     14  C   UNL     1       3.723  -0.687  -0.037  0.00  0.00    -0.009 C 
ENDROOT
BRANCH  14  15
ATOM     15  N   UNL     1       4.237  -0.770   1.337  0.00  0.00    +0.391 N 
ATOM     16  H   UNL     1       4.267   0.154   1.741  0.00  0.00    -0.084 HD
ATOM     17  H   UNL     1       3.629  -1.358   1.887  0.00  0.00    -0.084 HD
BRANCH  15  18
ATOM     18  C   UNL     1       5.590  -1.342   1.320  0.00  0.00    +0.000 C 
BRANCH  18  19
ATOM     19  C   UNL     1       6.116  -1.428   2.729  0.00  0.00    +0.160 A 
ATOM     20  N   UNL     1       6.799  -0.494   3.376  0.00  0.00    -0.113 NA
ATOM     21  N   UNL     1       7.064  -0.950   4.552  0.00  0.00    -0.021 NA
ATOM     22  N   UNL     1       6.571  -2.134   4.665  0.00  0.00    -0.021 NA
ATOM     23  N   UNL     1       5.980  -2.449   3.563  0.00  0.00    -0.113 NA
ENDBRANCH  18  19
ENDBRANCH  15  18
ENDBRANCH  14  15
TORSDOF 3
