REMARK  Name = ZINC13256326
REMARK  9 active torsions:
REMARK  status: ('A' for Active; 'I' for Inactive)
REMARK    1  A    between atoms: C_1  and  C_2
REMARK    2  A    between atoms: C_8  and  C_16
REMARK    3  A    between atoms: C_12  and  C_13
REMARK    4  A    between atoms: C_16  and  S_17
REMARK    5  A    between atoms: S_17  and  C_18
REMARK    6  A    between atoms: N_26  and  C_27
REMARK    7  A    between atoms: C_27  and  C_28
REMARK    8  A    between atoms: C_28  and  O_29
REMARK    9  A    between atoms: O_29  and  C_30
REMARK                            x       y       z     vdW  Elec       q    Type
REMARK                         _______ _______ _______ _____ _____    ______ ____
ROOT
ATOM      1  C   UNL     1      -0.018   1.503   0.010  0.00  0.00    +0.046 C 
ATOM      2  C   UNL     1       0.002  -0.004   0.002  0.00  0.00    -0.015 A 
ATOM      3  C   UNL     1       0.005  -0.700  -1.207  0.00  0.00    +0.076 A 
ATOM      4  C   UNL     1      -0.009  -0.168  -2.590  0.00  0.00    +0.260 A 
ATOM      5  O   UNL     1      -0.026   1.032  -2.798  0.00  0.00    -0.267 OA
ATOM      6  N   UNL     1      -0.002  -1.047  -3.611  0.00  0.00    -0.310 N 
ATOM      7  H   UNL     1      -0.010  -0.716  -4.523  0.00  0.00    +0.170 HD
ATOM      8  C   UNL     1       0.018  -2.385  -3.391  0.00  0.00    +0.121 A 
ATOM      9  N   UNL     1       0.031  -2.886  -2.186  0.00  0.00    -0.226 NA
ATOM     10  C   UNL     1       0.026  -2.110  -1.109  0.00  0.00    +0.116 A 
ATOM     11  S   UNL     1       0.038  -2.402   0.641  0.00  0.00    -0.062 S 
ATOM     12  C   UNL     1       0.023  -0.703   1.188  0.00  0.00    +0.106 A 
ENDROOT
BRANCH  12  13
ATOM     13  C   UNL     1       0.029  -0.199   2.513  0.00  0.00    +0.393 C 
ATOM     14  O   UNL     1       0.015   1.010   2.709  0.00  0.00    -0.240 OA
ATOM     15  O   UNL     1       0.050  -0.973   3.463  0.00  0.00    -0.240 OA
ENDBRANCH  12  13
BRANCH   8  16
ATOM     16  C   UNL     1       0.025  -3.320  -4.573  0.00  0.00    +0.151 C 
BRANCH  16  17
ATOM     17  S   UNL     1       0.052  -5.036  -3.985  0.00  0.00    -0.080 S 
BRANCH  17  18
ATOM     18  C   UNL     1       0.057  -5.993  -5.464  0.00  0.00    +0.170 A 
ATOM     19  N   UNL     1       0.050  -5.502  -6.679  0.00  0.00    -0.222 NA
ATOM     20  C   UNL     1       0.058  -6.517  -7.582  0.00  0.00    +0.090 A 
ATOM     21  C   UNL     1       0.055  -6.560  -8.979  0.00  0.00    +0.030 A 
ATOM     22  C   UNL     1       0.066  -7.775  -9.626  0.00  0.00    +0.002 A 
ATOM     23  C   UNL     1       0.079  -8.958  -8.902  0.00  0.00    +0.002 A 
ATOM     24  C   UNL     1       0.081  -8.933  -7.522  0.00  0.00    +0.028 A 
ATOM     25  C   UNL     1       0.071  -7.718  -6.854  0.00  0.00    +0.070 A 
ATOM     26  N   UNL     1       0.076  -7.358  -5.516  0.00  0.00    -0.316 N 
BRANCH  26  27
ATOM     27  C   UNL     1       0.094  -8.271  -4.370  0.00  0.00    +0.152 C 
BRANCH  27  28
ATOM     28  C   UNL     1      -1.342  -8.610  -3.965  0.00  0.00    +0.181 C 
BRANCH  28  29
ATOM     29  O   UNL     1      -1.325  -9.500  -2.848  0.00  0.00    -0.381 OA
ATOM     30  C   UNL     1      -2.623  -9.881  -2.388  0.00  0.00    +0.194 C 
ENDBRANCH  28  29
ENDBRANCH  27  28
ENDBRANCH  26  27
ENDBRANCH  17  18
ENDBRANCH  16  17
ENDBRANCH   8  16
TORSDOF 7
