REMARK  Name = ZINC15047240
REMARK  7 active torsions:
REMARK  status: ('A' for Active; 'I' for Inactive)
REMARK    1  A    between atoms: C_1  and  C_2
REMARK    2  A    between atoms: C_2  and  C_4
REMARK    3  A    between atoms: C_2  and  N_16
REMARK    4  A    between atoms: N_6  and  C_7
REMARK    5  A    between atoms: C_10  and  C_13
REMARK    6  A    between atoms: C_20  and  C_21
REMARK    7  A    between atoms: C_26  and  O_27
REMARK                            x       y       z     vdW  Elec       q    Type
REMARK                         _______ _______ _______ _____ _____    ______ ____
ROOT
ATOM      1  N   UNL     1      -1.408  -1.116   0.566  0.00  0.00    -0.244 N 
ATOM      2  C   UNL     1      -1.874  -1.581  -0.581  0.00  0.00    +0.259 C 
ATOM      3  O   UNL     1      -1.135  -1.833  -1.516  0.00  0.00    -0.269 OA
ATOM      4  C   UNL     1      -3.334  -1.780  -0.671  0.00  0.00    +0.077 C 
ATOM      5  C   UNL     1      -4.083  -2.237  -1.707  0.00  0.00    +0.031 C 
ATOM      6  S   UNL     1      -3.845  -1.252   0.958  0.00  0.00    -0.061 S 
ATOM      7  C   UNL     1      -2.229  -0.843   1.600  0.00  0.00    +0.121 C 
ATOM      8  S   UNL     1      -1.822  -0.247   3.152  0.00  0.00    -0.027 S 
ENDROOT
BRANCH   5   9
ATOM      9  C   UNL     1      -5.520  -2.475  -1.525  0.00  0.00    +0.018 A 
ATOM     10  C   UNL     1      -6.055  -2.607  -0.238  0.00  0.00    +0.011 A 
ATOM     11  C   UNL     1      -7.404  -2.830  -0.075  0.00  0.00    +0.001 A 
ATOM     12  C   UNL     1      -8.236  -2.923  -1.180  0.00  0.00    +0.004 A 
ATOM     13  C   UNL     1      -7.723  -2.794  -2.456  0.00  0.00    +0.046 A 
ATOM     14  C   UNL     1      -6.369  -2.564  -2.641  0.00  0.00    +0.124 A 
BRANCH  14  15
ATOM     15  O   UNL     1      -5.864  -2.432  -3.894  0.00  0.00    -0.506 OA
ATOM     16  H   UNL     1      -5.579  -3.265  -4.293  0.00  0.00    +0.292 HD
ENDBRANCH  14  15
ENDBRANCH   5   9
BRANCH   1  18
ATOM     17  C   UNL     1       0.294   0.577   1.032  0.00  0.00    +0.038 C 
ATOM     18  C   UNL     1       0.032  -0.897   0.718  0.00  0.00    +0.166 C 
BRANCH  18  19
ATOM     19  C   UNL     1       0.553  -1.751   1.845  0.00  0.00    +0.238 C 
ATOM     20  O   UNL     1      -0.204  -2.471   2.461  0.00  0.00    -0.273 OA
ATOM     21  N   UNL     1       1.861  -1.714   2.169  0.00  0.00    -0.284 N 
ATOM     22  H   UNL     1       2.484  -1.218   1.615  0.00  0.00    +0.155 HD
BRANCH  21  23
ATOM     23  C   UNL     1       2.318  -2.389   3.299  0.00  0.00    +0.033 A 
ATOM     24  C   UNL     1       1.773  -3.624   3.638  0.00  0.00    +0.024 A 
ATOM     25  C   UNL     1       2.220  -4.291   4.750  0.00  0.00    +0.017 A 
ATOM     26  C   UNL     1       3.225  -3.728   5.544  0.00  0.00    +0.063 A 
ATOM     27  C   UNL     1       3.771  -2.487   5.199  0.00  0.00    +0.017 A 
ATOM     28  C   UNL     1       3.322  -1.828   4.083  0.00  0.00    +0.024 A 
BRANCH  26  29
ATOM     29  C   UNL     1       3.708  -4.441   6.739  0.00  0.00    +0.387 C 
ATOM     30  O   UNL     1       3.229  -5.526   7.038  0.00  0.00    -0.241 OA
ATOM     31  O   UNL     1       4.587  -3.947   7.431  0.00  0.00    -0.241 OA
ENDBRANCH  26  29
ENDBRANCH  21  23
ENDBRANCH  18  19
ENDBRANCH   1  18
TORSDOF 6
