REMARK  Name = ZINC13270096
REMARK  9 active torsions:
REMARK  status: ('A' for Active; 'I' for Inactive)
REMARK    1  A    between atoms: C_1  and  N_2
REMARK    2  A    between atoms: N_2  and  S_3
REMARK    3  A    between atoms: S_3  and  C_6
REMARK    4  A    between atoms: C_6  and  C_7
REMARK    5  A    between atoms: C_10  and  C_13
REMARK    6  A    between atoms: C_13  and  N_14
REMARK    7  A    between atoms: N_14  and  S_15
REMARK    8  A    between atoms: S_15  and  C_18
REMARK    9  A    between atoms: C_20  and  C_26
REMARK                            x       y       z     vdW  Elec       q    Type
REMARK                         _______ _______ _______ _____ _____    ______ ____
ROOT
ATOM      1  N   UNL     1      -1.672   8.215   3.324  0.00  0.00    -0.186 NA
ATOM      2  H   UNL     1      -2.151   7.547   3.838  0.00  0.00    +0.148 HD
ENDROOT
BRANCH   1   3
ATOM      3  S   UNL     1      -1.549   9.766   3.893  0.00  0.00    +0.060 S 
ATOM      4  O   UNL     1      -2.260   9.805   5.122  0.00  0.00    -0.153 OA
ATOM      5  O   UNL     1      -0.178  10.127   3.793  0.00  0.00    -0.153 OA
BRANCH   3   6
ATOM      6  C   UNL     1      -2.426  10.803   2.771  0.00  0.00    +0.124 A 
ATOM      7  C   UNL     1      -3.560  11.466   3.191  0.00  0.00    +0.046 A 
ATOM      8  C   UNL     1      -4.252  12.292   2.302  0.00  0.00    +0.083 A 
ATOM      9  C   UNL     1      -3.795  12.433   0.988  0.00  0.00    +0.057 A 
ATOM     10  C   UNL     1      -2.662  11.759   0.579  0.00  0.00    +0.042 A 
ATOM     11  C   UNL     1      -1.978  10.946   1.468  0.00  0.00    +0.069 A 
ATOM     12 CL   UNL     1      -0.554  10.102   0.946  0.00  0.00    -0.081 Cl
ATOM     13 CL   UNL     1      -4.652  13.451  -0.127  0.00  0.00    -0.083 Cl
BRANCH   8  14
ATOM     14  C   UNL     1      -5.464  13.008   2.746  0.00  0.00    +0.388 C 
ATOM     15  O   UNL     1      -6.067  13.722   1.970  0.00  0.00    -0.241 OA
ATOM     16  O   UNL     1      -5.901  12.870   4.013  0.00  0.00    -0.241 OA
ENDBRANCH   8  14
ENDBRANCH   3   6
ENDBRANCH   1   3
BRANCH   1  17
ATOM     17  C   UNL     1      -1.057   7.854   2.044  0.00  0.00    +0.141 C 
BRANCH  17  21
ATOM     18  C   UNL     1      -0.853   3.600   1.713  0.00  0.00    -0.025 A 
ATOM     19  C   UNL     1       0.192   4.299   2.287  0.00  0.00    +0.005 A 
ATOM     20  C   UNL     1       0.128   5.676   2.390  0.00  0.00    +0.005 A 
ATOM     21  C   UNL     1      -0.985   6.353   1.928  0.00  0.00    -0.032 A 
ATOM     22  C   UNL     1      -2.033   5.653   1.359  0.00  0.00    +0.005 A 
ATOM     23  C   UNL     1      -1.967   4.276   1.252  0.00  0.00    +0.005 A 
BRANCH  18  24
ATOM     24  C   UNL     1      -0.781   2.099   1.596  0.00  0.00    +0.220 C 
BRANCH  24  25
ATOM     25  S   UNL     1      -0.020   1.652   0.011  0.00  0.00    +0.033 S 
ATOM     26  O   UNL     1       1.349   2.033   0.000  0.00  0.00    -0.158 OA
ATOM     27  O   UNL     1      -0.880   2.009  -1.062  0.00  0.00    -0.158 OA
BRANCH  25  29
ATOM     28  C   UNL     1      -1.257  -0.754  -0.013  0.00  0.00    +0.127 C 
ATOM     29  N   UNL     1       0.002  -0.004   0.002  0.00  0.00    -0.197 NA
ATOM     30  H   UNL     1       0.849  -0.478   0.006  0.00  0.00    +0.147 HD
ENDBRANCH  25  29
ENDBRANCH  24  25
ENDBRANCH  18  24
ENDBRANCH  17  21
ENDBRANCH   1  17
TORSDOF 8
