REMARK  Name = ZINC34909809
REMARK  11 active torsions:
REMARK  status: ('A' for Active; 'I' for Inactive)
REMARK    1  A    between atoms: C_1  and  C_2
REMARK    2  A    between atoms: C_5  and  S_8
REMARK    3  A    between atoms: S_8  and  N_11
REMARK    4  A    between atoms: N_11  and  C_12
REMARK    5  A    between atoms: N_11  and  C_35
REMARK    6  A    between atoms: C_12  and  C_13
REMARK    7  A    between atoms: N_15  and  C_16
REMARK    8  A    between atoms: N_15  and  C_24
REMARK    9  A    between atoms: C_16  and  C_17
REMARK   10  A    between atoms: N_32  and  C_33
REMARK   11  A    between atoms: N_32  and  C_34
REMARK                            x       y       z     vdW  Elec       q    Type
REMARK                         _______ _______ _______ _____ _____    ______ ____
ROOT
ATOM      1  C   UNL     1       2.022  -6.782   3.839  0.00  0.00    +0.232 C 
ATOM      2  O   UNL     1       1.320  -7.347   3.028  0.00  0.00    -0.274 OA
ATOM      3  N   UNL     1       2.922  -7.484   4.556  0.00  0.00    -0.293 N 
ENDROOT
BRANCH   3   4
ATOM      4  C   UNL     1       3.132  -8.907   4.277  0.00  0.00    +0.079 C 
ATOM      5  C   UNL     1       3.598  -9.079   2.829  0.00  0.00    +0.041 C 
ATOM      6  C   UNL     1       3.850 -10.564   2.551  0.00  0.00    +0.111 C 
ATOM      7  N   UNL     1       2.636 -11.321   2.888  0.00  0.00    -0.285 N 
ATOM      8  C   UNL     1       2.052 -11.158   4.226  0.00  0.00    +0.111 C 
ATOM      9  C   UNL     1       1.820  -9.666   4.486  0.00  0.00    +0.041 C 
ATOM     10  C   UNL     1       2.070 -12.147   1.987  0.00  0.00    +0.304 C 
ATOM     11  O   UNL     1       2.720 -12.556   1.044  0.00  0.00    -0.252 OA
ATOM     12  N   UNL     1       0.783 -12.521   2.131  0.00  0.00    -0.292 N 
ATOM     13  C   UNL     1       0.282 -13.707   1.432  0.00  0.00    +0.133 C 
ATOM     14  C   UNL     1      -0.115 -11.742   2.986  0.00  0.00    +0.133 C 
ENDBRANCH   3   4
BRANCH   1  15
ATOM     15  C   UNL     1       1.888  -5.296   4.047  0.00  0.00    +0.205 C 
BRANCH  15  16
ATOM     16  N   UNL     1       0.939  -4.751   3.073  0.00  0.00    -0.165 NA
BRANCH  16  17
ATOM     17  S   UNL     1      -0.652  -4.553   3.488  0.00  0.00    +0.062 S 
ATOM     18  O   UNL     1      -0.911  -5.463   4.548  0.00  0.00    -0.153 OA
ATOM     19  O   UNL     1      -1.393  -4.565   2.276  0.00  0.00    -0.153 OA
BRANCH  17  24
ATOM     20  C   UNL     1      -1.220   0.991   5.801  0.00  0.00    +0.044 C 
ATOM     21  C   UNL     1      -1.078  -0.394   5.223  0.00  0.00    -0.050 A 
ATOM     22  C   UNL     1      -1.244  -0.597   3.866  0.00  0.00    +0.005 A 
ATOM     23  C   UNL     1      -1.113  -1.867   3.336  0.00  0.00    +0.029 A 
ATOM     24  C   UNL     1      -0.817  -2.934   4.164  0.00  0.00    +0.106 A 
ATOM     25  C   UNL     1      -0.651  -2.731   5.521  0.00  0.00    +0.029 A 
ATOM     26  C   UNL     1      -0.777  -1.460   6.050  0.00  0.00    +0.005 A 
ENDBRANCH  17  24
ENDBRANCH  16  17
BRANCH  16  27
ATOM     27  C   UNL     1       1.397  -4.380   1.732  0.00  0.00    +0.080 C 
ATOM     28  C   UNL     1       2.823  -4.771   1.340  0.00  0.00    +0.022 C 
ATOM     29  C   UNL     1       2.482  -3.307   1.627  0.00  0.00    +0.022 C 
ENDBRANCH  16  27
ENDBRANCH  15  16
ENDBRANCH   1  15
BRANCH   3  30
ATOM     30  C   UNL     1       3.691  -6.824   5.614  0.00  0.00    +0.143 C 
BRANCH  30  31
ATOM     31  C   UNL     1       3.012  -7.046   6.941  0.00  0.00    -0.030 A 
ATOM     32  C   UNL     1       2.139  -6.095   7.438  0.00  0.00    +0.008 A 
ATOM     33  C   UNL     1       1.516  -6.297   8.654  0.00  0.00    +0.038 A 
ATOM     34  C   UNL     1       1.765  -7.452   9.376  0.00  0.00    +0.123 A 
ATOM     35  C   UNL     1       2.639  -8.404   8.877  0.00  0.00    +0.038 A 
ATOM     36  C   UNL     1       3.258  -8.202   7.658  0.00  0.00    +0.008 A 
ATOM     37  F   UNL     1       1.156  -7.651  10.565  0.00  0.00    -0.205 F 
ENDBRANCH  30  31
ENDBRANCH   3  30
TORSDOF 8
