REMARK  Name = ZINC05813498
REMARK  4 active torsions:
REMARK  status: ('A' for Active; 'I' for Inactive)
REMARK    1  A    between atoms: C_1  and  C_2
REMARK    2  A    between atoms: N_4  and  N_5
REMARK    3  A    between atoms: C_8  and  C_16
REMARK    4  A    between atoms: C_8  and  C_17
REMARK                            x       y       z     vdW  Elec       q    Type
REMARK                         _______ _______ _______ _____ _____    ______ ____
ROOT
ATOM      1  N   UNL     1       3.523   0.090  -1.392  0.00  0.00    -0.189 NA
ATOM      2  C   UNL     1       2.319   0.329  -1.028  0.00  0.00    +0.040 C 
ATOM      3  C   UNL     1       1.144   0.074  -1.950  0.00  0.00    +0.059 C 
ATOM      4  C   UNL     1       0.027  -0.688  -1.192  0.00  0.00    -0.027 C 
ATOM      5  C   UNL     1      -0.218  -0.039   0.177  0.00  0.00    -0.004 C 
ATOM      6  C   UNL     1      -0.368   1.484  -0.018  0.00  0.00    +0.005 C 
ATOM      7  C   UNL     1       1.040   2.086   0.139  0.00  0.00    +0.010 C 
ATOM      8  C   UNL     1       1.994   0.885   0.355  0.00  0.00    +0.035 C 
ATOM      9  C   UNL     1       1.077  -0.182   1.017  0.00  0.00    +0.013 C 
ATOM     10  C   UNL     1       0.507  -2.127  -0.994  0.00  0.00    +0.011 C 
ATOM     11  C   UNL     1      -1.277  -0.695  -1.992  0.00  0.00    +0.011 C 
ENDROOT
BRANCH   1  15
ATOM     12  C   UNL     1       5.332  -1.078  -4.483  0.00  0.00    +0.111 C 
ATOM     13  C   UNL     1       5.043  -0.658  -3.065  0.00  0.00    +0.229 C 
ATOM     14  O   UNL     1       5.934  -0.642  -2.243  0.00  0.00    -0.274 OA
ATOM     15  N   UNL     1       3.792  -0.301  -2.710  0.00  0.00    -0.207 N 
ATOM     16  H   UNL     1       3.079  -0.314  -3.367  0.00  0.00    +0.177 HD
ENDBRANCH   1  15
TORSDOF 1
