REMARK  Name = ZINC15053262
REMARK  4 active torsions:
REMARK  status: ('A' for Active; 'I' for Inactive)
REMARK    1  A    between atoms: C_1  and  C_2
REMARK    2  A    between atoms: C_7  and  N_8
REMARK    3  A    between atoms: C_12  and  C_13
REMARK    4  A    between atoms: C_18  and  O_19
REMARK                            x       y       z     vdW  Elec       q    Type
REMARK                         _______ _______ _______ _____ _____    ______ ____
ROOT
ATOM      1  N   UNL     1      -0.020  -0.350   2.594  0.00  0.00    -0.214 N 
ATOM      2  C   UNL     1      -1.156   0.081   3.118  0.00  0.00    +0.263 C 
ATOM      3  O   UNL     1      -2.230  -0.178   2.607  0.00  0.00    -0.269 OA
ATOM      4  C   UNL     1      -1.063   0.889   4.348  0.00  0.00    +0.079 C 
ATOM      5  C   UNL     1      -2.054   1.450   5.086  0.00  0.00    +0.032 C 
ATOM      6  S   UNL     1       0.705   0.929   4.608  0.00  0.00    -0.049 S 
ATOM      7  C   UNL     1       1.188  -0.049   3.195  0.00  0.00    +0.165 C 
ATOM      8  N   UNL     1       2.389  -0.393   2.819  0.00  0.00    -0.279 NA
ATOM      9  H   UNL     1       3.159  -0.111   3.338  0.00  0.00    +0.189 HD
ENDROOT
BRANCH   1  16
ATOM     10  C   UNL     1       0.124   0.995   0.090  0.00  0.00    +0.045 C 
ATOM     11  C   UNL     1       0.026  -0.506   0.183  0.00  0.00    -0.029 A 
ATOM     12  C   UNL     1       0.010  -1.271  -0.967  0.00  0.00    +0.005 A 
ATOM     13  C   UNL     1      -0.080  -2.648  -0.882  0.00  0.00    +0.000 A 
ATOM     14  C   UNL     1      -0.154  -3.264   0.354  0.00  0.00    +0.002 A 
ATOM     15  C   UNL     1      -0.139  -2.505   1.508  0.00  0.00    +0.024 A 
ATOM     16  C   UNL     1      -0.042  -1.122   1.426  0.00  0.00    +0.046 A 
ENDBRANCH   1  16
BRANCH   5  17
ATOM     17  C   UNL     1      -1.746   2.066   6.382  0.00  0.00    +0.019 A 
ATOM     18  C   UNL     1      -0.546   1.764   7.037  0.00  0.00    +0.026 A 
ATOM     19  C   UNL     1      -0.264   2.346   8.255  0.00  0.00    +0.019 A 
ATOM     20  C   UNL     1      -1.163   3.229   8.834  0.00  0.00    +0.019 A 
ATOM     21  C   UNL     1      -2.351   3.534   8.198  0.00  0.00    +0.047 A 
ATOM     22  C   UNL     1      -2.650   2.965   6.971  0.00  0.00    +0.124 A 
ATOM     23 BR   UNL     1       1.357   1.939   9.140  0.00  0.00    -0.050 Br
BRANCH  22  24
ATOM     24  O   UNL     1      -3.814   3.270   6.343  0.00  0.00    -0.506 OA
ATOM     25  H   UNL     1      -4.550   2.687   6.574  0.00  0.00    +0.292 HD
ENDBRANCH  22  24
ENDBRANCH   5  17
TORSDOF 3
