REMARK  Name = ZINC39636757
REMARK  5 active torsions:
REMARK  status: ('A' for Active; 'I' for Inactive)
REMARK    1  A    between atoms: C_3  and  C_11
REMARK    2  A    between atoms: C_5  and  C_7
REMARK    3  A    between atoms: C_11  and  N_12
REMARK    4  A    between atoms: C_13  and  C_15
REMARK    5  A    between atoms: C_26  and  C_28
REMARK                            x       y       z     vdW  Elec       q    Type
REMARK                         _______ _______ _______ _____ _____    ______ ____
ROOT
ATOM      1  C   UNL     1       5.397   3.872   2.643  0.00  0.00    +0.100 C 
ATOM      2  C   UNL     1       4.491   4.636   3.634  0.00  0.00    +0.121 C 
ATOM      3  N   UNL     1       5.431   5.405   4.484  0.00  0.00    -0.296 N 
ATOM      4  C   UNL     1       6.476   5.876   3.544  0.00  0.00    +0.115 C 
ATOM      5  C   UNL     1       6.698   4.689   2.586  0.00  0.00    -0.004 C 
ATOM      6  C   UNL     1       6.943   5.195   1.168  0.00  0.00    -0.010 C 
ATOM      7  C   UNL     1       8.271   5.956   1.123  0.00  0.00    -0.082 C 
ATOM      8  N   UNL     1       9.361   5.065   1.542  0.00  0.00    +0.379 N 
ATOM      9  C   UNL     1       9.166   4.657   2.938  0.00  0.00    -0.082 C 
ATOM     10  C   UNL     1       7.876   3.842   3.059  0.00  0.00    -0.010 C 
ATOM     11  C   UNL     1       5.353   5.625   5.811  0.00  0.00    +0.247 C 
ATOM     12  O   UNL     1       4.502   5.062   6.472  0.00  0.00    -0.270 OA
ATOM     13  H   UNL     1       9.370   4.247   0.952  0.00  0.00    -0.086 HD
ATOM     14  H   UNL     1      10.242   5.550   1.453  0.00  0.00    -0.086 HD
ENDROOT
BRANCH  11  15
ATOM     15  C   UNL     1       6.303   6.551   6.464  0.00  0.00    +0.042 A 
ATOM     16  C   UNL     1       6.979   7.509   5.707  0.00  0.00    +0.051 A 
ATOM     17  C   UNL     1       7.867   8.371   6.322  0.00  0.00    +0.127 A 
ATOM     18  C   UNL     1       8.085   8.287   7.688  0.00  0.00    +0.076 A 
ATOM     19  C   UNL     1       7.417   7.337   8.444  0.00  0.00    +0.127 A 
ATOM     20  C   UNL     1       6.523   6.473   7.840  0.00  0.00    +0.051 A 
ATOM     21  F   UNL     1       7.635   7.260   9.775  0.00  0.00    -0.205 F 
ATOM     22  F   UNL     1       8.522   9.299   5.591  0.00  0.00    -0.205 F 
ENDBRANCH  11  15
BRANCH   1  24
ATOM     23  N   UNL     1       4.995   2.768   0.466  0.00  0.00    -0.311 N 
ATOM     24  C   UNL     1       4.754   3.814   1.281  0.00  0.00    +0.218 C 
ATOM     25  O   UNL     1       4.018   4.708   0.920  0.00  0.00    -0.275 OA
ATOM     26  H   UNL     1       5.583   2.053   0.755  0.00  0.00    +0.149 HD
BRANCH  23  27
ATOM     27  C   UNL     1       4.370   2.712  -0.858  0.00  0.00    +0.139 C 
BRANCH  27  30
ATOM     28  C   UNL     1       4.455  -0.863  -2.068  0.00  0.00    +0.001 A 
ATOM     29  C   UNL     1       4.061   0.293  -1.420  0.00  0.00    +0.005 A 
ATOM     30  C   UNL     1       4.800   1.452  -1.564  0.00  0.00    -0.030 A 
ATOM     31  C   UNL     1       5.934   1.455  -2.355  0.00  0.00    +0.017 A 
ATOM     32  C   UNL     1       6.328   0.299  -3.002  0.00  0.00    +0.055 A 
ATOM     33  C   UNL     1       5.588  -0.860  -2.860  0.00  0.00    +0.012 A 
BRANCH  32  34
ATOM     34  C   UNL     1       7.563   0.303  -3.866  0.00  0.00    +0.417 C 
ATOM     35  F   UNL     1       8.677  -0.031  -3.088  0.00  0.00    -0.166 F 
ATOM     36  F   UNL     1       7.415  -0.632  -4.895  0.00  0.00    -0.166 F 
ATOM     37  F   UNL     1       7.744   1.577  -4.415  0.00  0.00    -0.166 F 
ENDBRANCH  32  34
ENDBRANCH  27  30
ENDBRANCH  23  27
ENDBRANCH   1  24
TORSDOF 5
