REMARK  Name = ZINC65305966
REMARK  12 active torsions:
REMARK  status: ('A' for Active; 'I' for Inactive)
REMARK    1  A    between atoms: C_1  and  C_2
REMARK    2  A    between atoms: C_2  and  C_3
REMARK    3  A    between atoms: C_3  and  C_5
REMARK    4  A    between atoms: C_3  and  C_6
REMARK    5  A    between atoms: C_6  and  C_8
REMARK    6  A    between atoms: C_6  and  N_20
REMARK    7  A    between atoms: N_10  and  C_11
REMARK    8  A    between atoms: C_21  and  C_23
REMARK    9  A    between atoms: C_25  and  O_31
REMARK   10  A    between atoms: C_27  and  O_29
REMARK   11  A    between atoms: O_29  and  C_30
REMARK   12  A    between atoms: O_31  and  C_32
REMARK                            x       y       z     vdW  Elec       q    Type
REMARK                         _______ _______ _______ _____ _____    ______ ____
ROOT
ATOM      1  C   UNL     1       2.034   0.040  -1.232  0.00  0.00    +0.162 C 
ENDROOT
BRANCH   1   2
ATOM      2  C   UNL     1       2.021   1.527  -0.993  0.00  0.00    +0.236 C 
ATOM      3  O   UNL     1       2.554   2.274  -1.786  0.00  0.00    -0.274 OA
ATOM      4  N   UNL     1       1.417   2.028   0.103  0.00  0.00    -0.277 N 
ATOM      5  H   UNL     1       1.055   1.428   0.774  0.00  0.00    +0.152 HD
BRANCH   4   6
ATOM      6  C   UNL     1       1.307   3.478   0.281  0.00  0.00    +0.269 C 
ATOM      7  N   UNL     1       2.589   4.028   0.742  0.00  0.00    -0.348 N 
ATOM      8  C   UNL     1       2.382   4.581   1.902  0.00  0.00    +0.061 A 
ATOM      9  C   UNL     1       3.263   5.284   2.845  0.00  0.00    +0.027 A 
ATOM     10  C   UNL     1       2.756   5.761   3.999  0.00  0.00    +0.002 A 
ATOM     11  C   UNL     1       1.401   5.615   4.350  0.00  0.00    +0.002 A 
ATOM     12  C   UNL     1       0.509   4.987   3.558  0.00  0.00    +0.027 A 
ATOM     13  C   UNL     1       0.949   4.427   2.273  0.00  0.00    +0.061 A 
ATOM     14  N   UNL     1       0.325   3.785   1.328  0.00  0.00    -0.348 N 
ATOM     15  H   UNL     1       3.434   3.986   0.268  0.00  0.00    +0.163 HD
ATOM     16  H   UNL     1      -0.617   3.551   1.317  0.00  0.00    +0.163 HD
ENDBRANCH   4   6
ENDBRANCH   1   2
BRANCH   1  17
ATOM     17  N   UNL     1       3.128  -0.299  -2.145  0.00  0.00    -0.300 N 
ATOM     18  C   UNL     1       3.665  -1.535  -2.126  0.00  0.00    +0.245 C 
ATOM     19  O   UNL     1       3.240  -2.369  -1.351  0.00  0.00    -0.270 OA
ATOM     20  H   UNL     1       3.467   0.367  -2.764  0.00  0.00    +0.150 HD
BRANCH  18  21
ATOM     21  C   UNL     1       4.770  -1.876  -3.047  0.00  0.00    +0.044 A 
ATOM     22  C   UNL     1       5.263  -0.918  -3.934  0.00  0.00    +0.059 A 
ATOM     23  C   UNL     1       6.298  -1.242  -4.795  0.00  0.00    +0.124 A 
ATOM     24  C   UNL     1       6.845  -2.517  -4.777  0.00  0.00    +0.091 A 
ATOM     25  C   UNL     1       6.357  -3.473  -3.897  0.00  0.00    +0.124 A 
ATOM     26  C   UNL     1       5.326  -3.156  -3.029  0.00  0.00    +0.059 A 
BRANCH  25  27
ATOM     27  O   UNL     1       6.896  -4.720  -3.884  0.00  0.00    -0.495 OA
ATOM     28  C   UNL     1       7.961  -4.977  -4.802  0.00  0.00    +0.277 C 
ENDBRANCH  25  27
BRANCH  23  29
ATOM     29  O   UNL     1       6.779  -0.310  -5.659  0.00  0.00    -0.495 OA
ATOM     30  C   UNL     1       7.848  -0.712  -6.518  0.00  0.00    +0.277 C 
ENDBRANCH  23  29
ENDBRANCH  18  21
ENDBRANCH   1  17
BRANCH   1  31
ATOM     31  C   UNL     1       0.702  -0.388  -1.853  0.00  0.00    +0.015 C 
ATOM     32  C   UNL     1       0.570   0.223  -3.249  0.00  0.00    +0.010 C 
BRANCH  31  34
ATOM     33  C   UNL     1       0.615  -2.520  -0.552  0.00  0.00    +0.004 C 
ATOM     34  C   UNL     1       0.655  -1.914  -1.957  0.00  0.00    +0.002 C 
ENDBRANCH  31  34
ENDBRANCH   1  31
TORSDOF 8
