REMARK  Name = ZINC59432165
REMARK  4 active torsions:
REMARK  status: ('A' for Active; 'I' for Inactive)
REMARK    1  A    between atoms: C_1  and  C_2
REMARK    2  A    between atoms: C_5  and  N_9
REMARK    3  A    between atoms: C_6  and  C_8
REMARK    4  A    between atoms: C_10  and  C_12
REMARK                            x       y       z     vdW  Elec       q    Type
REMARK                         _______ _______ _______ _____ _____    ______ ____
ROOT
ATOM      1  N   UNL     1       0.057  -4.169  -0.021  0.00  0.00    -0.281 N 
ATOM      2  C   UNL     1      -0.042  -4.838  -1.187  0.00  0.00    +0.255 C 
ATOM      3  O   UNL     1      -0.055  -4.227  -2.240  0.00  0.00    -0.269 OA
ATOM      4  H   UNL     1       0.134  -4.657   0.814  0.00  0.00    +0.155 HD
ENDROOT
BRANCH   2   5
ATOM      5  C   UNL     1      -0.133  -6.301  -1.187  0.00  0.00    +0.077 A 
ATOM      6  C   UNL     1      -0.233  -7.147  -2.252  0.00  0.00    +0.036 A 
ATOM      7  C   UNL     1      -0.309  -8.526  -2.040  0.00  0.00    +0.073 A 
ATOM      8  C   UNL     1      -0.422  -9.621  -3.030  0.00  0.00    +0.260 A 
ATOM      9  O   UNL     1      -0.459  -9.382  -4.224  0.00  0.00    -0.267 OA
ATOM     10  N   UNL     1      -0.481 -10.888  -2.577  0.00  0.00    -0.313 N 
ATOM     11  H   UNL     1      -0.555 -11.617  -3.213  0.00  0.00    +0.170 HD
ATOM     12  C   UNL     1      -0.440 -11.166  -1.250  0.00  0.00    +0.200 A 
ATOM     13  N   UNL     1      -0.341 -10.225  -0.351  0.00  0.00    -0.230 NA
ATOM     14  C   UNL     1      -0.276  -8.943  -0.690  0.00  0.00    +0.116 A 
ATOM     15  S   UNL     1      -0.134  -7.417   0.206  0.00  0.00    -0.064 S 
ENDBRANCH   2   5
BRANCH   1  20
ATOM     16  C   UNL     1       0.024   1.503   0.005  0.00  0.00    +0.044 C 
ATOM     17  C   UNL     1       0.033  -0.004  -0.002  0.00  0.00    -0.050 A 
ATOM     18  C   UNL     1       0.631  -0.685  -1.046  0.00  0.00    +0.005 A 
ATOM     19  C   UNL     1       0.641  -2.066  -1.055  0.00  0.00    +0.024 A 
ATOM     20  C   UNL     1       0.050  -2.771  -0.014  0.00  0.00    +0.037 A 
ATOM     21  C   UNL     1      -0.550  -2.083   1.033  0.00  0.00    -0.029 A 
ATOM     22  C   UNL     1      -0.551  -0.702   1.039  0.00  0.00    +0.008 A 
ATOM     23  C   UNL     1      -1.193  -2.843   2.164  0.00  0.00    +0.045 C 
ENDBRANCH   1  20
TORSDOF 2
