REMARK  Name = ZINC13813763
REMARK  6 active torsions:
REMARK  status: ('A' for Active; 'I' for Inactive)
REMARK    1  A    between atoms: C_9  and  C_12
REMARK    2  A    between atoms: C_12  and  N_61
REMARK    3  A    between atoms: C_15  and  C_18
REMARK    4  A    between atoms: C_18  and  C_19
REMARK    5  A    between atoms: C_19  and  N_20
REMARK    6  A    between atoms: N_23  and  C_26
REMARK                            x       y       z     vdW  Elec       q    Type
REMARK                         _______ _______ _______ _____ _____    ______ ____
ROOT
ATOM      1  C   UNL     1       5.787  -1.789  -2.180  0.00  0.00    -0.078 C 
ATOM      2  C   UNL     1       5.657  -3.148  -2.871  0.00  0.00    -0.015 C 
ATOM      3  C   UNL     1       6.936  -3.957  -2.641  0.00  0.00    -0.013 C 
ATOM      4  C   UNL     1       7.170  -4.110  -1.136  0.00  0.00    -0.015 C 
ATOM      5  C   UNL     1       7.257  -2.723  -0.495  0.00  0.00    -0.078 C 
ATOM      6  N   UNL     1       5.986  -2.005  -0.731  0.00  0.00    +0.382 N 
ATOM      7  H   UNL     1       5.211  -2.572  -0.369  0.00  0.00    -0.082 HD
ENDROOT
BRANCH   6   8
ATOM      8  C   UNL     1       6.001  -0.707  -0.025  0.00  0.00    -0.030 C 
BRANCH   8  17
ATOM      9  C   UNL     1      -0.047   1.285   0.084  0.00  0.00    +0.004 A 
ATOM     10  C   UNL     1      -0.008  -0.097   0.050  0.00  0.00    +0.004 A 
ATOM     11  C   UNL     1       1.207  -0.755   0.017  0.00  0.00    +0.049 A 
ATOM     12  C   UNL     1       2.390  -0.031   0.017  0.00  0.00    +0.162 A 
ATOM     13  C   UNL     1       2.350   1.358   0.048  0.00  0.00    +0.162 A 
ATOM     14  C   UNL     1       1.127   2.012   0.082  0.00  0.00    +0.049 A 
ATOM     15  O   UNL     1       3.498   2.088   0.043  0.00  0.00    -0.485 OA
ATOM     16  C   UNL     1       4.703   1.395   0.390  0.00  0.00    +0.271 C 
ATOM     17  C   UNL     1       4.732   0.069  -0.382  0.00  0.00    +0.194 C 
ATOM     18  O   UNL     1       3.579  -0.693  -0.009  0.00  0.00    -0.484 OA
ENDBRANCH   8  17
ENDBRANCH   6   8
BRANCH   3  19
ATOM     19  C   UNL     1       6.788  -5.340  -3.279  0.00  0.00    +0.022 C 
BRANCH  19  20
ATOM     20  C   UNL     1       6.678  -5.193  -4.798  0.00  0.00    +0.109 C 
BRANCH  20  21
ATOM     21  N   UNL     1       6.537  -6.517  -5.408  0.00  0.00    -0.284 N 
ATOM     22  C   UNL     1       5.262  -7.203  -5.669  0.00  0.00    +0.128 C 
ATOM     23  C   UNL     1       5.686  -8.539  -6.310  0.00  0.00    +0.134 C 
ATOM     24  N   UNL     1       7.154  -8.464  -6.342  0.00  0.00    -0.254 N 
ATOM     25  C   UNL     1       7.547  -7.293  -5.822  0.00  0.00    +0.309 C 
ATOM     26  O   UNL     1       8.714  -6.967  -5.730  0.00  0.00    -0.252 OA
BRANCH  24  27
ATOM     27  C   UNL     1       8.004  -9.452  -6.841  0.00  0.00    +0.041 A 
ATOM     28  C   UNL     1       7.491 -10.638  -7.364  0.00  0.00    +0.043 A 
ATOM     29  C   UNL     1       8.364 -11.589  -7.851  0.00  0.00    +0.112 A 
ATOM     30  N   UNL     1       9.668 -11.389  -7.818  0.00  0.00    -0.263 NA
ATOM     31  C   UNL     1      10.192 -10.282  -7.327  0.00  0.00    +0.112 A 
ATOM     32  C   UNL     1       9.387  -9.281  -6.825  0.00  0.00    +0.043 A 
ENDBRANCH  24  27
ENDBRANCH  20  21
ENDBRANCH  19  20
ENDBRANCH   3  19
TORSDOF 6
