REMARK  Name = ZINC11635255
REMARK  6 active torsions:
REMARK  status: ('A' for Active; 'I' for Inactive)
REMARK    1  A    between atoms: C_1  and  C_2
REMARK    2  A    between atoms: C_7  and  S_8
REMARK    3  A    between atoms: S_8  and  N_11
REMARK    4  A    between atoms: N_11  and  C_12
REMARK    5  A    between atoms: C_16  and  C_18
REMARK    6  A    between atoms: C_18  and  C_20
REMARK                            x       y       z     vdW  Elec       q    Type
REMARK                         _______ _______ _______ _____ _____    ______ ____
ROOT
ATOM      1  S   UNL     1       0.040  -0.026  -2.708  0.00  0.00    +0.073 S 
ATOM      2  O   UNL     1       1.236   0.737  -2.790  0.00  0.00    -0.150 OA
ATOM      3  O   UNL     1      -0.227  -1.119  -3.575  0.00  0.00    -0.150 OA
ENDROOT
BRANCH   1  10
ATOM      4  C   UNL     1      -2.259  -1.668  -1.641  0.00  0.00    +0.046 C 
ATOM      5  C   UNL     1      -1.142  -1.399  -0.666  0.00  0.00    -0.022 A 
ATOM      6  C   UNL     1      -1.214  -1.901   0.619  0.00  0.00    +0.033 A 
ATOM      7  C   UNL     1      -0.186  -1.654   1.515  0.00  0.00    +0.067 A 
ATOM      8  C   UNL     1       0.918  -0.898   1.116  0.00  0.00    +0.069 A 
ATOM      9  C   UNL     1       0.982  -0.399  -0.176  0.00  0.00    +0.057 A 
ATOM     10  C   UNL     1      -0.045  -0.655  -1.064  0.00  0.00    +0.113 A 
ATOM     11  N   UNL     1       1.771  -0.821   2.214  0.00  0.00    -0.306 N 
ATOM     12  H   UNL     1       2.623  -0.358   2.240  0.00  0.00    +0.170 HD
ATOM     13  C   UNL     1       1.211  -1.497   3.235  0.00  0.00    +0.325 A 
ATOM     14  O   UNL     1       1.698  -1.624   4.343  0.00  0.00    -0.247 OA
ATOM     15  N   UNL     1       0.029  -2.011   2.844  0.00  0.00    -0.306 N 
ATOM     16  H   UNL     1      -0.569  -2.540   3.394  0.00  0.00    +0.170 HD
ENDBRANCH   1  10
BRANCH   1  17
ATOM     17  N   UNL     1      -1.214   1.040  -2.889  0.00  0.00    -0.216 N 
ATOM     18  H   UNL     1      -1.903   0.870  -3.550  0.00  0.00    +0.174 HD
BRANCH  17  19
ATOM     19  C   UNL     1      -1.280   2.184  -2.090  0.00  0.00    +0.049 A 
ATOM     20  C   UNL     1      -0.144   2.962  -1.895  0.00  0.00    +0.024 A 
ATOM     21  C   UNL     1      -0.202   4.095  -1.106  0.00  0.00    +0.003 A 
ATOM     22  C   UNL     1      -1.388   4.464  -0.506  0.00  0.00    +0.011 A 
ATOM     23  C   UNL     1      -2.537   3.689  -0.695  0.00  0.00    +0.019 A 
ATOM     24  C   UNL     1      -2.478   2.547  -1.497  0.00  0.00    +0.035 A 
BRANCH  23  25
ATOM     25  C   UNL     1      -3.805   4.080  -0.056  0.00  0.00    +0.160 C 
ATOM     26  O   UNL     1      -4.799   3.407  -0.222  0.00  0.00    -0.292 OA
ATOM     27  C   UNL     1      -3.866   5.316   0.803  0.00  0.00    +0.091 C 
ENDBRANCH  23  25
ENDBRANCH  17  19
ENDBRANCH   1  17
TORSDOF 4
