REMARK  Name = ZINC07114619
REMARK  7 active torsions:
REMARK  status: ('A' for Active; 'I' for Inactive)
REMARK    1  A    between atoms: C_1  and  C_2
REMARK    2  A    between atoms: N_10  and  N_14
REMARK    3  A    between atoms: C_15  and  C_17
REMARK    4  A    between atoms: C_17  and  N_62
REMARK    5  A    between atoms: N_20  and  C_23
REMARK    6  A    between atoms: C_28  and  O_29
REMARK    7  A    between atoms: O_29  and  C_30
REMARK                            x       y       z     vdW  Elec       q    Type
REMARK                         _______ _______ _______ _____ _____    ______ ____
ROOT
ATOM      1  N   UNL     1       4.574   4.217   1.589  0.00  0.00    -0.225 N 
ATOM      2  C   UNL     1       3.437   3.501   1.490  0.00  0.00    +0.213 C 
ATOM      3  O   UNL     1       2.362   4.051   1.604  0.00  0.00    -0.276 OA
ATOM      4  H   UNL     1       5.434   3.777   1.498  0.00  0.00    +0.173 HD
ENDROOT
BRANCH   1  14
ATOM      5  C   UNL     1       4.400  11.926   3.468  0.00  0.00    +0.007 C 
ATOM      6  C   UNL     1       4.603  10.429   3.714  0.00  0.00    -0.014 C 
ATOM      7  C   UNL     1       3.293   9.686   3.443  0.00  0.00    +0.006 C 
ATOM      8  C   UNL     1       3.494   8.191   3.700  0.00  0.00    +0.035 C 
ATOM      9  C   UNL     1       4.597   7.659   2.792  0.00  0.00    +0.114 C 
ATOM     10  C   UNL     1       5.903   8.408   3.033  0.00  0.00    +0.035 C 
ATOM     11  C   UNL     1       5.693   9.902   2.778  0.00  0.00    +0.006 C 
ATOM     12  C   UNL     1       4.791   6.176   3.011  0.00  0.00    +0.263 C 
ATOM     13  O   UNL     1       5.126   5.624   4.037  0.00  0.00    -0.271 OA
ATOM     14  N   UNL     1       4.514   5.597   1.825  0.00  0.00    -0.137 N 
ATOM     15  C   UNL     1       4.182   6.504   0.899  0.00  0.00    +0.326 C 
ATOM     16  O   UNL     1       3.895   6.225  -0.249  0.00  0.00    -0.251 OA
ATOM     17  N   UNL     1       4.197   7.761   1.382  0.00  0.00    -0.284 N 
ATOM     18  H   UNL     1       3.989   8.574   0.895  0.00  0.00    +0.151 HD
ENDBRANCH   1  14
BRANCH   2  19
ATOM     19  C   UNL     1       3.501   2.017   1.237  0.00  0.00    +0.020 C 
BRANCH  19  25
ATOM     20  C   UNL     1       1.419   1.992  -0.001  0.00  0.00    -0.059 C 
ATOM     21  C   UNL     1      -0.018   1.465   0.010  0.00  0.00    +0.086 C 
ATOM     22  N   UNL     1       0.002  -0.004   0.002  0.00  0.00    -0.331 N 
ATOM     23  C   UNL     1       0.721  -0.525   1.173  0.00  0.00    +0.086 C 
ATOM     24  C   UNL     1       2.158   0.003   1.162  0.00  0.00    -0.059 C 
ATOM     25  N   UNL     1       2.123   1.480   1.193  0.00  0.00    +0.387 N 
ATOM     26  H   UNL     1       1.620   1.785   2.034  0.00  0.00    -0.081 HD
BRANCH  22  27
ATOM     27  C   UNL     1      -1.296  -0.523  -0.061  0.00  0.00    +0.072 A 
ATOM     28  C   UNL     1      -2.210  -0.234   0.942  0.00  0.00    +0.027 A 
ATOM     29  C   UNL     1      -3.493  -0.744   0.875  0.00  0.00    +0.002 A 
ATOM     30  C   UNL     1      -3.866  -1.550  -0.185  0.00  0.00    +0.004 A 
ATOM     31  C   UNL     1      -2.959  -1.846  -1.186  0.00  0.00    +0.047 A 
ATOM     32  C   UNL     1      -1.673  -1.335  -1.128  0.00  0.00    +0.141 A 
BRANCH  32  33
ATOM     33  O   UNL     1      -0.779  -1.627  -2.112  0.00  0.00    -0.493 OA
ATOM     34  C   UNL     1      -1.235  -2.465  -3.175  0.00  0.00    +0.277 C 
ENDBRANCH  32  33
ENDBRANCH  22  27
ENDBRANCH  19  25
ENDBRANCH   2  19
TORSDOF 5
