REMARK  Name = ZINC09045685
REMARK  13 active torsions:
REMARK  status: ('A' for Active; 'I' for Inactive)
REMARK    1  A    between atoms: C_1  and  C_2
REMARK    2  A    between atoms: C_2  and  C_3
REMARK    3  A    between atoms: C_3  and  N_61
REMARK    4  A    between atoms: C_10  and  C_22
REMARK    5  A    between atoms: C_12  and  C_18
REMARK    6  A    between atoms: C_12  and  C_20
REMARK    7  A    between atoms: C_14  and  C_15
REMARK    8  A    between atoms: C_25  and  O_30
REMARK    9  A    between atoms: C_26  and  O_28
REMARK   10  A    between atoms: O_28  and  C_29
REMARK   11  A    between atoms: O_30  and  C_31
REMARK   12  A    between atoms: C_31  and  C_32
REMARK   13  A    between atoms: C_31  and  C_33
REMARK                            x       y       z     vdW  Elec       q    Type
REMARK                         _______ _______ _______ _____ _____    ______ ____
ROOT
ATOM      1  C   UNL     1       2.518   2.943  -3.692  0.00  0.00    -0.051 C 
ATOM      2  C   UNL     1       3.387   3.151  -2.477  0.00  0.00    -0.044 C 
ATOM      3  C   UNL     1       2.870   3.661  -1.389  0.00  0.00    -0.051 C 
ATOM      4  C   UNL     1       1.452   4.144  -1.281  0.00  0.00    +0.010 C 
ATOM      5  C   UNL     1       0.611   3.795  -2.488  0.00  0.00    -0.070 C 
ATOM      6  C   UNL     1       0.855   3.583   0.011  0.00  0.00    +0.064 C 
ATOM      7  C   UNL     1       1.635   4.142   1.202  0.00  0.00    +0.188 C 
ATOM      8  C   UNL     1       3.113   3.957   1.034  0.00  0.00    +0.065 C 
ATOM      9  C   UNL     1       3.709   3.744  -0.167  0.00  0.00    +0.163 C 
ATOM     10  N   UNL     1       3.902   4.006   2.148  0.00  0.00    -0.304 NA
ATOM     11  H   UNL     1       4.862   3.890   2.068  0.00  0.00    +0.186 HD
ATOM     12  N   UNL     1       1.156   2.631  -3.204  0.00  0.00    +0.382 N 
ATOM     13  H   UNL     1       1.205   1.833  -2.560  0.00  0.00    -0.081 HD
ENDROOT
BRANCH   6  14
ATOM     14  C   UNL     1       0.957   2.080   0.002  0.00  0.00    -0.037 A 
ATOM     15  C   UNL     1       2.031   1.457   0.610  0.00  0.00    +0.008 A 
ATOM     16  C   UNL     1       2.129   0.078   0.605  0.00  0.00    +0.050 A 
ATOM     17  C   UNL     1       1.148  -0.683  -0.011  0.00  0.00    +0.162 A 
ATOM     18  C   UNL     1       0.067  -0.057  -0.622  0.00  0.00    +0.162 A 
ATOM     19  C   UNL     1      -0.025   1.326  -0.613  0.00  0.00    +0.053 A 
BRANCH  18  20
ATOM     20  O   UNL     1      -0.898  -0.800  -1.228  0.00  0.00    -0.491 OA
ATOM     21  C   UNL     1      -1.979  -0.089  -1.835  0.00  0.00    +0.277 C 
ENDBRANCH  18  20
BRANCH  17  22
ATOM     22  O   UNL     1       1.243  -2.040  -0.017  0.00  0.00    -0.486 OA
BRANCH  22  23
ATOM     23  C   UNL     1       2.445  -2.609   0.506  0.00  0.00    +0.167 C 
ATOM     24  C   UNL     1       2.248  -2.945   1.986  0.00  0.00    +0.051 C 
ATOM     25  C   UNL     1       2.784  -3.885  -0.266  0.00  0.00    +0.051 C 
ENDBRANCH  22  23
ENDBRANCH  17  22
ENDBRANCH   6  14
BRANCH   9  26
ATOM     26  C   UNL     1       5.131   3.600  -0.254  0.00  0.00    +0.076 C 
ATOM     27  N   UNL     1       6.259   3.485  -0.323  0.00  0.00    -0.196 NA
ENDBRANCH   9  26
BRANCH   7  28
ATOM     28  C   UNL     1       1.343   5.579   1.335  0.00  0.00    +0.091 C 
ATOM     29  N   UNL     1       1.118   6.688   1.438  0.00  0.00    -0.195 NA
ENDBRANCH   7  28
BRANCH   7  30
ATOM     30  C   UNL     1       1.201   3.451   2.427  0.00  0.00    +0.091 C 
ATOM     31  N   UNL     1       0.866   2.917   3.372  0.00  0.00    -0.195 NA
ENDBRANCH   7  30
BRANCH  12  32
ATOM     32  C   UNL     1       0.278   2.278  -4.342  0.00  0.00    -0.079 C 
BRANCH  32  34
ATOM     33  C   UNL     1      -0.176   0.555  -6.093  0.00  0.00    +0.002 C 
ATOM     34  C   UNL     1       0.735   0.940  -4.926  0.00  0.00    -0.022 C 
ENDBRANCH  32  34
ENDBRANCH  12  32
TORSDOF 9
