REMARK  Name = ZINC35897633
REMARK  5 active torsions:
REMARK  status: ('A' for Active; 'I' for Inactive)
REMARK    1  A    between atoms: C_4  and  N_6
REMARK    2  A    between atoms: C_7  and  C_9
REMARK    3  A    between atoms: C_13  and  N_14
REMARK    4  A    between atoms: C_15  and  C_17
REMARK    5  A    between atoms: C_25  and  C_27
REMARK                            x       y       z     vdW  Elec       q    Type
REMARK                         _______ _______ _______ _____ _____    ______ ____
ROOT
ATOM      1  C   UNL     1       0.754  -3.332  -2.976  0.00  0.00    +0.069 A 
ATOM      2  C   UNL     1       1.871  -3.909  -3.722  0.00  0.00    -0.023 A 
ATOM      3  C   UNL     1       1.502  -4.608  -4.810  0.00  0.00    -0.004 A 
ATOM      4  S   UNL     1      -0.270  -4.501  -4.830  0.00  0.00    -0.077 S 
ATOM      5  C   UNL     1      -0.520  -3.572  -3.457  0.00  0.00    +0.084 A 
ATOM      6  C   UNL     1       2.688  -5.175  -5.542  0.00  0.00    +0.043 C 
ATOM      7  C   UNL     1       3.896  -4.376  -5.004  0.00  0.00    +0.010 C 
ATOM      8  C   UNL     1       3.394  -3.945  -3.611  0.00  0.00    +0.037 C 
ENDROOT
BRANCH   1  10
ATOM      9  N   UNL     1       1.138  -1.203  -1.854  0.00  0.00    -0.308 N 
ATOM     10  C   UNL     1       0.975  -2.537  -1.764  0.00  0.00    +0.247 C 
ATOM     11  O   UNL     1       1.010  -3.083  -0.676  0.00  0.00    -0.270 OA
ATOM     12  H   UNL     1       1.110  -0.768  -2.720  0.00  0.00    +0.149 HD
BRANCH   9  16
ATOM     13  C   UNL     1      -0.010   1.559  -0.041  0.00  0.00    +0.002 C 
ATOM     14  C   UNL     1       1.487   1.957  -0.060  0.00  0.00    +0.002 C 
ATOM     15  C   UNL     1       2.113   0.891  -0.993  0.00  0.00    +0.022 C 
ATOM     16  C   UNL     1       1.359  -0.408  -0.643  0.00  0.00    +0.073 C 
ATOM     17  C   UNL     1       0.009   0.016  -0.037  0.00  0.00    +0.022 C 
ENDBRANCH   9  16
ENDBRANCH   1  10
BRANCH   5  18
ATOM     18  N   UNL     1      -1.727  -3.143  -2.926  0.00  0.00    -0.279 N 
ATOM     19  C   UNL     1      -2.885  -3.473  -3.531  0.00  0.00    +0.224 C 
ATOM     20  O   UNL     1      -2.868  -4.064  -4.590  0.00  0.00    -0.275 OA
ATOM     21  H   UNL     1      -1.738  -2.604  -2.119  0.00  0.00    +0.155 HD
BRANCH  19  22
ATOM     22  C   UNL     1      -4.200  -3.108  -2.893  0.00  0.00    +0.120 C 
ATOM     23  C   UNL     1      -5.313  -4.117  -3.304  0.00  0.00    +0.131 C 
ATOM     24  C   UNL     1      -6.513  -3.816  -2.357  0.00  0.00    +0.035 C 
ATOM     25  C   UNL     1      -7.052  -2.470  -2.904  0.00  0.00    +0.035 C 
ATOM     26  C   UNL     1      -6.092  -2.172  -4.095  0.00  0.00    +0.133 C 
ATOM     27  C   UNL     1      -4.727  -1.762  -3.452  0.00  0.00    +0.145 C 
ATOM     28  O   UNL     1      -5.772  -3.537  -4.569  0.00  0.00    -0.372 OA
BRANCH  27  29
ATOM     29  C   UNL     1      -3.776  -1.200  -4.477  0.00  0.00    +0.362 C 
ATOM     30  O   UNL     1      -3.845  -1.565  -5.638  0.00  0.00    -0.246 OA
ATOM     31  O   UNL     1      -2.936  -0.381  -4.145  0.00  0.00    -0.246 OA
ENDBRANCH  27  29
ENDBRANCH  19  22
ENDBRANCH   5  18
TORSDOF 5
