REMARK  Name = ZINC63541025
REMARK  9 active torsions:
REMARK  status: ('A' for Active; 'I' for Inactive)
REMARK    1  A    between atoms: C_1  and  C_2
REMARK    2  A    between atoms: C_3  and  C_8
REMARK    3  A    between atoms: N_6  and  C_7
REMARK    4  A    between atoms: N_9  and  N_10
REMARK    5  A    between atoms: C_11  and  C_13
REMARK    6  A    between atoms: C_13  and  C_30
REMARK    7  A    between atoms: C_16  and  C_21
REMARK    8  A    between atoms: C_18  and  C_19
REMARK    9  A    between atoms: C_18  and  C_20
REMARK                            x       y       z     vdW  Elec       q    Type
REMARK                         _______ _______ _______ _____ _____    ______ ____
ROOT
ATOM      1  C   UNL     1      -0.171   3.189  -5.821  0.00  0.00    +0.051 C 
ATOM      2  C   UNL     1       1.063   2.711  -6.613  0.00  0.00    +0.017 C 
ATOM      3  C   UNL     1       1.438   3.924  -7.500  0.00  0.00    +0.009 C 
ATOM      4  C   UNL     1       1.166   5.129  -6.566  0.00  0.00    +0.038 C 
ATOM      5  C   UNL     1      -0.106   4.726  -5.790  0.00  0.00    -0.015 C 
ATOM      6  C   UNL     1      -1.343   5.317  -6.470  0.00  0.00    +0.012 C 
ATOM      7  C   UNL     1      -0.016   5.219  -4.344  0.00  0.00    +0.012 C 
ATOM      8  C   UNL     1      -1.454   2.733  -6.520  0.00  0.00    +0.021 C 
ENDROOT
BRANCH   4   9
ATOM      9  C   UNL     1       0.919   6.397  -7.385  0.00  0.00    +0.178 C 
ATOM     10  N   UNL     1       2.131   6.760  -8.129  0.00  0.00    -0.363 N 
ATOM     11  C   UNL     1       2.498   7.942  -7.725  0.00  0.00    +0.060 A 
ATOM     12  C   UNL     1       3.617   8.820  -8.093  0.00  0.00    +0.027 A 
ATOM     13  C   UNL     1       3.747  10.019  -7.490  0.00  0.00    +0.002 A 
ATOM     14  C   UNL     1       2.849  10.476  -6.510  0.00  0.00    +0.002 A 
ATOM     15  C   UNL     1       1.790   9.750  -6.099  0.00  0.00    +0.027 A 
ATOM     16  C   UNL     1       1.547   8.426  -6.688  0.00  0.00    +0.060 A 
ATOM     17  N   UNL     1       0.628   7.525  -6.491  0.00  0.00    -0.363 N 
ATOM     18  H   UNL     1       2.576   6.219  -8.800  0.00  0.00    +0.162 HD
ATOM     19  H   UNL     1      -0.113   7.588  -5.868  0.00  0.00    +0.162 HD
ENDBRANCH   4   9
BRANCH   1  21
ATOM     20  N   UNL     1       0.993   2.772  -3.679  0.00  0.00    -0.207 N 
ATOM     21  C   UNL     1      -0.127   2.643  -4.417  0.00  0.00    +0.239 C 
ATOM     22  O   UNL     1      -1.099   2.087  -3.951  0.00  0.00    -0.273 OA
ATOM     23  H   UNL     1       1.794   3.151  -4.074  0.00  0.00    +0.177 HD
BRANCH  20  25
ATOM     24  C   UNL     1       2.080   2.484  -1.629  0.00  0.00    +0.141 C 
ATOM     25  N   UNL     1       1.001   2.359  -2.340  0.00  0.00    -0.188 NA
BRANCH  24  28
ATOM     26  C   UNL     1      -0.347   1.224  -0.073  0.00  0.00    +0.066 C 
ATOM     27  C   UNL     1       1.032   1.496   0.472  0.00  0.00    +0.044 A 
ATOM     28  C   UNL     1       2.088   2.049  -0.219  0.00  0.00    +0.035 A 
ATOM     29  C   UNL     1       3.180   2.121   0.672  0.00  0.00    +0.144 A 
ATOM     30  N   UNL     1       2.796   1.641   1.824  0.00  0.00    -0.179 NA
ATOM     31  N   UNL     1       1.457   1.248   1.726  0.00  0.00    -0.271 N 
ATOM     32  C   UNL     1       0.654   0.664   2.804  0.00  0.00    +0.172 C 
ENDBRANCH  24  28
ENDBRANCH  20  25
ENDBRANCH   1  21
TORSDOF 4
