REMARK  Name = ZINC44167315
REMARK  6 active torsions:
REMARK  status: ('A' for Active; 'I' for Inactive)
REMARK    1  A    between atoms: C_4  and  C_7
REMARK    2  A    between atoms: C_16  and  O_33
REMARK    3  A    between atoms: C_18  and  O_24
REMARK    4  A    between atoms: C_20  and  O_23
REMARK    5  A    between atoms: O_24  and  C_25
REMARK    6  A    between atoms: C_25  and  C_27
REMARK                            x       y       z     vdW  Elec       q    Type
REMARK                         _______ _______ _______ _____ _____    ______ ____
ROOT
ATOM      1  C   UNL     1       3.711  -0.707  -0.038  0.00  0.00    +0.282 C 
ATOM      2  O   UNL     1       4.468  -0.352   1.120  0.00  0.00    -0.345 OA
ATOM      3  C   UNL     1       5.721  -1.036   1.241  0.00  0.00    +0.197 C 
ATOM      4  C   UNL     1       5.448  -2.541   1.244  0.00  0.00    +0.179 C 
ATOM      5  C   UNL     1       4.664  -2.894  -0.027  0.00  0.00    +0.185 C 
ATOM      6  O   UNL     1       3.466  -2.118  -0.048  0.00  0.00    -0.339 OA
ATOM      7  C   UNL     1       4.352  -4.391  -0.009  0.00  0.00    +0.191 C 
ATOM      8  C   UNL     1       5.676  -5.161   0.076  0.00  0.00    +0.263 C 
ATOM      9  C   UNL     1       6.461  -4.702   1.306  0.00  0.00    +0.292 C 
ATOM     10  O   UNL     1       6.664  -3.286   1.255  0.00  0.00    -0.340 OA
ENDROOT
BRANCH   1  14
ATOM     11  C   UNL     1      -0.017   1.378   0.010  0.00  0.00    +0.000 A 
ATOM     12  C   UNL     1       1.171   2.086   0.002  0.00  0.00    +0.000 A 
ATOM     13  C   UNL     1       2.377   1.411  -0.013  0.00  0.00    +0.008 A 
ATOM     14  C   UNL     1       2.396   0.029  -0.020  0.00  0.00    +0.008 A 
ATOM     15  C   UNL     1       1.208  -0.679  -0.012  0.00  0.00    +0.008 A 
ATOM     16  C   UNL     1       0.002  -0.004   0.002  0.00  0.00    +0.000 A 
ENDBRANCH   1  14
BRANCH   9  17
ATOM     17  O   UNL     1       5.729  -5.034   2.487  0.00  0.00    -0.364 OA
ATOM     18  H   UNL     1       6.168  -4.772   3.308  0.00  0.00    +0.213 HD
ENDBRANCH   9  17
BRANCH   7  19
ATOM     19  O   UNL     1       3.540  -4.698   1.126  0.00  0.00    -0.385 OA
ATOM     20  H   UNL     1       3.304  -5.633   1.199  0.00  0.00    +0.210 HD
ENDBRANCH   7  19
BRANCH   8  21
ATOM     21  O   UNL     1       6.447  -4.910  -1.101  0.00  0.00    -0.450 OA
BRANCH  21  22
ATOM     22  C   UNL     1       7.274  -5.892  -1.510  0.00  0.00    +0.340 C 
ATOM     23  O   UNL     1       7.338  -6.932  -0.886  0.00  0.00    -0.245 OA
BRANCH  22  24
ATOM     24  C   UNL     1       8.102  -5.704  -2.719  0.00  0.00    +0.059 A 
ATOM     25  C   UNL     1       8.036  -4.507  -3.436  0.00  0.00    +0.015 A 
ATOM     26  C   UNL     1       8.812  -4.338  -4.563  0.00  0.00    +0.001 A 
ATOM     27  C   UNL     1       9.656  -5.351  -4.984  0.00  0.00    +0.000 A 
ATOM     28  C   UNL     1       9.726  -6.539  -4.279  0.00  0.00    +0.001 A 
ATOM     29  C   UNL     1       8.960  -6.719  -3.146  0.00  0.00    +0.015 A 
ENDBRANCH  22  24
ENDBRANCH  21  22
ENDBRANCH   8  21
TORSDOF 6
