REMARK  Name = ZINC11866977
REMARK  9 active torsions:
REMARK  status: ('A' for Active; 'I' for Inactive)
REMARK    1  A    between atoms: C_1  and  C_2
REMARK    2  A    between atoms: C_2  and  C_3
REMARK    3  A    between atoms: C_12  and  O_15
REMARK    4  A    between atoms: C_13  and  C_14
REMARK    5  A    between atoms: O_15  and  C_16
REMARK    6  A    between atoms: C_16  and  C_17
REMARK    7  A    between atoms: N_19  and  C_20
REMARK    8  A    between atoms: C_20  and  C_21
REMARK    9  A    between atoms: C_26  and  O_34
REMARK                            x       y       z     vdW  Elec       q    Type
REMARK                         _______ _______ _______ _____ _____    ______ ____
ROOT
ATOM      1  C   UNL     1      -2.789  -6.134   4.237  0.00  0.00    +0.251 C 
ATOM      2  O   UNL     1      -3.973  -6.388   4.168  0.00  0.00    -0.272 OA
ATOM      3  N   UNL     1      -1.934  -7.041   4.750  0.00  0.00    -0.304 N 
ATOM      4  H   UNL     1      -0.987  -6.838   4.805  0.00  0.00    +0.149 HD
ENDROOT
BRANCH   1   5
ATOM      5  C   UNL     1      -2.273  -4.805   3.749  0.00  0.00    +0.324 C 
BRANCH   5   6
ATOM      6  O   UNL     1      -3.364  -4.024   3.255  0.00  0.00    -0.482 OA
BRANCH   6  16
ATOM      7  C   UNL     1      -2.143   1.058   1.278  0.00  0.00    -0.030 A 
ATOM      8  C   UNL     1      -3.167   1.810   0.799  0.00  0.00    +0.096 A 
ATOM      9  C   UNL     1      -4.482   1.299   0.820  0.00  0.00    +0.337 A 
ATOM     10  O   UNL     1      -5.391   1.984   0.387  0.00  0.00    -0.245 OA
ATOM     11  O   UNL     1      -4.756   0.078   1.304  0.00  0.00    -0.422 OA
ATOM     12  C   UNL     1      -3.784  -0.720   1.795  0.00  0.00    +0.146 A 
ATOM     13  C   UNL     1      -2.448  -0.276   1.799  0.00  0.00    +0.021 A 
ATOM     14  C   UNL     1      -1.437  -1.103   2.301  0.00  0.00    +0.015 A 
ATOM     15  C   UNL     1      -1.749  -2.342   2.781  0.00  0.00    +0.047 A 
ATOM     16  C   UNL     1      -3.069  -2.789   2.774  0.00  0.00    +0.128 A 
ATOM     17  C   UNL     1      -4.084  -1.980   2.291  0.00  0.00    +0.034 A 
ATOM     18  C   UNL     1      -5.508  -2.473   2.288  0.00  0.00    +0.051 C 
BRANCH   7  20
ATOM     19  C   UNL     1      -0.013   1.086   0.008  0.00  0.00    +0.009 C 
ATOM     20  C   UNL     1      -0.729   1.579   1.267  0.00  0.00    +0.033 C 
ENDBRANCH   7  20
ENDBRANCH   6  16
ENDBRANCH   5   6
ENDBRANCH   1   5
BRANCH   3  21
ATOM     21  C   UNL     1      -2.434  -8.334   5.224  0.00  0.00    +0.200 C 
BRANCH  21  22
ATOM     22  C   UNL     1      -1.285  -9.157   5.746  0.00  0.00    +0.233 C 
ATOM     23  O   UNL     1      -0.158  -8.708   5.723  0.00  0.00    -0.274 OA
ATOM     24  N   UNL     1      -1.509 -10.392   6.237  0.00  0.00    -0.300 N 
ATOM     25  C   UNL     1      -2.869 -10.947   6.277  0.00  0.00    +0.110 C 
ATOM     26  C   UNL     1      -3.177 -11.403   7.702  0.00  0.00    +0.054 C 
ATOM     27  C   UNL     1      -2.090 -12.372   8.173  0.00  0.00    +0.072 C 
ATOM     28  C   UNL     1      -2.419 -12.847   9.591  0.00  0.00    +0.035 C 
ATOM     29  C   UNL     1      -1.334 -13.811  10.073  0.00  0.00    +0.003 C 
ATOM     30  C   UNL     1       0.018 -13.094  10.079  0.00  0.00    +0.001 C 
ATOM     31  C   UNL     1       0.349 -12.625   8.661  0.00  0.00    +0.008 C 
ATOM     32  C   UNL     1      -0.735 -11.661   8.174  0.00  0.00    +0.038 C 
ATOM     33  C   UNL     1      -0.399 -11.207   6.749  0.00  0.00    +0.114 C 
BRANCH  27  34
ATOM     34  O   UNL     1      -2.037 -13.498   7.294  0.00  0.00    -0.388 OA
ATOM     35  H   UNL     1      -2.864 -13.997   7.244  0.00  0.00    +0.210 HD
ENDBRANCH  27  34
ENDBRANCH  21  22
ENDBRANCH   3  21
TORSDOF 7
