REMARK  Name = ZINC40062032
REMARK  9 active torsions:
REMARK  status: ('A' for Active; 'I' for Inactive)
REMARK    1  A    between atoms: C_1  and  C_2
REMARK    2  A    between atoms: C_4  and  C_36
REMARK    3  A    between atoms: C_13  and  C_24
REMARK    4  A    between atoms: C_21  and  C_23
REMARK    5  A    between atoms: C_27  and  O_32
REMARK    6  A    between atoms: C_28  and  O_30
REMARK    7  A    between atoms: O_30  and  C_31
REMARK    8  A    between atoms: O_32  and  C_33
REMARK    9  A    between atoms: C_33  and  C_34
REMARK                            x       y       z     vdW  Elec       q    Type
REMARK                         _______ _______ _______ _____ _____    ______ ____
ROOT
ATOM      1  C   UNL     1      -0.523   1.450   0.038  0.00  0.00    +0.044 C 
ATOM      2  C   UNL     1      -0.237  -0.029   0.015  0.00  0.00    -0.047 A 
ATOM      3  C   UNL     1      -0.233  -0.708  -1.195  0.00  0.00    +0.007 A 
ATOM      4  C   UNL     1       0.027  -2.050  -1.231  0.00  0.00    -0.036 A 
ATOM      5  C   UNL     1       0.288  -2.735  -0.045  0.00  0.00    +0.067 A 
ATOM      6  C   UNL     1       0.282  -2.060   1.186  0.00  0.00    +0.140 A 
ATOM      7  C   UNL     1       0.022  -0.690   1.195  0.00  0.00    +0.050 A 
ATOM      8  O   UNL     1       0.518  -2.692   2.358  0.00  0.00    -0.450 OA
ATOM      9  C   UNL     1       1.000  -3.951   2.351  0.00  0.00    +0.199 A 
ATOM     10  C   UNL     1       1.049  -4.715   1.220  0.00  0.00    +0.072 A 
ATOM     11  C   UNL     1       0.580  -4.191  -0.067  0.00  0.00    +0.199 A 
ATOM     12  O   UNL     1       0.444  -4.884  -1.060  0.00  0.00    -0.287 OA
ATOM     13  C   UNL     1       1.628  -6.040   1.590  0.00  0.00    +0.152 C 
ATOM     14  N   UNL     1       1.912  -5.965   3.033  0.00  0.00    -0.230 N 
ATOM     15  C   UNL     1       1.543  -4.743   3.467  0.00  0.00    +0.289 C 
ATOM     16  O   UNL     1       1.644  -4.352   4.614  0.00  0.00    -0.266 OA
ATOM     17  C   UNL     1       2.464  -6.975   3.810  0.00  0.00    +0.191 A 
ATOM     18  N   UNL     1       2.858  -8.194   3.470  0.00  0.00    -0.125 NA
ATOM     19  N   UNL     1       3.344  -8.996   4.314  0.00  0.00    -0.145 NA
ATOM     20  C   UNL     1       3.490  -8.675   5.584  0.00  0.00    +0.101 A 
ATOM     21  S   UNL     1       2.853  -7.002   5.558  0.00  0.00    -0.035 S 
ATOM     22  C   UNL     1       4.041  -9.483   6.730  0.00  0.00    +0.075 C 
ATOM     23  C   UNL     1       0.030  -2.784  -2.547  0.00  0.00    +0.044 C 
ENDROOT
BRANCH  13  24
ATOM     24  C   UNL     1       2.900  -6.286   0.820  0.00  0.00    -0.018 A 
ATOM     25  C   UNL     1       4.083  -5.706   1.240  0.00  0.00    +0.009 A 
ATOM     26  C   UNL     1       5.253  -5.928   0.537  0.00  0.00    +0.050 A 
ATOM     27  C   UNL     1       5.241  -6.733  -0.590  0.00  0.00    +0.162 A 
ATOM     28  C   UNL     1       4.051  -7.318  -1.012  0.00  0.00    +0.162 A 
ATOM     29  C   UNL     1       2.883  -7.095  -0.300  0.00  0.00    +0.055 A 
BRANCH  28  30
ATOM     30  O   UNL     1       4.035  -8.109  -2.118  0.00  0.00    -0.491 OA
ATOM     31  C   UNL     1       2.777  -8.675  -2.492  0.00  0.00    +0.277 C 
ENDBRANCH  28  30
BRANCH  27  32
ATOM     32  O   UNL     1       6.391  -6.952  -1.283  0.00  0.00    -0.484 OA
BRANCH  32  33
ATOM     33  C   UNL     1       7.574  -6.320  -0.792  0.00  0.00    +0.256 C 
BRANCH  33  34
ATOM     34  C   UNL     1       8.739  -6.675  -1.681  0.00  0.00    +0.006 C 
ATOM     35  C   UNL     1       9.578  -5.745  -2.064  0.00  0.00    +0.007 C 
ENDBRANCH  33  34
ENDBRANCH  32  33
ENDBRANCH  27  32
ENDBRANCH  13  24
TORSDOF 5
