REMARK  Name = ZINC08686869
REMARK  9 active torsions:
REMARK  status: ('A' for Active; 'I' for Inactive)
REMARK    1  A    between atoms: C_1  and  C_2
REMARK    2  A    between atoms: C_5  and  C_6
REMARK    3  A    between atoms: C_9  and  C_11
REMARK    4  A    between atoms: C_11  and  N_12
REMARK    5  A    between atoms: N_12  and  S_13
REMARK    6  A    between atoms: S_13  and  C_16
REMARK    7  A    between atoms: C_24  and  C_25
REMARK    8  A    between atoms: C_25  and  O_27
REMARK    9  A    between atoms: O_27  and  C_28
REMARK                            x       y       z     vdW  Elec       q    Type
REMARK                         _______ _______ _______ _____ _____    ______ ____
ROOT
ATOM      1  C   UNL     1       0.165  -4.455  -1.120  0.00  0.00    +0.130 A 
ATOM      2  C   UNL     1       0.294  -5.607  -1.884  0.00  0.00    +0.049 A 
ATOM      3  C   UNL     1       0.389  -6.671  -0.983  0.00  0.00    +0.046 A 
ATOM      4  C   UNL     1       0.317  -6.149   0.267  0.00  0.00    +0.121 A 
ATOM      5  O   UNL     1       0.188  -4.820   0.180  0.00  0.00    -0.459 OA
ENDROOT
BRANCH   1  10
ATOM      6  C   UNL     1      -0.331   1.473   0.053  0.00  0.00    +0.066 C 
ATOM      7  C   UNL     1      -0.090  -0.014   0.016  0.00  0.00    +0.057 C 
ATOM      8  N   UNL     1      -0.221  -0.777  -1.037  0.00  0.00    -0.248 NA
ATOM      9  C   UNL     1       0.073  -2.066  -0.729  0.00  0.00    +0.115 C 
ATOM     10  C   UNL     1       0.039  -3.148  -1.610  0.00  0.00    +0.077 C 
ATOM     11  C   UNL     1       0.420  -2.121   0.640  0.00  0.00    +0.220 C 
ATOM     12  C   UNL     1       0.321  -0.804   1.114  0.00  0.00    +0.128 C 
ATOM     13  O   UNL     1       0.780  -3.219   1.349  0.00  0.00    -0.285 OA
BRANCH  12  14
ATOM     14  C   UNL     1       0.588  -0.341   2.478  0.00  0.00    +0.344 C 
ATOM     15  O   UNL     1       0.937  -1.133   3.332  0.00  0.00    -0.245 OA
BRANCH  14  16
ATOM     16  O   UNL     1       0.446   0.964   2.786  0.00  0.00    -0.464 OA
ATOM     17  C   UNL     1       0.723   1.346   4.135  0.00  0.00    +0.280 C 
ENDBRANCH  14  16
ENDBRANCH  12  14
ENDBRANCH   1  10
BRANCH   4  18
ATOM     18  C   UNL     1       0.378  -6.939   1.548  0.00  0.00    +0.180 C 
BRANCH  18  19
ATOM     19  N   UNL     1       1.771  -7.056   1.985  0.00  0.00    -0.183 NA
ATOM     20  H   UNL     1       2.491  -6.849   1.369  0.00  0.00    +0.148 HD
BRANCH  19  21
ATOM     21  S   UNL     1       2.117  -7.539   3.530  0.00  0.00    +0.059 S 
ATOM     22  O   UNL     1       3.534  -7.579   3.636  0.00  0.00    -0.153 OA
ATOM     23  O   UNL     1       1.311  -6.749   4.393  0.00  0.00    -0.153 OA
BRANCH  21  24
ATOM     24  C   UNL     1       1.553  -9.200   3.695  0.00  0.00    +0.105 A 
ATOM     25  C   UNL     1       0.262  -9.453   4.119  0.00  0.00    +0.030 A 
ATOM     26  C   UNL     1      -0.181 -10.755   4.248  0.00  0.00    +0.022 A 
ATOM     27  C   UNL     1       0.668 -11.807   3.954  0.00  0.00    +0.041 A 
ATOM     28  C   UNL     1       1.961 -11.554   3.531  0.00  0.00    +0.022 A 
ATOM     29  C   UNL     1       2.401 -10.250   3.396  0.00  0.00    +0.030 A 
ATOM     30 CL   UNL     1       0.113 -13.444   4.117  0.00  0.00    -0.084 Cl
ENDBRANCH  21  24
ENDBRANCH  19  21
ENDBRANCH  18  19
ENDBRANCH   4  18
TORSDOF 7
