REMARK  Name = ZINC49104438
REMARK  6 active torsions:
REMARK  status: ('A' for Active; 'I' for Inactive)
REMARK    1  A    between atoms: C_1  and  C_2
REMARK    2  A    between atoms: C_2  and  C_4
REMARK    3  A    between atoms: C_2  and  O_21
REMARK    4  A    between atoms: N_6  and  N_7
REMARK    5  A    between atoms: C_8  and  C_10
REMARK    6  A    between atoms: O_21  and  C_22
REMARK                            x       y       z     vdW  Elec       q    Type
REMARK                         _______ _______ _______ _____ _____    ______ ____
ROOT
ATOM      1  N   UNL     1       2.723  -0.710   2.510  0.00  0.00    -0.231 N 
ATOM      2  C   UNL     1       4.037  -0.453   2.663  0.00  0.00    +0.273 C 
ATOM      3  O   UNL     1       4.633   0.181   1.818  0.00  0.00    -0.270 OA
ATOM      4  H   UNL     1       2.246  -1.217   3.187  0.00  0.00    +0.173 HD
ENDROOT
BRANCH   2   5
ATOM      5  C   UNL     1       4.766  -0.952   3.884  0.00  0.00    +0.297 C 
ATOM      6  C   UNL     1       4.802  -2.486   3.873  0.00  0.00    +0.283 C 
ATOM      7  O   UNL     1       5.512  -2.925   5.037  0.00  0.00    -0.484 OA
ATOM      8  C   UNL     1       6.685  -2.292   5.313  0.00  0.00    +0.162 A 
ATOM      9  C   UNL     1       7.589  -2.883   6.182  0.00  0.00    +0.049 A 
ATOM     10  C   UNL     1       8.783  -2.251   6.475  0.00  0.00    +0.004 A 
ATOM     11  C   UNL     1       9.079  -1.028   5.902  0.00  0.00    +0.004 A 
ATOM     12  C   UNL     1       8.182  -0.434   5.034  0.00  0.00    +0.049 A 
ATOM     13  C   UNL     1       6.983  -1.064   4.735  0.00  0.00    +0.163 A 
ATOM     14  O   UNL     1       6.114  -0.470   3.872  0.00  0.00    -0.472 OA
ENDBRANCH   2   5
BRANCH   1  17
ATOM     15  C   UNL     1       0.731  -0.503   1.223  0.00  0.00    +0.258 C 
ATOM     16  O   UNL     1       0.135  -1.137   2.068  0.00  0.00    -0.271 OA
ATOM     17  N   UNL     1       2.045  -0.246   1.375  0.00  0.00    -0.232 N 
ATOM     18  H   UNL     1       2.522   0.261   0.699  0.00  0.00    +0.173 HD
BRANCH  15  20
ATOM     19  C   UNL     1      -0.019   1.526   0.010  0.00  0.00    +0.048 C 
ATOM     20  C   UNL     1       0.002  -0.004   0.002  0.00  0.00    +0.202 C 
BRANCH  20  21
ATOM     21  O   UNL     1      -1.339  -0.499   0.012  0.00  0.00    -0.371 OA
ATOM     22  C   UNL     1      -1.896  -0.693  -1.289  0.00  0.00    +0.195 C 
ENDBRANCH  20  21
ENDBRANCH  15  20
ENDBRANCH   1  17
TORSDOF 4
