REMARK  Name = ZINC67360957
REMARK  8 active torsions:
REMARK  status: ('A' for Active; 'I' for Inactive)
REMARK    1  A    between atoms: C_1  and  C_2
REMARK    2  A    between atoms: C_2  and  C_28
REMARK    3  A    between atoms: N_5  and  C_9
REMARK    4  A    between atoms: C_9  and  C_10
REMARK    5  A    between atoms: N_12  and  C_13
REMARK    6  A    between atoms: C_13  and  C_14
REMARK    7  A    between atoms: N_20  and  C_21
REMARK    8  A    between atoms: C_21  and  C_22
REMARK                            x       y       z     vdW  Elec       q    Type
REMARK                         _______ _______ _______ _____ _____    ______ ____
ROOT
ATOM      1  C   UNL     1       4.512   1.510  -3.227  0.00  0.00    +0.231 C 
ATOM      2  O   UNL     1       4.037   1.380  -2.118  0.00  0.00    -0.274 OA
ATOM      3  N   UNL     1       5.535   0.724  -3.617  0.00  0.00    -0.316 N 
ATOM      4  H   UNL     1       5.915   0.828  -4.504  0.00  0.00    +0.149 HD
ENDROOT
BRANCH   1   5
ATOM      5  C   UNL     1       3.958   2.549  -4.167  0.00  0.00    +0.213 C 
BRANCH   5  10
ATOM      6  C   UNL     1       1.552   4.736  -0.777  0.00  0.00    +0.042 C 
ATOM      7  C   UNL     1       1.629   4.763  -2.305  0.00  0.00    +0.113 C 
ATOM      8  C   UNL     1       3.019   4.382  -2.775  0.00  0.00    +0.247 C 
ATOM      9  O   UNL     1       4.057   4.962  -2.538  0.00  0.00    -0.273 OA
ATOM     10  N   UNL     1       2.860   3.265  -3.512  0.00  0.00    -0.215 N 
ATOM     11  C   UNL     1       1.577   2.890  -3.571  0.00  0.00    +0.310 C 
ATOM     12  O   UNL     1       1.186   1.913  -4.178  0.00  0.00    -0.252 OA
ATOM     13  N   UNL     1       0.768   3.718  -2.885  0.00  0.00    -0.285 N 
ATOM     14  H   UNL     1      -0.194   3.641  -2.791  0.00  0.00    +0.151 HD
BRANCH   7  15
ATOM     15  C   UNL     1       1.236   6.142  -2.838  0.00  0.00    +0.021 C 
ATOM     16  C   UNL     1       1.177   7.297  -1.836  0.00  0.00    +0.006 C 
ATOM     17  C   UNL     1      -0.117   6.709  -2.402  0.00  0.00    +0.006 C 
ENDBRANCH   7  15
ENDBRANCH   5  10
ENDBRANCH   1   5
BRANCH   3  18
ATOM     18  C   UNL     1       6.074  -0.285  -2.703  0.00  0.00    +0.089 C 
BRANCH  18  19
ATOM     19  C   UNL     1       7.133  -1.118  -3.429  0.00  0.00    -0.051 C 
ATOM     20  C   UNL     1       8.325  -0.228  -3.784  0.00  0.00    -0.014 C 
ATOM     21  C   UNL     1       9.382  -1.065  -4.511  0.00  0.00    -0.003 C 
ATOM     22  C   UNL     1       8.748  -1.707  -5.748  0.00  0.00    -0.019 C 
ATOM     23  C   UNL     1       7.540  -2.543  -5.320  0.00  0.00    -0.078 C 
ATOM     24  N   UNL     1       6.555  -1.680  -4.656  0.00  0.00    +0.385 N 
ATOM     25  H   UNL     1       6.293  -0.930  -5.278  0.00  0.00    -0.081 HD
BRANCH  24  26
ATOM     26  C   UNL     1       5.364  -2.470  -4.318  0.00  0.00    -0.043 C 
BRANCH  26  27
ATOM     27  C   UNL     1       4.690  -2.931  -5.584  0.00  0.00    -0.064 A 
ATOM     28  C   UNL     1       3.721  -2.143  -6.178  0.00  0.00    +0.002 A 
ATOM     29  C   UNL     1       3.103  -2.565  -7.340  0.00  0.00    +0.000 A 
ATOM     30  C   UNL     1       3.454  -3.775  -7.909  0.00  0.00    +0.000 A 
ATOM     31  C   UNL     1       4.423  -4.562  -7.316  0.00  0.00    +0.000 A 
ATOM     32  C   UNL     1       5.044  -4.138  -6.156  0.00  0.00    +0.002 A 
ENDBRANCH  26  27
ENDBRANCH  24  26
ENDBRANCH  18  19
ENDBRANCH   3  18
TORSDOF 7
