REMARK  Name = ZINC13138943
REMARK  9 active torsions:
REMARK  status: ('A' for Active; 'I' for Inactive)
REMARK    1  A    between atoms: C_1  and  C_2
REMARK    2  A    between atoms: C_2  and  C_4
REMARK    3  A    between atoms: C_2  and  N_12
REMARK    4  A    between atoms: C_13  and  C_15
REMARK    5  A    between atoms: C_15  and  N_16
REMARK    6  A    between atoms: C_19  and  C_23
REMARK    7  A    between atoms: C_19  and  C_24
REMARK    8  A    between atoms: C_28  and  O_30
REMARK    9  A    between atoms: O_30  and  C_31
REMARK                            x       y       z     vdW  Elec       q    Type
REMARK                         _______ _______ _______ _____ _____    ______ ____
ROOT
ATOM      1  N   UNL     1       4.574   0.566  -1.500  0.00  0.00    -0.215 N 
ATOM      2  C   UNL     1       4.779   0.712  -2.824  0.00  0.00    +0.251 C 
ATOM      3  O   UNL     1       4.319   1.570  -3.546  0.00  0.00    -0.272 OA
ATOM      4  C   UNL     1       5.706  -0.420  -3.223  0.00  0.00    +0.135 C 
ATOM      5  N   UNL     1       5.937  -1.139  -1.958  0.00  0.00    -0.281 N 
ATOM      6  C   UNL     1       5.239  -0.487  -1.011  0.00  0.00    +0.310 C 
ATOM      7  O   UNL     1       5.214  -0.818   0.158  0.00  0.00    -0.252 OA
ATOM      8  C   UNL     1       5.030  -1.334  -4.247  0.00  0.00    +0.047 C 
ATOM      9  H   UNL     1       6.487  -1.929  -1.833  0.00  0.00    +0.152 HD
ENDROOT
BRANCH   4  10
ATOM     10  C   UNL     1       7.000   0.123  -3.772  0.00  0.00    -0.012 A 
ATOM     11  C   UNL     1       7.016   1.339  -4.430  0.00  0.00    +0.006 A 
ATOM     12  C   UNL     1       8.202   1.841  -4.930  0.00  0.00    +0.004 A 
ATOM     13  C   UNL     1       9.374   1.125  -4.783  0.00  0.00    +0.045 A 
ATOM     14  C   UNL     1       9.361  -0.098  -4.127  0.00  0.00    +0.120 A 
ATOM     15  C   UNL     1       8.169  -0.598  -3.622  0.00  0.00    +0.051 A 
BRANCH  14  16
ATOM     16  O   UNL     1      10.512  -0.805  -3.981  0.00  0.00    -0.495 OA
ATOM     17  C   UNL     1      11.700  -0.229  -4.527  0.00  0.00    +0.277 C 
ENDBRANCH  14  16
ENDBRANCH   4  10
BRANCH   1  18
ATOM     18  C   UNL     1       3.732   1.454  -0.695  0.00  0.00    +0.213 C 
BRANCH  18  20
ATOM     19  N   UNL     1       1.362   1.593  -0.002  0.00  0.00    -0.307 N 
ATOM     20  C   UNL     1       2.318   0.933  -0.685  0.00  0.00    +0.231 C 
ATOM     21  O   UNL     1       2.042  -0.081  -1.290  0.00  0.00    -0.274 OA
ATOM     22  H   UNL     1       1.583   2.404   0.482  0.00  0.00    +0.149 HD
BRANCH  19  24
ATOM     23  C   UNL     1      -0.753   1.593  -1.232  0.00  0.00    +0.033 C 
ATOM     24  C   UNL     1      -0.013   1.086   0.008  0.00  0.00    +0.100 C 
BRANCH  24  25
ATOM     25  C   UNL     1      -0.718   1.572   1.248  0.00  0.00    -0.026 A 
ATOM     26  C   UNL     1      -0.510   2.862   1.700  0.00  0.00    +0.007 A 
ATOM     27  C   UNL     1      -1.161   3.311   2.834  0.00  0.00    +0.022 A 
ATOM     28  C   UNL     1      -2.012   2.465   3.523  0.00  0.00    +0.059 A 
ATOM     29  C   UNL     1      -2.216   1.172   3.074  0.00  0.00    +0.060 A 
ATOM     30  C   UNL     1      -1.568   0.726   1.935  0.00  0.00    +0.027 A 
ATOM     31 CL   UNL     1      -3.284   0.110   3.937  0.00  0.00    -0.082 Cl
ATOM     32 CL   UNL     1      -2.825   3.026   4.951  0.00  0.00    -0.082 Cl
ENDBRANCH  24  25
ENDBRANCH  19  24
ENDBRANCH  18  20
ENDBRANCH   1  18
TORSDOF 6
