REMARK  Name = ZINC19776292
REMARK  4 active torsions:
REMARK  status: ('A' for Active; 'I' for Inactive)
REMARK    1  A    between atoms: C_1  and  C_2
REMARK    2  A    between atoms: C_9  and  N_23
REMARK    3  A    between atoms: C_10  and  C_11
REMARK    4  A    between atoms: C_11  and  C_13
REMARK                            x       y       z     vdW  Elec       q    Type
REMARK                         _______ _______ _______ _____ _____    ______ ____
ROOT
ATOM      1  C   UNL     1       8.056  -5.814  -0.018  0.00  0.00    +0.008 C 
ATOM      2  C   UNL     1       6.953  -4.802  -0.334  0.00  0.00    -0.009 C 
ATOM      3  C   UNL     1       7.150  -3.542   0.514  0.00  0.00    +0.008 C 
ATOM      4  C   UNL     1       6.207  -2.438   0.030  0.00  0.00    +0.037 C 
ATOM      5  C   UNL     1       4.788  -2.990  -0.023  0.00  0.00    -0.024 A 
ATOM      6  C   UNL     1       4.560  -4.321  -0.028  0.00  0.00    -0.004 A 
ATOM      7  S   UNL     1       2.797  -4.479  -0.084  0.00  0.00    -0.078 S 
ATOM      8  C   UNL     1       2.365  -2.801  -0.093  0.00  0.00    +0.074 A 
ATOM      9  C   UNL     1       3.597  -2.156  -0.052  0.00  0.00    +0.054 A 
ATOM     10  C   UNL     1       5.584  -5.413  -0.000  0.00  0.00    +0.046 C 
ENDROOT
BRANCH   8  11
ATOM     11  N   UNL     1       1.103  -2.241  -0.131  0.00  0.00    -0.352 N 
ATOM     12  H   UNL     1       0.988  -1.147  -0.131  0.00  0.00    +0.143 HD
ATOM     13  H   UNL     1       0.214  -2.888  -0.160  0.00  0.00    +0.143 HD
ENDBRANCH   8  11
BRANCH   9  14
ATOM     14  C   UNL     1       3.691  -0.696  -0.046  0.00  0.00    +0.196 C 
ATOM     15  O   UNL     1       3.783  -0.097   1.010  0.00  0.00    -0.287 OA
BRANCH  14  16
ATOM     16  C   UNL     1       3.675   0.051  -1.320  0.00  0.00    +0.026 A 
ATOM     17  C   UNL     1       3.684  -0.638  -2.536  0.00  0.00    +0.015 A 
ATOM     18  C   UNL     1       3.671   0.061  -3.723  0.00  0.00    +0.050 A 
ATOM     19  C   UNL     1       3.648   1.451  -3.717  0.00  0.00    +0.162 A 
ATOM     20  C   UNL     1       3.637   2.143  -2.509  0.00  0.00    +0.163 A 
ATOM     21  C   UNL     1       3.651   1.447  -1.314  0.00  0.00    +0.061 A 
ATOM     22  O   UNL     1       3.606   3.504  -2.486  0.00  0.00    -0.485 OA
ATOM     23  C   UNL     1       3.968   4.176  -3.697  0.00  0.00    +0.270 C 
ATOM     24  C   UNL     1       3.238   3.493  -4.862  0.00  0.00    +0.270 C 
ATOM     25  O   UNL     1       3.643   2.120  -4.901  0.00  0.00    -0.485 OA
ENDBRANCH  14  16
ENDBRANCH   9  14
TORSDOF 3
