REMARK  Name = ZINC65181752
REMARK  11 active torsions:
REMARK  status: ('A' for Active; 'I' for Inactive)
REMARK    1  A    between atoms: C_1  and  C_2
REMARK    2  A    between atoms: C_2  and  C_3
REMARK    3  A    between atoms: C_2  and  C_4
REMARK    4  A    between atoms: C_7  and  C_10
REMARK    5  A    between atoms: N_12  and  C_13
REMARK    6  A    between atoms: N_12  and  C_14
REMARK    7  A    between atoms: C_14  and  C_15
REMARK    8  A    between atoms: C_15  and  C_16
REMARK    9  A    between atoms: C_19  and  C_22
REMARK   10  A    between atoms: C_28  and  O_32
REMARK   11  A    between atoms: O_32  and  C_33
REMARK                            x       y       z     vdW  Elec       q    Type
REMARK                         _______ _______ _______ _____ _____    ______ ____
ROOT
ATOM      1  C   UNL     1      -9.456  -1.907  -1.849  0.00  0.00    +0.139 C 
ATOM      2  N   UNL     1     -10.048  -2.993  -1.507  0.00  0.00    -0.072 NA
ATOM      3  O   UNL     1     -11.440  -2.911  -1.747  0.00  0.00    -0.367 OA
ATOM      4  C   UNL     1     -11.678  -1.606  -2.298  0.00  0.00    +0.318 C 
ATOM      5  N   UNL     1     -10.346  -0.982  -2.342  0.00  0.00    -0.291 N 
ATOM      6  H   UNL     1     -10.136  -0.089  -2.659  0.00  0.00    +0.151 HD
ENDROOT
BRANCH   4   7
ATOM      7  C   UNL     1     -12.614  -0.804  -1.391  0.00  0.00    +0.165 C 
ATOM      8  C   UNL     1     -12.878   0.559  -1.990  0.00  0.00    +0.012 C 
ATOM      9  C   UNL     1     -14.211   0.624  -2.204  0.00  0.00    -0.004 A 
ATOM     10  C   UNL     1     -15.078   1.673  -2.756  0.00  0.00    +0.013 A 
ATOM     11  C   UNL     1     -16.406   1.446  -2.848  0.00  0.00    +0.046 A 
ATOM     12  C   UNL     1     -16.978   0.230  -2.427  0.00  0.00    +0.122 A 
ATOM     13  C   UNL     1     -16.239  -0.782  -1.907  0.00  0.00    +0.071 A 
ATOM     14  C   UNL     1     -14.835  -0.646  -1.767  0.00  0.00    +0.046 A 
ATOM     15  N   UNL     1     -13.920  -1.466  -1.300  0.00  0.00    -0.373 N 
ATOM     16  H   UNL     1     -14.080  -2.358  -0.954  0.00  0.00    +0.160 HD
BRANCH  12  17
ATOM     17  O   UNL     1     -18.319   0.065  -2.546  0.00  0.00    -0.495 OA
ATOM     18  C   UNL     1     -19.060   1.154  -3.098  0.00  0.00    +0.277 C 
ENDBRANCH  12  17
ENDBRANCH   4   7
BRANCH   1  19
ATOM     19  C   UNL     1      -7.973  -1.672  -1.721  0.00  0.00    +0.094 C 
BRANCH  19  20
ATOM     20  C   UNL     1      -7.308  -2.920  -1.136  0.00  0.00    +0.115 C 
BRANCH  20  23
ATOM     21  C   UNL     1      -5.363  -2.166   0.123  0.00  0.00    +0.246 C 
ATOM     22  O   UNL     1      -6.091  -1.964   1.075  0.00  0.00    -0.270 OA
ATOM     23  N   UNL     1      -5.867  -2.691  -1.012  0.00  0.00    -0.300 N 
ATOM     24  C   UNL     1      -4.972  -3.034  -2.120  0.00  0.00    +0.132 C 
BRANCH  21  28
ATOM     25  C   UNL     1      -1.230  -1.218   0.372  0.00  0.00    -0.045 A 
ATOM     26  C   UNL     1      -1.634  -2.368  -0.282  0.00  0.00    +0.004 A 
ATOM     27  C   UNL     1      -2.975  -2.682  -0.366  0.00  0.00    +0.013 A 
ATOM     28  C   UNL     1      -3.924  -1.836   0.210  0.00  0.00    +0.037 A 
ATOM     29  C   UNL     1      -3.510  -0.677   0.868  0.00  0.00    +0.013 A 
ATOM     30  C   UNL     1      -2.165  -0.378   0.950  0.00  0.00    +0.004 A 
BRANCH  25  32
ATOM     31  C   UNL     1       0.975  -2.006   1.186  0.00  0.00    +0.012 C 
ATOM     32  C   UNL     1       0.236  -0.881   0.460  0.00  0.00    +0.013 C 
ATOM     33  C   UNL     1       0.809  -0.722  -0.950  0.00  0.00    +0.012 C 
ENDBRANCH  25  32
ENDBRANCH  21  28
ENDBRANCH  20  23
ENDBRANCH  19  20
ENDBRANCH   1  19
TORSDOF 7
