REMARK  Name = ZINC09632521
REMARK  14 active torsions:
REMARK  status: ('A' for Active; 'I' for Inactive)
REMARK    1  A    between atoms: C_1  and  C_2
REMARK    2  A    between atoms: C_2  and  C_3
REMARK    3  A    between atoms: C_3  and  N_4
REMARK    4  A    between atoms: C_5  and  N_34
REMARK    5  A    between atoms: C_6  and  C_13
REMARK    6  A    between atoms: N_9  and  C_12
REMARK    7  A    between atoms: C_13  and  C_15
REMARK    8  A    between atoms: C_15  and  S_16
REMARK    9  A    between atoms: S_16  and  C_17
REMARK   10  A    between atoms: C_19  and  C_31
REMARK   11  A    between atoms: N_23  and  C_24
REMARK   12  A    between atoms: C_27  and  C_30
REMARK   13  A    between atoms: C_31  and  C_32
REMARK   14  A    between atoms: C_31  and  C_33
REMARK                            x       y       z     vdW  Elec       q    Type
REMARK                         _______ _______ _______ _____ _____    ______ ____
ROOT
ATOM      1  C   UNL     1       2.504  -0.120   0.168  0.00  0.00    +0.157 C 
ENDROOT
BRANCH   1   2
ATOM      2  C   UNL     1       2.445   1.383   0.089  0.00  0.00    +0.182 C 
ATOM      3  O   UNL     1       3.470   2.028  -0.001  0.00  0.00    -0.291 OA
BRANCH   2   6
ATOM      4  N   UNL     1      -0.110   4.038   0.208  0.00  0.00    -0.281 N 
ATOM      5  C   UNL     1       1.120   3.445   0.179  0.00  0.00    +0.116 A 
ATOM      6  C   UNL     1       1.197   2.043   0.121  0.00  0.00    +0.120 A 
ATOM      7  C   UNL     1      -0.061   1.286   0.095  0.00  0.00    +0.269 A 
ATOM      8  O   UNL     1      -0.054   0.070   0.044  0.00  0.00    -0.267 OA
ATOM      9  N   UNL     1      -1.225   1.968   0.122  0.00  0.00    -0.263 N 
ATOM     10  C   UNL     1      -1.237   3.309   0.182  0.00  0.00    +0.333 A 
ATOM     11  O   UNL     1      -2.307   3.884   0.210  0.00  0.00    -0.246 OA
ATOM     12  C   UNL     1      -2.493   1.234   0.091  0.00  0.00    +0.157 C 
BRANCH   5  13
ATOM     13  N   UNL     1       2.252   4.200   0.206  0.00  0.00    -0.344 N 
ATOM     14  H   UNL     1       2.231   5.117  -0.111  0.00  0.00    +0.144 HD
ATOM     15  H   UNL     1       3.079   3.821   0.542  0.00  0.00    +0.144 HD
ENDBRANCH   5  13
BRANCH   4  16
ATOM     16  C   UNL     1      -0.202   5.499   0.268  0.00  0.00    +0.128 C 
BRANCH  16  18
ATOM     17  C   UNL     1      -0.335   7.592  -1.090  0.00  0.00    +0.005 C 
ATOM     18  C   UNL     1      -0.240   6.066  -1.153  0.00  0.00    +0.018 C 
ENDBRANCH  16  18
ENDBRANCH   4  16
ENDBRANCH   2   6
ENDBRANCH   1   2
BRANCH   1  19
ATOM     19  S   UNL     1       4.230  -0.660   0.104  0.00  0.00    -0.082 S 
BRANCH  19  20
ATOM     20  C   UNL     1       4.009  -2.405   0.211  0.00  0.00    +0.164 C 
ATOM     21  N   UNL     1       2.849  -2.978   0.311  0.00  0.00    -0.250 NA
ATOM     22  C   UNL     1       3.075  -4.431   0.373  0.00  0.00    +0.197 C 
ATOM     23  C   UNL     1       4.582  -4.570   0.299  0.00  0.00    +0.250 C 
ATOM     24  O   UNL     1       5.230  -5.595   0.320  0.00  0.00    -0.272 OA
ATOM     25  N   UNL     1       5.048  -3.307   0.204  0.00  0.00    -0.217 N 
BRANCH  25  26
ATOM     26  C   UNL     1       6.403  -2.961   0.112  0.00  0.00    +0.043 A 
ATOM     27  C   UNL     1       6.856  -2.201  -0.958  0.00  0.00    +0.024 A 
ATOM     28  C   UNL     1       8.191  -1.857  -1.043  0.00  0.00    +0.005 A 
ATOM     29  C   UNL     1       9.079  -2.279  -0.070  0.00  0.00    -0.050 A 
ATOM     30  C   UNL     1       8.632  -3.041   0.994  0.00  0.00    +0.005 A 
ATOM     31  C   UNL     1       7.297  -3.383   1.088  0.00  0.00    +0.024 A 
ATOM     32  C   UNL     1      10.536  -1.907  -0.169  0.00  0.00    +0.044 C 
ENDBRANCH  25  26
BRANCH  22  33
ATOM     33  C   UNL     1       2.548  -4.995   1.694  0.00  0.00    +0.016 C 
ATOM     34  C   UNL     1       1.026  -4.843   1.743  0.00  0.00    +0.010 C 
ATOM     35  C   UNL     1       2.916  -6.477   1.798  0.00  0.00    +0.010 C 
ENDBRANCH  22  33
ENDBRANCH  19  20
ENDBRANCH   1  19
TORSDOF 9
