REMARK  Name = ZINC49235790
REMARK  2 active torsions:
REMARK  status: ('A' for Active; 'I' for Inactive)
REMARK    1  A    between atoms: C_5  and  N_7
REMARK    2  A    between atoms: C_15  and  C_18
REMARK                            x       y       z     vdW  Elec       q    Type
REMARK                         _______ _______ _______ _____ _____    ______ ____
ROOT
ATOM      1  C   UNL     1      -0.017   1.374   0.010  0.00  0.00    +0.003 A 
ATOM      2  C   UNL     1       1.169   2.097   0.002  0.00  0.00    +0.014 A 
ATOM      3  C   UNL     1       2.383   1.434  -0.013  0.00  0.00    +0.052 A 
ATOM      4  C   UNL     1       2.412   0.022  -0.021  0.00  0.00    +0.070 A 
ATOM      5  C   UNL     1       1.217  -0.694  -0.013  0.00  0.00    +0.038 A 
ATOM      6  C   UNL     1       0.002  -0.004   0.002  0.00  0.00    +0.023 A 
ATOM      7  C   UNL     1       3.836  -0.353  -0.036  0.00  0.00    +0.262 C 
ATOM      8  O   UNL     1       4.270  -1.488  -0.047  0.00  0.00    -0.269 OA
ATOM      9  N   UNL     1       4.577   0.770  -0.037  0.00  0.00    -0.180 N 
ATOM     10  C   UNL     1       3.796   1.866  -0.024  0.00  0.00    +0.260 C 
ATOM     11  O   UNL     1       4.186   3.016  -0.022  0.00  0.00    -0.269 OA
ATOM     12  C   UNL     1       5.970   0.796  -0.050  0.00  0.00    +0.174 A 
ATOM     13  N   UNL     1       6.768   1.841  -0.046  0.00  0.00    -0.229 NA
ATOM     14  C   UNL     1       8.080   1.697  -0.060  0.00  0.00    +0.054 A 
ATOM     15  C   UNL     1       8.561   0.430  -0.077  0.00  0.00    +0.072 A 
ATOM     16  S   UNL     1       7.039  -0.504  -0.065  0.00  0.00    -0.060 S 
ENDROOT
BRANCH   5  17
ATOM     17  N   UNL     1       1.233  -2.081  -0.021  0.00  0.00    -0.357 N 
ATOM     18  H   UNL     1       2.078  -2.556  -0.032  0.00  0.00    +0.142 HD
ATOM     19  H   UNL     1       0.398  -2.575  -0.016  0.00  0.00    +0.142 HD
ENDBRANCH   5  17
BRANCH  14  20
ATOM     20  C   UNL     1       9.002   2.889  -0.057  0.00  0.00    +0.038 C 
ATOM     21  C   UNL     1      10.468   2.647   0.310  0.00  0.00    +0.010 C 
ATOM     22  C   UNL     1       9.541   3.362   1.295  0.00  0.00    +0.010 C 
ENDBRANCH  14  20
TORSDOF 2
