REMARK  Name = ZINC64110616
REMARK  12 active torsions:
REMARK  status: ('A' for Active; 'I' for Inactive)
REMARK    1  A    between atoms: C_1  and  C_2
REMARK    2  A    between atoms: C_7  and  C_12
REMARK    3  A    between atoms: C_12  and  C_14
REMARK    4  A    between atoms: C_12  and  N_15
REMARK    5  A    between atoms: C_16  and  C_18
REMARK    6  A    between atoms: N_20  and  C_29
REMARK    7  A    between atoms: C_22  and  C_25
REMARK    8  A    between atoms: N_27  and  C_28
REMARK    9  A    between atoms: C_29  and  C_30
REMARK   10  A    between atoms: C_30  and  C_31
REMARK   11  A    between atoms: C_31  and  C_32
REMARK   12  A    between atoms: C_31  and  C_33
REMARK                            x       y       z     vdW  Elec       q    Type
REMARK                         _______ _______ _______ _____ _____    ______ ____
ROOT
ATOM      1  N   UNL     1       1.317  -6.412   1.323  0.00  0.00    -0.305 N 
ATOM      2  C   UNL     1       2.024  -7.425   1.863  0.00  0.00    +0.250 C 
ATOM      3  O   UNL     1       2.712  -7.229   2.847  0.00  0.00    -0.270 OA
ATOM      4  H   UNL     1       0.827  -6.549   0.497  0.00  0.00    +0.149 HD
ENDROOT
BRANCH   2   5
ATOM      5  C   UNL     1       1.963  -8.768   1.262  0.00  0.00    +0.100 A 
ATOM      6  C   UNL     1       2.586  -9.840   1.864  0.00  0.00    +0.102 A 
ATOM      7  N   UNL     1       2.539 -11.069   1.326  0.00  0.00    -0.352 N 
ATOM      8  C   UNL     1       1.894 -11.350   0.182  0.00  0.00    +0.102 A 
ATOM      9  C   UNL     1       1.227 -10.374  -0.526  0.00  0.00    +0.100 A 
ATOM     10  C   UNL     1       1.230  -9.001   0.007  0.00  0.00    +0.206 A 
ATOM     11  O   UNL     1       0.655  -8.094  -0.571  0.00  0.00    -0.286 OA
BRANCH   9  12
ATOM     12  C   UNL     1       0.525 -10.696  -1.780  0.00  0.00    +0.249 C 
ATOM     13  O   UNL     1       0.440 -11.851  -2.150  0.00  0.00    -0.270 OA
ATOM     14  N   UNL     1      -0.024  -9.710  -2.517  0.00  0.00    -0.314 N 
ATOM     15  C   UNL     1      -0.624 -10.016  -3.818  0.00  0.00    +0.128 C 
ATOM     16  H   UNL     1      -0.021  -8.798  -2.187  0.00  0.00    +0.149 HD
ENDBRANCH   9  12
BRANCH   7  17
ATOM     17  C   UNL     1       3.226 -12.160   2.022  0.00  0.00    +0.121 C 
BRANCH  17  18
ATOM     18  C   UNL     1       2.263 -12.820   3.012  0.00  0.00    +0.024 C 
BRANCH  18  19
ATOM     19  C   UNL     1       2.981 -13.959   3.739  0.00  0.00    -0.016 C 
ATOM     20  C   UNL     1       4.111 -13.384   4.596  0.00  0.00    +0.007 C 
ATOM     21  C   UNL     1       1.986 -14.698   4.636  0.00  0.00    +0.007 C 
ENDBRANCH  18  19
ENDBRANCH  17  18
ENDBRANCH   7  17
ENDBRANCH   2   5
BRANCH   1  22
ATOM     22  C   UNL     1       1.288  -5.105   1.984  0.00  0.00    +0.113 C 
ATOM     23  C   UNL     1       2.508  -4.288   1.553  0.00  0.00    +0.032 C 
BRANCH  22  30
ATOM     24  C   UNL     1      -0.155   1.485   0.095  0.00  0.00    +0.044 C 
ATOM     25  C   UNL     1      -0.117  -0.022   0.076  0.00  0.00    -0.048 A 
ATOM     26  C   UNL     1      -0.115  -0.682  -1.165  0.00  0.00    +0.005 A 
ATOM     27  C   UNL     1      -0.082  -2.025  -1.274  0.00  0.00    +0.027 A 
ATOM     28  C   UNL     1      -0.047  -2.850  -0.059  0.00  0.00    +0.060 A 
ATOM     29  N   UNL     1      -0.012  -4.137   0.137  0.00  0.00    -0.362 N 
ATOM     30  C   UNL     1       0.011  -4.361   1.588  0.00  0.00    +0.194 C 
ATOM     31  N   UNL     1      -0.015  -3.033   2.213  0.00  0.00    -0.362 N 
ATOM     32  C   UNL     1      -0.049  -2.151   1.256  0.00  0.00    +0.060 A 
ATOM     33  C   UNL     1      -0.081  -0.682   1.251  0.00  0.00    +0.030 A 
ATOM     34  H   UNL     1      -0.004  -4.822  -0.550  0.00  0.00    +0.162 HD
ATOM     35  H   UNL     1      -0.009  -2.846   3.165  0.00  0.00    +0.162 HD
ENDBRANCH  22  30
ENDBRANCH   1  22
TORSDOF 7
