REMARK  Name = ZINC08925222
REMARK  10 active torsions:
REMARK  status: ('A' for Active; 'I' for Inactive)
REMARK    1  A    between atoms: C_1  and  C_2
REMARK    2  A    between atoms: C_2  and  O_3
REMARK    3  A    between atoms: O_3  and  C_4
REMARK    4  A    between atoms: C_4  and  C_6
REMARK    5  A    between atoms: C_10  and  N_11
REMARK    6  A    between atoms: C_12  and  C_14
REMARK    7  A    between atoms: C_14  and  S_15
REMARK    8  A    between atoms: S_15  and  C_16
REMARK    9  A    between atoms: C_19  and  C_21
REMARK   10  A    between atoms: C_33  and  C_37
REMARK                            x       y       z     vdW  Elec       q    Type
REMARK                         _______ _______ _______ _____ _____    ______ ____
ROOT
ATOM      1  N   UNL     1      -1.005  14.347  -1.694  0.00  0.00    -0.279 N 
ATOM      2  C   UNL     1      -1.346  13.484  -0.717  0.00  0.00    +0.228 C 
ATOM      3  O   UNL     1      -1.806  13.900   0.326  0.00  0.00    -0.275 OA
ATOM      4  H   UNL     1      -0.637  14.014  -2.528  0.00  0.00    +0.155 HD
ENDROOT
BRANCH   1   9
ATOM      5  C   UNL     1      -0.885  16.745  -2.385  0.00  0.00    +0.091 A 
ATOM      6  C   UNL     1      -1.171  18.100  -1.944  0.00  0.00    -0.021 A 
ATOM      7  C   UNL     1      -1.690  18.203  -0.702  0.00  0.00    -0.004 A 
ATOM      8  S   UNL     1      -1.810  16.534  -0.121  0.00  0.00    -0.077 S 
ATOM      9  C   UNL     1      -1.179  15.709  -1.508  0.00  0.00    +0.086 A 
ATOM     10  C   UNL     1      -2.074  19.460   0.015  0.00  0.00    +0.046 C 
ATOM     11  C   UNL     1      -1.445  20.650  -0.723  0.00  0.00    -0.009 C 
ATOM     12  C   UNL     1      -1.724  20.504  -2.222  0.00  0.00    +0.008 C 
ATOM     13  C   UNL     1      -0.911  19.339  -2.791  0.00  0.00    +0.037 C 
ATOM     14  C   UNL     1      -2.059  21.954  -0.212  0.00  0.00    +0.008 C 
BRANCH   5  15
ATOM     15  C   UNL     1      -0.313  16.481  -3.708  0.00  0.00    +0.342 C 
ATOM     16  O   UNL     1      -1.045  16.303  -4.662  0.00  0.00    -0.245 OA
BRANCH  15  17
ATOM     17  O   UNL     1       1.025  16.435  -3.866  0.00  0.00    -0.461 OA
BRANCH  17  19
ATOM     18  C   UNL     1       3.052  16.155  -5.188  0.00  0.00    +0.048 C 
ATOM     19  C   UNL     1       1.522  16.169  -5.205  0.00  0.00    +0.229 C 
ENDBRANCH  17  19
ENDBRANCH  15  17
ENDBRANCH   5  15
ENDBRANCH   1   9
BRANCH   2  20
ATOM     20  C   UNL     1      -1.157  12.003  -0.919  0.00  0.00    +0.175 C 
BRANCH  20  21
ATOM     21  S   UNL     1      -1.704  11.117   0.561  0.00  0.00    -0.056 S 
BRANCH  21  22
ATOM     22  C   UNL     1      -1.380   9.458   0.062  0.00  0.00    +0.278 A 
ATOM     23  N   UNL     1      -0.878   9.076  -1.087  0.00  0.00    -0.101 NA
ATOM     24  N   UNL     1      -0.774   7.793  -1.101  0.00  0.00    -0.108 NA
ATOM     25  C   UNL     1      -1.210   7.309   0.025  0.00  0.00    +0.262 A 
ATOM     26  O   UNL     1      -1.600   8.347   0.791  0.00  0.00    -0.412 OA
BRANCH  25  27
ATOM     27  C   UNL     1      -1.263   5.852   0.407  0.00  0.00    +0.297 C 
ATOM     28  C   UNL     1      -2.424   5.167  -0.326  0.00  0.00    +0.283 C 
ATOM     29  O   UNL     1      -2.437   3.785   0.048  0.00  0.00    -0.484 OA
ATOM     30  C   UNL     1      -1.241   3.136   0.030  0.00  0.00    +0.162 A 
ATOM     31  C   UNL     1      -1.219   1.749   0.017  0.00  0.00    +0.049 A 
ATOM     32  C   UNL     1      -0.013   1.076   0.008  0.00  0.00    +0.004 A 
ATOM     33  C   UNL     1       1.176   1.782   0.000  0.00  0.00    +0.004 A 
ATOM     34  C   UNL     1       1.161   3.164   0.007  0.00  0.00    +0.049 A 
ATOM     35  C   UNL     1      -0.046   3.846   0.020  0.00  0.00    +0.163 A 
ATOM     36  O   UNL     1      -0.045   5.207   0.019  0.00  0.00    -0.472 OA
ENDBRANCH  25  27
ENDBRANCH  21  22
ENDBRANCH  20  21
ENDBRANCH   2  20
TORSDOF 8
