REMARK  Name = ZINC04887506
REMARK  5 active torsions:
REMARK  status: ('A' for Active; 'I' for Inactive)
REMARK    1  A    between atoms: C_1  and  S_2
REMARK    2  A    between atoms: S_2  and  C_3
REMARK    3  A    between atoms: N_9  and  C_12
REMARK    4  A    between atoms: C_15  and  O_22
REMARK    5  A    between atoms: C_19  and  O_21
REMARK                            x       y       z     vdW  Elec       q    Type
REMARK                         _______ _______ _______ _____ _____    ______ ____
ROOT
ATOM      1  C   UNL     1      -2.076   5.066   3.123  0.00  0.00    +0.127 A 
ATOM      2  C   UNL     1      -0.914   4.381   2.725  0.00  0.00    +0.140 A 
ATOM      3  C   UNL     1      -0.689   4.198   1.351  0.00  0.00    +0.165 A 
ATOM      4  N   UNL     1      -1.575   4.675   0.482  0.00  0.00    -0.216 NA
ATOM      5  C   UNL     1      -2.650   5.311   0.900  0.00  0.00    +0.224 A 
ATOM      6  N   UNL     1      -2.904   5.507   2.181  0.00  0.00    -0.227 NA
ATOM      7  N   UNL     1       0.494   3.511   1.249  0.00  0.00    -0.309 N 
ATOM      8  C   UNL     1       0.949   3.292   2.515  0.00  0.00    +0.202 A 
ATOM      9  N   UNL     1       0.124   3.808   3.380  0.00  0.00    -0.231 NA
ENDROOT
BRANCH   7  10
ATOM     10  C   UNL     1       1.146   3.087   0.008  0.00  0.00    +0.126 C 
ATOM     11  C   UNL     1       2.539   3.717  -0.081  0.00  0.00    +0.089 C 
ATOM     12  C   UNL     1       3.243   3.207  -1.341  0.00  0.00    +0.249 C 
ATOM     13  O   UNL     1       3.313   1.780  -1.301  0.00  0.00    -0.349 OA
ATOM     14  C   UNL     1       2.038   1.134  -1.265  0.00  0.00    +0.196 C 
ATOM     15  C   UNL     1       1.286   1.562  -0.002  0.00  0.00    +0.163 C 
BRANCH  15  16
ATOM     16  O   UNL     1      -0.011   0.963   0.007  0.00  0.00    -0.387 OA
ATOM     17  H   UNL     1       0.002  -0.004   0.002  0.00  0.00    +0.210 HD
ENDBRANCH  15  16
BRANCH  12  18
ATOM     18  O   UNL     1       2.508   3.616  -2.496  0.00  0.00    -0.367 OA
ATOM     19  H   UNL     1       2.897   3.326  -3.333  0.00  0.00    +0.212 HD
ENDBRANCH  12  18
ENDBRANCH   7  10
BRANCH   1  21
ATOM     20  C   UNL     1      -3.991   6.232   4.691  0.00  0.00    +0.091 C 
ATOM     21  S   UNL     1      -2.425   5.335   4.829  0.00  0.00    -0.107 S 
ENDBRANCH   1  21
TORSDOF 4
