REMARK  Name = ZINC46022462
REMARK  6 active torsions:
REMARK  status: ('A' for Active; 'I' for Inactive)
REMARK    1  A    between atoms: C_1  and  N_2
REMARK    2  A    between atoms: C_3  and  C_5
REMARK    3  A    between atoms: C_9  and  N_11
REMARK    4  A    between atoms: C_12  and  C_14
REMARK    5  A    between atoms: N_17  and  C_19
REMARK    6  A    between atoms: C_23  and  N_25
REMARK                            x       y       z     vdW  Elec       q    Type
REMARK                         _______ _______ _______ _____ _____    ______ ____
ROOT
ATOM      1  N   UNL     1       1.837  -4.906  -3.132  0.00  0.00    -0.279 N 
ATOM      2  C   UNL     1       2.319  -4.230  -4.193  0.00  0.00    +0.268 C 
ATOM      3  O   UNL     1       2.308  -3.014  -4.196  0.00  0.00    -0.268 OA
ATOM      4  H   UNL     1       1.906  -5.873  -3.101  0.00  0.00    +0.155 HD
ENDROOT
BRANCH   1   9
ATOM      5  C   UNL     1       1.114  -2.279  -0.649  0.00  0.00    +0.039 A 
ATOM      6  C   UNL     1       0.035  -2.852   0.028  0.00  0.00    +0.014 A 
ATOM      7  C   UNL     1      -0.433  -4.094  -0.348  0.00  0.00    +0.022 A 
ATOM      8  C   UNL     1       0.162  -4.776  -1.395  0.00  0.00    +0.062 A 
ATOM      9  C   UNL     1       1.238  -4.213  -2.074  0.00  0.00    +0.053 A 
ATOM     10  C   UNL     1       1.711  -2.963  -1.708  0.00  0.00    +0.037 A 
ATOM     11 CL   UNL     1      -0.433  -6.338  -1.860  0.00  0.00    -0.082 Cl
BRANCH   5  14
ATOM     12  C   UNL     1       1.538   1.030   1.172  0.00  0.00    +0.128 C 
ATOM     13  N   UNL     1       1.039  -0.289   0.775  0.00  0.00    -0.314 N 
ATOM     14  C   UNL     1       1.618  -0.948  -0.248  0.00  0.00    +0.244 C 
ATOM     15  O   UNL     1       2.554  -0.449  -0.842  0.00  0.00    -0.270 OA
ATOM     16  H   UNL     1       0.292  -0.687   1.248  0.00  0.00    +0.149 HD
ENDBRANCH   5  14
ENDBRANCH   1   9
BRANCH   2  17
ATOM     17  C   UNL     1       2.862  -4.966  -5.353  0.00  0.00    +0.148 A 
ATOM     18  C   UNL     1       3.405  -4.398  -6.530  0.00  0.00    +0.054 A 
ATOM     19  C   UNL     1       3.770  -5.446  -7.304  0.00  0.00    +0.115 A 
ATOM     20  N   UNL     1       3.458  -6.577  -6.619  0.00  0.00    -0.239 N 
ATOM     21  N   UNL     1       2.937  -6.276  -5.484  0.00  0.00    -0.162 NA
BRANCH  20  22
ATOM     22  C   UNL     1       3.680  -7.882  -7.079  0.00  0.00    +0.068 A 
ATOM     23  C   UNL     1       4.263  -8.091  -8.322  0.00  0.00    +0.028 A 
ATOM     24  C   UNL     1       4.480  -9.378  -8.773  0.00  0.00    +0.004 A 
ATOM     25  C   UNL     1       4.117 -10.458  -7.989  0.00  0.00    +0.033 A 
ATOM     26  C   UNL     1       3.536 -10.253  -6.751  0.00  0.00    +0.128 A 
ATOM     27  C   UNL     1       3.321  -8.968  -6.292  0.00  0.00    +0.060 A 
BRANCH  26  28
ATOM     28  N   UNL     1       3.148 -11.411  -5.915  0.00  0.00    +0.056 N 
ATOM     29  O   UNL     1       3.340 -12.536  -6.315  0.00  0.00    -0.126 OA
ATOM     30  O   UNL     1       2.639 -11.232  -4.833  0.00  0.00    -0.126 OA
ENDBRANCH  26  28
ENDBRANCH  20  22
ENDBRANCH   2  17
TORSDOF 5
