REMARK  Name = ZINC05618798
REMARK  9 active torsions:
REMARK  status: ('A' for Active; 'I' for Inactive)
REMARK    1  A    between atoms: C_1  and  C_2
REMARK    2  A    between atoms: C_4  and  C_22
REMARK    3  A    between atoms: C_13  and  N_60
REMARK    4  A    between atoms: C_24  and  O_32
REMARK    5  A    between atoms: C_25  and  O_30
REMARK    6  A    between atoms: C_26  and  O_28
REMARK    7  A    between atoms: O_28  and  C_29
REMARK    8  A    between atoms: O_30  and  C_31
REMARK    9  A    between atoms: O_32  and  C_33
REMARK                            x       y       z     vdW  Elec       q    Type
REMARK                         _______ _______ _______ _____ _____    ______ ____
ROOT
ATOM      1  C   UNL     1      -4.166   8.218   1.357  0.00  0.00    +0.010 C 
ATOM      2  C   UNL     1      -3.285   7.186   0.650  0.00  0.00    +0.021 C 
ATOM      3  C   UNL     1      -3.116   5.953   1.540  0.00  0.00    +0.057 C 
ATOM      4  C   UNL     1      -2.506   4.829   0.741  0.00  0.00    +0.006 A 
ATOM      5  C   UNL     1      -1.928   3.768   1.421  0.00  0.00    +0.057 A 
ATOM      6  C   UNL     1      -1.361   2.716   0.724  0.00  0.00    +0.167 A 
ATOM      7  C   UNL     1      -1.372   2.724  -0.669  0.00  0.00    +0.170 A 
ATOM      8  C   UNL     1      -1.947   3.784  -1.346  0.00  0.00    +0.095 A 
ATOM      9  C   UNL     1      -2.515   4.841  -0.642  0.00  0.00    +0.126 A 
ATOM     10  O   UNL     1      -3.064   5.866  -1.346  0.00  0.00    -0.506 OA
ATOM     11  C   UNL     1      -3.954   6.747  -0.659  0.00  0.00    +0.127 C 
ATOM     12  O   UNL     1      -0.760   1.588  -1.116  0.00  0.00    -0.452 OA
ATOM     13  C   UNL     1      -0.013   1.086   0.008  0.00  0.00    +0.466 C 
ATOM     14  O   UNL     1      -0.738   1.576   1.151  0.00  0.00    -0.453 OA
ENDROOT
BRANCH  11  19
ATOM     15  C   UNL     1      -2.984   8.693  -1.755  0.00  0.00    -0.074 C 
ATOM     16  C   UNL     1      -3.338   9.524  -3.013  0.00  0.00    -0.020 C 
ATOM     17  C   UNL     1      -4.204   8.547  -3.841  0.00  0.00    -0.020 C 
ATOM     18  C   UNL     1      -4.739   7.523  -2.823  0.00  0.00    -0.074 C 
ATOM     19  N   UNL     1      -4.225   7.939  -1.518  0.00  0.00    +0.404 N 
ATOM     20  H   UNL     1      -4.913   8.541  -1.050  0.00  0.00    -0.076 HD
ENDBRANCH  11  19
BRANCH   3  21
ATOM     21  C   UNL     1      -2.215   6.292   2.700  0.00  0.00    -0.032 A 
ATOM     22  C   UNL     1      -0.919   6.711   2.466  0.00  0.00    +0.054 A 
ATOM     23  C   UNL     1      -0.088   7.028   3.530  0.00  0.00    +0.165 A 
ATOM     24  C   UNL     1      -0.557   6.914   4.833  0.00  0.00    +0.204 A 
ATOM     25  C   UNL     1      -1.859   6.486   5.064  0.00  0.00    +0.165 A 
ATOM     26  C   UNL     1      -2.685   6.176   3.995  0.00  0.00    +0.054 A 
BRANCH  25  27
ATOM     27  O   UNL     1      -2.323   6.373   6.338  0.00  0.00    -0.491 OA
ATOM     28  C   UNL     1      -3.671   5.928   6.500  0.00  0.00    +0.277 C 
ENDBRANCH  25  27
BRANCH  24  29
ATOM     29  O   UNL     1       0.257   7.218   5.880  0.00  0.00    -0.488 OA
ATOM     30  C   UNL     1       1.048   6.156   6.418  0.00  0.00    +0.277 C 
ENDBRANCH  24  29
BRANCH  23  31
ATOM     31  O   UNL     1       1.185   7.446   3.298  0.00  0.00    -0.491 OA
ATOM     32  C   UNL     1       1.599   7.541   1.934  0.00  0.00    +0.277 C 
ENDBRANCH  23  31
ENDBRANCH   3  21
TORSDOF 5
