REMARK  Name = ZINC08873364
REMARK  9 active torsions:
REMARK  status: ('A' for Active; 'I' for Inactive)
REMARK    1  A    between atoms: C_1  and  C_2
REMARK    2  A    between atoms: C_4  and  C_30
REMARK    3  A    between atoms: C_5  and  N_9
REMARK    4  A    between atoms: C_6  and  C_8
REMARK    5  A    between atoms: C_10  and  C_12
REMARK    6  A    between atoms: C_12  and  S_13
REMARK    7  A    between atoms: S_13  and  C_14
REMARK    8  A    between atoms: N_24  and  C_25
REMARK    9  A    between atoms: C_25  and  C_26
REMARK                            x       y       z     vdW  Elec       q    Type
REMARK                         _______ _______ _______ _____ _____    ______ ____
ROOT
ATOM      1  C   UNL     1       0.858   7.851  -1.569  0.00  0.00    +0.212 A 
ATOM      2  N   UNL     1       1.397   6.866  -2.276  0.00  0.00    -0.201 NA
ATOM      3  C   UNL     1       0.941   5.627  -2.117  0.00  0.00    +0.165 A 
ATOM      4  C   UNL     1      -0.105   5.412  -1.196  0.00  0.00    +0.138 A 
ATOM      5  C   UNL     1      -0.398   3.969  -1.231  0.00  0.00    +0.029 A 
ATOM      6  C   UNL     1      -1.310   3.157  -0.560  0.00  0.00    +0.012 A 
ATOM      7  C   UNL     1      -1.345   1.805  -0.823  0.00  0.00    +0.001 A 
ATOM      8  C   UNL     1      -0.469   1.249  -1.743  0.00  0.00    +0.002 A 
ATOM      9  C   UNL     1       0.438   2.041  -2.413  0.00  0.00    +0.026 A 
ATOM     10  C   UNL     1       0.485   3.409  -2.167  0.00  0.00    +0.053 A 
ATOM     11  N   UNL     1       1.277   4.423  -2.683  0.00  0.00    -0.313 N 
ATOM     12  N   UNL     1      -0.600   6.439  -0.520  0.00  0.00    -0.143 NA
ATOM     13  N   UNL     1      -0.127   7.623  -0.706  0.00  0.00    -0.122 NA
ENDROOT
BRANCH   1  14
ATOM     14  S   UNL     1       1.461   9.494  -1.777  0.00  0.00    -0.075 S 
BRANCH  14  15
ATOM     15  C   UNL     1       0.396  10.370  -0.605  0.00  0.00    +0.173 C 
BRANCH  15  17
ATOM     16  N   UNL     1       0.072  12.691   0.187  0.00  0.00    -0.284 N 
ATOM     17  C   UNL     1       0.741  11.837  -0.613  0.00  0.00    +0.228 C 
ATOM     18  O   UNL     1       1.621  12.249  -1.339  0.00  0.00    -0.275 OA
ATOM     19  H   UNL     1      -0.666  12.371   0.728  0.00  0.00    +0.155 HD
BRANCH  16  24
ATOM     20  C   UNL     1       1.576  18.158   0.390  0.00  0.00    +0.044 C 
ATOM     21  C   UNL     1       1.177  16.706   0.336  0.00  0.00    -0.050 A 
ATOM     22  C   UNL     1      -0.141  16.361   0.094  0.00  0.00    +0.008 A 
ATOM     23  C   UNL     1      -0.510  15.031   0.044  0.00  0.00    -0.029 A 
ATOM     24  C   UNL     1       0.443  14.040   0.237  0.00  0.00    +0.039 A 
ATOM     25  C   UNL     1       1.764  14.389   0.484  0.00  0.00    -0.029 A 
ATOM     26  C   UNL     1       2.128  15.721   0.528  0.00  0.00    +0.008 A 
ATOM     27  C   UNL     1       2.801  13.316   0.699  0.00  0.00    +0.045 C 
ATOM     28  C   UNL     1      -1.946  14.656  -0.218  0.00  0.00    +0.045 C 
ENDBRANCH  16  24
ENDBRANCH  15  17
ENDBRANCH  14  15
ENDBRANCH   1  14
BRANCH  11  29
ATOM     29  C   UNL     1       2.323   4.235  -3.691  0.00  0.00    +0.248 C 
BRANCH  29  30
ATOM     30  C   UNL     1       1.729   4.390  -5.067  0.00  0.00    +0.375 C 
ATOM     31  O   UNL     1       0.552   4.632  -5.193  0.00  0.00    -0.244 OA
ATOM     32  O   UNL     1       2.507   4.259  -6.153  0.00  0.00    -0.244 OA
ENDBRANCH  29  30
ENDBRANCH  11  29
TORSDOF 6
