REMARK  Name = ZINC64715668
REMARK  6 active torsions:
REMARK  status: ('A' for Active; 'I' for Inactive)
REMARK    1  A    between atoms: C_8  and  C_22
REMARK    2  A    between atoms: N_10  and  S_12
REMARK    3  A    between atoms: S_12  and  C_15
REMARK    4  A    between atoms: N_24  and  C_25
REMARK    5  A    between atoms: C_25  and  C_26
REMARK    6  A    between atoms: C_26  and  C_27
REMARK                            x       y       z     vdW  Elec       q    Type
REMARK                         _______ _______ _______ _____ _____    ______ ____
ROOT
ATOM      1  C   UNL     1       0.192   0.893   2.292  0.00  0.00    +0.000 A 
ATOM      2  C   UNL     1       0.751   1.810   1.422  0.00  0.00    +0.000 A 
ATOM      3  C   UNL     1       1.621   1.381   0.441  0.00  0.00    +0.005 A 
ATOM      4  C   UNL     1       1.936   0.035   0.318  0.00  0.00    -0.028 A 
ATOM      5  C   UNL     1       1.372  -0.882   1.178  0.00  0.00    -0.041 A 
ATOM      6  C   UNL     1       0.503  -0.446   2.170  0.00  0.00    +0.004 A 
ATOM      7  C   UNL     1       1.642  -2.361   1.087  0.00  0.00    +0.065 C 
ATOM      8  C   UNL     1       2.932  -2.632   0.314  0.00  0.00    +0.170 C 
ATOM      9  N   UNL     1       2.901  -1.825  -0.917  0.00  0.00    -0.160 NA
ATOM     10  C   UNL     1       2.904  -0.366  -0.766  0.00  0.00    +0.145 C 
ENDROOT
BRANCH   8  11
ATOM     11  C   UNL     1       3.019  -4.095  -0.036  0.00  0.00    +0.232 C 
ATOM     12  O   UNL     1       2.008  -4.723  -0.272  0.00  0.00    -0.274 OA
ATOM     13  N   UNL     1       4.219  -4.706  -0.088  0.00  0.00    -0.314 N 
ATOM     14  H   UNL     1       5.032  -4.189   0.030  0.00  0.00    +0.149 HD
BRANCH  13  15
ATOM     15  C   UNL     1       4.297  -6.150  -0.322  0.00  0.00    +0.108 C 
BRANCH  15  16
ATOM     16  C   UNL     1       5.763  -6.586  -0.334  0.00  0.00    +0.052 C 
BRANCH  16  17
ATOM     17  C   UNL     1       5.843  -8.072  -0.575  0.00  0.00    -0.040 C 
ATOM     18  C   UNL     1       6.029  -8.694  -1.762  0.00  0.00    -0.001 A 
ATOM     19  C   UNL     1       6.204  -8.194  -3.130  0.00  0.00    +0.010 A 
ATOM     20  C   UNL     1       6.372  -9.082  -4.137  0.00  0.00    +0.001 A 
ATOM     21  C   UNL     1       6.383 -10.464  -3.906  0.00  0.00    +0.002 A 
ATOM     22  C   UNL     1       6.228 -11.000  -2.676  0.00  0.00    +0.026 A 
ATOM     23  C   UNL     1       6.044 -10.159  -1.544  0.00  0.00    +0.043 A 
ATOM     24  N   UNL     1       5.875 -10.431  -0.273  0.00  0.00    -0.380 N 
ATOM     25  C   UNL     1       5.738  -9.168   0.461  0.00  0.00    +0.144 C 
ATOM     26  H   UNL     1       5.848 -11.318   0.117  0.00  0.00    +0.160 HD
ENDBRANCH  16  17
ENDBRANCH  15  16
ENDBRANCH  13  15
ENDBRANCH   8  11
BRANCH   9  27
ATOM     27  S   UNL     1       2.865  -2.536  -2.412  0.00  0.00    +0.065 S 
ATOM     28  O   UNL     1       3.749  -1.790  -3.238  0.00  0.00    -0.153 OA
ATOM     29  O   UNL     1       3.015  -3.933  -2.201  0.00  0.00    -0.153 OA
BRANCH  27  30
ATOM     30  C   UNL     1       1.246  -2.296  -3.064  0.00  0.00    +0.141 A 
ATOM     31  C   UNL     1       1.063  -1.527  -4.197  0.00  0.00    +0.031 A 
ATOM     32  C   UNL     1      -0.207  -1.339  -4.709  0.00  0.00    +0.002 A 
ATOM     33  C   UNL     1      -1.297  -1.920  -4.087  0.00  0.00    +0.003 A 
ATOM     34  C   UNL     1      -1.117  -2.690  -2.954  0.00  0.00    +0.040 A 
ATOM     35  C   UNL     1       0.156  -2.883  -2.443  0.00  0.00    +0.150 A 
ATOM     36  F   UNL     1       0.334  -3.639  -1.338  0.00  0.00    -0.203 F 
ENDBRANCH  27  30
ENDBRANCH   9  27
TORSDOF 6
