REMARK  Name = ZINC06532255
REMARK  4 active torsions:
REMARK  status: ('A' for Active; 'I' for Inactive)
REMARK    1  A    between atoms: N_9  and  C_20
REMARK    2  A    between atoms: C_10  and  S_12
REMARK    3  A    between atoms: S_12  and  C_13
REMARK    4  A    between atoms: C_13  and  C_14
REMARK                            x       y       z     vdW  Elec       q    Type
REMARK                         _______ _______ _______ _____ _____    ______ ____
ROOT
ATOM      1  C   UNL     1      -0.017   1.363   0.009  0.00  0.00    +0.001 A 
ATOM      2  C   UNL     1       1.168   2.089   0.002  0.00  0.00    +0.002 A 
ATOM      3  C   UNL     1       2.379   1.458  -0.013  0.00  0.00    +0.028 A 
ATOM      4  C   UNL     1       2.432   0.061  -0.021  0.00  0.00    +0.079 A 
ATOM      5  C   UNL     1       1.224  -0.674  -0.013  0.00  0.00    +0.065 A 
ATOM      6  C   UNL     1       0.002  -0.004   0.002  0.00  0.00    +0.015 A 
ATOM      7  C   UNL     1       1.305  -2.141  -0.021  0.00  0.00    +0.263 A 
ATOM      8  O   UNL     1       0.301  -2.829  -0.015  0.00  0.00    -0.267 OA
ATOM      9  N   UNL     1       2.538  -2.699  -0.036  0.00  0.00    -0.284 N 
ATOM     10  C   UNL     1       3.654  -1.911  -0.043  0.00  0.00    +0.173 A 
ATOM     11  N   UNL     1       3.605  -0.602  -0.036  0.00  0.00    -0.223 NA
ENDROOT
BRANCH   9  12
ATOM     12  C   UNL     1       2.677  -4.157  -0.044  0.00  0.00    +0.093 C 
ATOM     13  C   UNL     1       1.995  -4.728  -1.289  0.00  0.00    +0.025 C 
ATOM     14  C   UNL     1       2.140  -6.251  -1.298  0.00  0.00    +0.002 C 
ATOM     15  C   UNL     1       1.483  -6.832  -0.045  0.00  0.00    +0.000 C 
ATOM     16  C   UNL     1       2.165  -6.262   1.200  0.00  0.00    +0.002 C 
ATOM     17  C   UNL     1       2.020  -4.739   1.209  0.00  0.00    +0.025 C 
ENDBRANCH   9  12
BRANCH  10  18
ATOM     18  S   UNL     1       5.234  -2.693  -0.062  0.00  0.00    -0.078 S 
BRANCH  18  19
ATOM     19  C   UNL     1       6.407  -1.310  -0.066  0.00  0.00    +0.173 C 
BRANCH  19  20
ATOM     20  C   UNL     1       7.816  -1.846  -0.082  0.00  0.00    +0.231 C 
ATOM     21  O   UNL     1       8.008  -3.043  -0.090  0.00  0.00    -0.274 OA
ATOM     22  N   UNL     1       8.861  -0.995  -0.088  0.00  0.00    -0.240 N 
ATOM     23  C   UNL     1      10.120  -1.475  -0.102  0.00  0.00    +0.303 C 
ATOM     24  O   UNL     1      10.313  -2.675  -0.110  0.00  0.00    -0.253 OA
ATOM     25  N   UNL     1      11.165  -0.624  -0.108  0.00  0.00    -0.313 N 
ATOM     26  H   UNL     1       8.707  -0.038  -0.082  0.00  0.00    +0.159 HD
ATOM     27  H   UNL     1      11.011   0.334  -0.102  0.00  0.00    +0.146 HD
ATOM     28  H   UNL     1      12.072  -0.970  -0.118  0.00  0.00    +0.146 HD
ENDBRANCH  19  20
ENDBRANCH  18  19
ENDBRANCH  10  18
TORSDOF 4
