REMARK  Name = ZINC02111767
REMARK  8 active torsions:
REMARK  status: ('A' for Active; 'I' for Inactive)
REMARK    1  A    between atoms: C_1  and  C_2
REMARK    2  A    between atoms: C_2  and  C_3
REMARK    3  A    between atoms: C_12  and  O_14
REMARK    4  A    between atoms: O_14  and  C_15
REMARK    5  A    between atoms: C_15  and  C_16
REMARK    6  A    between atoms: N_18  and  C_19
REMARK    7  A    between atoms: C_19  and  C_20
REMARK    8  A    between atoms: C_25  and  O_33
REMARK                            x       y       z     vdW  Elec       q    Type
REMARK                         _______ _______ _______ _____ _____    ______ ____
ROOT
ATOM      1  C   UNL     1       2.004   4.441   0.007  0.00  0.00    +0.251 C 
ATOM      2  O   UNL     1       3.152   4.052  -0.006  0.00  0.00    -0.272 OA
ATOM      3  N   UNL     1       0.991   3.551   0.012  0.00  0.00    -0.304 N 
ATOM      4  H   UNL     1       0.072   3.862   0.022  0.00  0.00    +0.149 HD
ENDROOT
BRANCH   1   5
ATOM      5  C   UNL     1       1.708   5.919   0.018  0.00  0.00    +0.324 C 
BRANCH   5   6
ATOM      6  O   UNL     1       2.936   6.650   0.010  0.00  0.00    -0.483 OA
BRANCH   6  16
ATOM      7  C   UNL     1       2.559  12.225   0.042  0.00  0.00    -0.030 A 
ATOM      8  C   UNL     1       3.718  12.934   0.034  0.00  0.00    +0.096 A 
ATOM      9  C   UNL     1       4.955  12.257   0.019  0.00  0.00    +0.337 A 
ATOM     10  O   UNL     1       5.986  12.906   0.012  0.00  0.00    -0.245 OA
ATOM     11  O   UNL     1       5.025  10.917   0.012  0.00  0.00    -0.422 OA
ATOM     12  C   UNL     1       3.912  10.153   0.019  0.00  0.00    +0.143 A 
ATOM     13  C   UNL     1       2.643  10.763   0.034  0.00  0.00    +0.021 A 
ATOM     14  C   UNL     1       1.487   9.975   0.041  0.00  0.00    +0.015 A 
ATOM     15  C   UNL     1       1.594   8.614   0.033  0.00  0.00    +0.046 A 
ATOM     16  C   UNL     1       2.846   8.004   0.018  0.00  0.00    +0.125 A 
ATOM     17  C   UNL     1       4.002   8.769   0.017  0.00  0.00    +0.092 A 
BRANCH   7  19
ATOM     18  C   UNL     1       0.727  13.041   1.500  0.00  0.00    +0.009 C 
ATOM     19  C   UNL     1       1.224  12.923   0.057  0.00  0.00    +0.033 C 
ENDBRANCH   7  19
ENDBRANCH   6  16
ENDBRANCH   5   6
ENDBRANCH   1   5
BRANCH   3  20
ATOM     20  C   UNL     1       1.278   2.115   0.001  0.00  0.00    +0.200 C 
BRANCH  20  21
ATOM     21  C   UNL     1      -0.016   1.344   0.009  0.00  0.00    +0.233 C 
ATOM     22  O   UNL     1      -1.075   1.936   0.018  0.00  0.00    -0.274 OA
ATOM     23  N   UNL     1       0.002  -0.004   0.002  0.00  0.00    -0.300 N 
ATOM     24  C   UNL     1       1.276  -0.736  -0.020  0.00  0.00    +0.110 C 
ATOM     25  C   UNL     1       1.264  -1.719  -1.190  0.00  0.00    +0.054 C 
ATOM     26  C   UNL     1       0.028  -2.617  -1.088  0.00  0.00    +0.072 C 
ATOM     27  C   UNL     1       0.030  -3.610  -2.252  0.00  0.00    +0.035 C 
ATOM     28  C   UNL     1       0.017  -2.841  -3.575  0.00  0.00    +0.003 C 
ATOM     29  C   UNL     1      -1.240  -1.972  -3.650  0.00  0.00    +0.001 C 
ATOM     30  C   UNL     1      -1.248  -0.984  -2.482  0.00  0.00    +0.008 C 
ATOM     31  C   UNL     1      -1.236  -1.756  -1.161  0.00  0.00    +0.038 C 
ATOM     32  C   UNL     1      -1.251  -0.770   0.010  0.00  0.00    +0.114 C 
BRANCH  26  33
ATOM     33  O   UNL     1       0.049  -3.330   0.150  0.00  0.00    -0.388 OA
ATOM     34  H   UNL     1       0.825  -3.897   0.264  0.00  0.00    +0.210 HD
ENDBRANCH  26  33
ENDBRANCH  20  21
ENDBRANCH   3  20
TORSDOF 7
