REMARK  Name = ZINC20338668
REMARK  4 active torsions:
REMARK  status: ('A' for Active; 'I' for Inactive)
REMARK    1  A    between atoms: C_1  and  C_2
REMARK    2  A    between atoms: C_5  and  C_8
REMARK    3  A    between atoms: N_12  and  C_21
REMARK    4  A    between atoms: C_16  and  N_20
REMARK                            x       y       z     vdW  Elec       q    Type
REMARK                         _______ _______ _______ _____ _____    ______ ____
ROOT
ATOM      1  C   UNL     1       2.151   5.177   1.299  0.00  0.00    +0.059 C 
ATOM      2  C   UNL     1       2.289   4.215   0.359  0.00  0.00    +0.191 C 
ATOM      3  C   UNL     1       3.616   3.846  -0.177  0.00  0.00    +0.286 C 
ATOM      4  O   UNL     1       4.542   4.635  -0.170  0.00  0.00    -0.266 OA
ATOM      5  N   UNL     1       3.762   2.595  -0.677  0.00  0.00    -0.265 N 
ATOM      6  C   UNL     1       2.663   1.722  -0.647  0.00  0.00    +0.079 A 
ATOM      7  C   UNL     1       2.847   0.368  -0.889  0.00  0.00    +0.029 A 
ATOM      8  C   UNL     1       1.767  -0.492  -0.858  0.00  0.00    +0.025 A 
ATOM      9  C   UNL     1       0.495  -0.006  -0.583  0.00  0.00    +0.028 A 
ATOM     10  C   UNL     1       0.306   1.348  -0.339  0.00  0.00    +0.071 A 
ATOM     11  C   UNL     1       1.387   2.212  -0.371  0.00  0.00    +0.152 A 
ATOM     12  O   UNL     1       1.207   3.542  -0.137  0.00  0.00    -0.449 OA
ATOM     13  C   UNL     1       5.043   2.162  -1.240  0.00  0.00    +0.139 C 
ENDROOT
BRANCH   1  18
ATOM     14  C   UNL     1       6.803   7.389   3.850  0.00  0.00    +0.044 C 
ATOM     15  C   UNL     1       5.584   6.809   3.182  0.00  0.00    -0.050 A 
ATOM     16  C   UNL     1       5.548   5.463   2.863  0.00  0.00    +0.004 A 
ATOM     17  C   UNL     1       4.436   4.925   2.251  0.00  0.00    +0.008 A 
ATOM     18  C   UNL     1       3.342   5.743   1.952  0.00  0.00    -0.021 A 
ATOM     19  C   UNL     1       3.388   7.104   2.272  0.00  0.00    +0.008 A 
ATOM     20  C   UNL     1       4.505   7.626   2.889  0.00  0.00    +0.004 A 
ENDBRANCH   1  18
BRANCH   9  21
ATOM     21  N   UNL     1      -0.597  -0.880  -0.551  0.00  0.00    -0.358 N 
ATOM     22  H   UNL     1      -1.604  -0.495  -0.333  0.00  0.00    +0.142 HD
ATOM     23  H   UNL     1      -0.447  -1.953  -0.744  0.00  0.00    +0.142 HD
ENDBRANCH   9  21
TORSDOF 2
