REMARK  Name = ZINC13299867
REMARK  5 active torsions:
REMARK  status: ('A' for Active; 'I' for Inactive)
REMARK    1  A    between atoms: C_5  and  C_7
REMARK    2  A    between atoms: N_9  and  N_10
REMARK    3  A    between atoms: N_10  and  S_11
REMARK    4  A    between atoms: S_11  and  C_14
REMARK    5  A    between atoms: C_16  and  C_19
REMARK                            x       y       z     vdW  Elec       q    Type
REMARK                         _______ _______ _______ _____ _____    ______ ____
ROOT
ATOM      1  N   UNL     1      -0.017   1.397   0.010  0.00  0.00    -0.107 NA
ATOM      2  H   UNL     1      -0.864   1.870   0.016  0.00  0.00    +0.172 HD
ENDROOT
BRANCH   1   5
ATOM      3  C   UNL     1      -0.649  -0.692   0.961  0.00  0.00    +0.260 C 
ATOM      4  O   UNL     1      -1.253  -0.097   1.832  0.00  0.00    -0.269 OA
ATOM      5  N   UNL     1       0.002  -0.004   0.002  0.00  0.00    -0.228 N 
ATOM      6  H   UNL     1       0.484  -0.479  -0.693  0.00  0.00    +0.171 HD
BRANCH   3  11
ATOM      7  C   UNL     1       0.077  -4.235  -0.049  0.00  0.00    +0.001 A 
ATOM      8  C   UNL     1      -0.592  -4.940   0.937  0.00  0.00    +0.001 A 
ATOM      9  C   UNL     1      -1.280  -4.267   1.930  0.00  0.00    +0.016 A 
ATOM     10  C   UNL     1      -1.303  -2.886   1.944  0.00  0.00    +0.030 A 
ATOM     11  C   UNL     1      -0.629  -2.170   0.953  0.00  0.00    +0.052 A 
ATOM     12  C   UNL     1       0.059  -2.856  -0.050  0.00  0.00    +0.014 A 
ATOM     13 BR   UNL     1      -2.244  -1.968   3.303  0.00  0.00    -0.050 Br
ENDBRANCH   3  11
ENDBRANCH   1   5
BRANCH   1  14
ATOM     14  S   UNL     1       1.406   2.244   0.001  0.00  0.00    +0.080 S 
ATOM     15  O   UNL     1       1.060   3.616  -0.134  0.00  0.00    -0.151 OA
ATOM     16  O   UNL     1       2.176   1.756   1.091  0.00  0.00    -0.151 OA
BRANCH  14  17
ATOM     17  C   UNL     1       2.270   1.796  -1.468  0.00  0.00    +0.145 A 
ATOM     18  C   UNL     1       2.204   2.367  -2.686  0.00  0.00    +0.051 A 
ATOM     19  C   UNL     1       3.028   1.798  -3.723  0.00  0.00    +0.072 A 
ATOM     20  C   UNL     1       3.806   0.710  -3.380  0.00  0.00    +0.062 A 
ATOM     21  S   UNL     1       3.438   0.472  -1.705  0.00  0.00    -0.076 S 
BRANCH  19  22
ATOM     22  C   UNL     1       3.036   2.347  -5.087  0.00  0.00    +0.387 C 
ATOM     23  O   UNL     1       2.340   3.306  -5.359  0.00  0.00    -0.241 OA
ATOM     24  O   UNL     1       3.814   1.788  -6.035  0.00  0.00    -0.241 OA
ENDBRANCH  19  22
ENDBRANCH  14  17
ENDBRANCH   1  14
TORSDOF 5
