REMARK  Name = ZINC41089786
REMARK  12 active torsions:
REMARK  status: ('A' for Active; 'I' for Inactive)
REMARK    1  A    between atoms: C_1  and  C_2
REMARK    2  A    between atoms: C_5  and  C_35
REMARK    3  A    between atoms: C_6  and  O_8
REMARK    4  A    between atoms: O_8  and  C_9
REMARK    5  A    between atoms: C_9  and  C_10
REMARK    6  A    between atoms: N_12  and  C_13
REMARK    7  A    between atoms: C_18  and  O_19
REMARK    8  A    between atoms: O_19  and  C_20
REMARK    9  A    between atoms: C_20  and  C_21
REMARK   10  A    between atoms: N_30  and  C_31
REMARK   11  A    between atoms: C_31  and  C_32
REMARK   12  A    between atoms: C_31  and  C_33
REMARK                            x       y       z     vdW  Elec       q    Type
REMARK                         _______ _______ _______ _____ _____    ______ ____
ROOT
ATOM      1  C   UNL     1      -0.013  -3.242   7.136  0.00  0.00    +0.077 A 
ATOM      2  C   UNL     1       0.016  -4.623   7.003  0.00  0.00    +0.047 A 
ATOM      3  C   UNL     1      -0.057  -5.427   8.126  0.00  0.00    +0.043 A 
ATOM      4  C   UNL     1      -0.160  -4.857   9.383  0.00  0.00    +0.024 A 
ATOM      5  C   UNL     1      -0.190  -3.482   9.522  0.00  0.00    +0.049 A 
ATOM      6  C   UNL     1      -0.111  -2.670   8.402  0.00  0.00    +0.142 A 
ATOM      7 CL   UNL     1      -0.020  -7.154   7.958  0.00  0.00    -0.083 Cl
ENDROOT
BRANCH   1  10
ATOM      8  C   UNL     1      -0.511  -2.822   4.846  0.00  0.00    +0.255 C 
ATOM      9  O   UNL     1      -1.020  -3.920   4.768  0.00  0.00    -0.272 OA
ATOM     10  N   UNL     1       0.062  -2.425   6.000  0.00  0.00    -0.280 N 
ATOM     11  H   UNL     1       0.526  -1.574   6.044  0.00  0.00    +0.155 HD
BRANCH   8  12
ATOM     12  C   UNL     1      -0.518  -1.901   3.653  0.00  0.00    +0.324 C 
BRANCH  12  13
ATOM     13  O   UNL     1      -1.177  -2.542   2.560  0.00  0.00    -0.482 OA
BRANCH  13  19
ATOM     14  C   UNL     1      -0.258   1.535   0.039  0.00  0.00    +0.044 C 
ATOM     15  C   UNL     1      -0.835   0.146   0.133  0.00  0.00    -0.047 A 
ATOM     16  C   UNL     1      -1.461  -0.417  -0.965  0.00  0.00    +0.004 A 
ATOM     17  C   UNL     1      -1.992  -1.691  -0.882  0.00  0.00    +0.007 A 
ATOM     18  C   UNL     1      -1.898  -2.405   0.297  0.00  0.00    -0.009 A 
ATOM     19  C   UNL     1      -1.271  -1.842   1.399  0.00  0.00    +0.124 A 
ATOM     20  C   UNL     1      -0.733  -0.566   1.312  0.00  0.00    +0.049 A 
ATOM     21  C   UNL     1      -2.478  -3.793   0.386  0.00  0.00    +0.047 C 
ENDBRANCH  13  19
ENDBRANCH  12  13
ENDBRANCH   8  12
ENDBRANCH   1  10
BRANCH   6  22
ATOM     22  O   UNL     1      -0.134  -1.317   8.539  0.00  0.00    -0.484 OA
BRANCH  22  23
ATOM     23  C   UNL     1      -0.236  -0.801   9.867  0.00  0.00    +0.284 C 
BRANCH  23  24
ATOM     24  C   UNL     1      -0.248   0.705   9.821  0.00  0.00    +0.088 A 
ATOM     25  C   UNL     1      -1.359   1.388  10.227  0.00  0.00    +0.099 A 
ATOM     26  C   UNL     1      -1.347   2.795  10.176  0.00  0.00    +0.275 A 
ATOM     27  O   UNL     1      -2.321   3.439  10.530  0.00  0.00    -0.266 OA
ATOM     28  N   UNL     1      -0.239   3.414   9.728  0.00  0.00    -0.180 N 
ATOM     29  C   UNL     1       0.848   2.684   9.333  0.00  0.00    +0.255 A 
ATOM     30  N   UNL     1       0.825   1.361   9.391  0.00  0.00    -0.212 NA
ATOM     31  N   UNL     1       1.800   3.552   8.937  0.00  0.00    -0.200 NA
ATOM     32  C   UNL     1       1.370   4.779   9.062  0.00  0.00    +0.220 A 
ATOM     33  N   UNL     1       0.102   4.762   9.552  0.00  0.00    -0.261 N 
BRANCH  33  34
ATOM     34  C   UNL     1      -0.742   5.925   9.839  0.00  0.00    +0.101 C 
ATOM     35  C   UNL     1      -2.015   5.852   8.993  0.00  0.00    +0.032 C 
ATOM     36  C   UNL     1      -1.116   5.929  11.323  0.00  0.00    +0.032 C 
ENDBRANCH  33  34
ENDBRANCH  23  24
ENDBRANCH  22  23
ENDBRANCH   6  22
TORSDOF 8
