REMARK  Name = ZINC15384881
REMARK  4 active torsions:
REMARK  status: ('A' for Active; 'I' for Inactive)
REMARK    1  A    between atoms: C_8  and  C_10
REMARK    2  A    between atoms: C_10  and  C_11
REMARK    3  A    between atoms: C_11  and  N_12
REMARK    4  A    between atoms: N_15  and  C_16
REMARK                            x       y       z     vdW  Elec       q    Type
REMARK                         _______ _______ _______ _____ _____    ______ ____
ROOT
ATOM      1  N   UNL     1      -2.351   4.302   0.037  0.00  0.00    -0.299 N 
ATOM      2  C   UNL     1      -2.369   5.650   0.044  0.00  0.00    +0.300 C 
ATOM      3  O   UNL     1      -1.324   6.272   0.042  0.00  0.00    -0.253 OA
ATOM      4  N   UNL     1      -3.545   6.308   0.053  0.00  0.00    -0.294 N 
ATOM      5  H   UNL     1      -3.184   3.806   0.038  0.00  0.00    +0.150 HD
ATOM      6  H   UNL     1      -4.379   5.811   0.054  0.00  0.00    +0.151 HD
ENDROOT
BRANCH   4   7
ATOM      7  C   UNL     1      -3.565   7.773   0.061  0.00  0.00    +0.037 C 
ATOM      8  C   UNL     1      -2.845   8.286   1.310  0.00  0.00    +0.029 C 
ATOM      9  C   UNL     1      -2.866   9.816   1.318  0.00  0.00    -0.008 C 
ATOM     10  C   UNL     1      -4.315  10.306   1.328  0.00  0.00    +0.007 C 
ATOM     11  C   UNL     1      -5.035   9.793   0.079  0.00  0.00    -0.008 C 
ATOM     12  C   UNL     1      -5.014   8.263   0.071  0.00  0.00    +0.029 C 
ATOM     13  C   UNL     1      -4.327  10.319  -1.171  0.00  0.00    +0.007 C 
ATOM     14  C   UNL     1      -2.878   9.829  -1.180  0.00  0.00    -0.008 C 
ATOM     15  C   UNL     1      -2.157  10.342   0.069  0.00  0.00    +0.007 C 
ATOM     16  C   UNL     1      -2.857   8.299  -1.189  0.00  0.00    +0.029 C 
ENDBRANCH   4   7
BRANCH   1  17
ATOM     17  C   UNL     1      -1.072   3.587   0.027  0.00  0.00    +0.115 C 
BRANCH  17  18
ATOM     18  C   UNL     1      -1.331   2.079   0.020  0.00  0.00    +0.114 C 
BRANCH  18  26
ATOM     19  C   UNL     1       1.341  -1.599   1.258  0.00  0.00    +0.123 C 
ATOM     20  C   UNL     1       1.270  -0.753  -0.014  0.00  0.00    +0.127 C 
ATOM     21  N   UNL     1       0.002  -0.004   0.002  0.00  0.00    -0.291 N 
ATOM     22  C   UNL     1      -1.243  -0.786   0.016  0.00  0.00    +0.203 C 
ATOM     23  C   UNL     1      -1.090  -1.936   0.969  0.00  0.00    +0.230 C 
ATOM     24  O   UNL     1      -2.081  -2.557   1.290  0.00  0.00    -0.274 OA
ATOM     25  N   UNL     1       0.085  -2.303   1.481  0.00  0.00    -0.313 N 
ATOM     26  C   UNL     1      -0.016   1.344   0.009  0.00  0.00    +0.218 C 
ATOM     27  O   UNL     1       1.026   1.964   0.003  0.00  0.00    -0.276 OA
ATOM     28  H   UNL     1       0.105  -3.094   2.042  0.00  0.00    +0.149 HD
ENDBRANCH  18  26
ENDBRANCH  17  18
ENDBRANCH   1  17
TORSDOF 4
