REMARK  Name = ZINC64427071
REMARK  13 active torsions:
REMARK  status: ('A' for Active; 'I' for Inactive)
REMARK    1  A    between atoms: C_1  and  O_2
REMARK    2  A    between atoms: O_2  and  C_3
REMARK    3  A    between atoms: C_5  and  C_10
REMARK    4  A    between atoms: C_8  and  O_9
REMARK    5  A    between atoms: C_18  and  O_42
REMARK    6  A    between atoms: N_21  and  C_22
REMARK    7  A    between atoms: C_22  and  C_23
REMARK    8  A    between atoms: N_25  and  C_26
REMARK    9  A    between atoms: C_26  and  C_28
REMARK   10  A    between atoms: C_26  and  C_38
REMARK   11  A    between atoms: C_28  and  C_29
REMARK   12  A    between atoms: C_38  and  O_40
REMARK   13  A    between atoms: O_40  and  C_41
REMARK                            x       y       z     vdW  Elec       q    Type
REMARK                         _______ _______ _______ _____ _____    ______ ____
ROOT
ATOM      1  C   UNL     1       2.403   0.379  -4.230  0.00  0.00    -0.031 C 
ATOM      2  C   UNL     1       1.447   0.446  -5.421  0.00  0.00    +0.011 C 
ATOM      3  C   UNL     1       0.118   1.072  -4.997  0.00  0.00    +0.005 C 
ATOM      4  C   UNL     1      -0.825   1.117  -6.202  0.00  0.00    +0.000 C 
ATOM      5  C   UNL     1      -0.195   1.950  -7.319  0.00  0.00    +0.003 C 
ATOM      6  C   UNL     1       1.143   1.331  -7.734  0.00  0.00    +0.035 C 
ATOM      7  C   UNL     1       2.077   1.302  -6.524  0.00  0.00    +0.066 C 
ATOM      8  C   UNL     1       3.425   0.695  -6.916  0.00  0.00    +0.016 C 
ATOM      9  C   UNL     1       4.315   0.610  -5.673  0.00  0.00    -0.075 C 
ATOM     10  N   UNL     1       3.671  -0.228  -4.655  0.00  0.00    +0.390 N 
ATOM     11  H   UNL     1       3.491  -1.143  -5.041  0.00  0.00    -0.080 HD
ENDROOT
BRANCH   1  14
ATOM     12  C   UNL     1       0.606  -0.608  -1.056  0.00  0.00    +0.161 A 
ATOM     13  C   UNL     1       1.173   0.159  -2.062  0.00  0.00    +0.051 A 
ATOM     14  C   UNL     1       1.787  -0.456  -3.137  0.00  0.00    -0.057 A 
ATOM     15  C   UNL     1       1.837  -1.836  -3.212  0.00  0.00    +0.006 A 
ATOM     16  C   UNL     1       1.273  -2.606  -2.212  0.00  0.00    +0.049 A 
ATOM     17  C   UNL     1       0.662  -1.996  -1.129  0.00  0.00    +0.158 A 
BRANCH  12  19
ATOM     18  C   UNL     1      -0.017   1.425   0.010  0.00  0.00    +0.277 C 
ATOM     19  O   UNL     1       0.002  -0.004   0.002  0.00  0.00    -0.491 OA
ENDBRANCH  12  19
BRANCH  17  20
ATOM     20  O   UNL     1       0.112  -2.753  -0.142  0.00  0.00    -0.503 OA
ATOM     21  H   UNL     1      -0.816  -2.979  -0.291  0.00  0.00    +0.292 HD
ENDBRANCH  17  20
ENDBRANCH   1  14
BRANCH   7  22
ATOM     22  O   UNL     1       2.275   2.632  -6.040  0.00  0.00    -0.388 OA
ATOM     23  H   UNL     1       2.671   3.231  -6.687  0.00  0.00    +0.210 HD
ENDBRANCH   7  22
BRANCH  10  24
ATOM     24  C   UNL     1       4.562  -0.358  -3.495  0.00  0.00    +0.019 C 
BRANCH  24  25
ATOM     25  C   UNL     1       5.814  -1.091  -3.902  0.00  0.00    +0.197 C 
ATOM     26  O   UNL     1       5.950  -1.468  -5.047  0.00  0.00    -0.278 OA
ATOM     27  N   UNL     1       6.782  -1.327  -2.995  0.00  0.00    -0.304 N 
ATOM     28  H   UNL     1       6.673  -1.025  -2.080  0.00  0.00    +0.149 HD
BRANCH  27  29
ATOM     29  C   UNL     1       7.999  -2.040  -3.392  0.00  0.00    +0.186 C 
BRANCH  29  30
ATOM     30  C   UNL     1       7.760  -3.526  -3.310  0.00  0.00    +0.328 C 
ATOM     31  O   UNL     1       6.684  -3.946  -2.957  0.00  0.00    -0.249 OA
BRANCH  30  32
ATOM     32  O   UNL     1       8.743  -4.382  -3.629  0.00  0.00    -0.467 OA
ATOM     33  C   UNL     1       8.447  -5.777  -3.529  0.00  0.00    +0.280 C 
ENDBRANCH  30  32
ENDBRANCH  29  30
BRANCH  29  34
ATOM     34  C   UNL     1       9.144  -1.655  -2.453  0.00  0.00    +0.067 C 
BRANCH  34  35
ATOM     35  C   UNL     1       9.465  -0.193  -2.624  0.00  0.00    -0.039 C 
ATOM     36  C   UNL     1       8.997   0.835  -1.880  0.00  0.00    -0.001 A 
ATOM     37  C   UNL     1       8.084   0.897  -0.733  0.00  0.00    +0.010 A 
ATOM     38  C   UNL     1       7.796   2.101  -0.188  0.00  0.00    +0.001 A 
ATOM     39  C   UNL     1       8.347   3.288  -0.690  0.00  0.00    +0.002 A 
ATOM     40  C   UNL     1       9.194   3.312  -1.741  0.00  0.00    +0.026 A 
ATOM     41  C   UNL     1       9.566   2.103  -2.392  0.00  0.00    +0.043 A 
ATOM     42  N   UNL     1      10.355   1.867  -3.412  0.00  0.00    -0.380 N 
ATOM     43  C   UNL     1      10.380   0.422  -3.660  0.00  0.00    +0.144 C 
ATOM     44  H   UNL     1      10.843   2.537  -3.916  0.00  0.00    +0.160 HD
ENDBRANCH  34  35
ENDBRANCH  29  34
ENDBRANCH  27  29
ENDBRANCH  24  25
ENDBRANCH  10  24
TORSDOF 11
