REMARK  Name = ZINC36862908
REMARK  5 active torsions:
REMARK  status: ('A' for Active; 'I' for Inactive)
REMARK    1  A    between atoms: C_1  and  C_2
REMARK    2  A    between atoms: C_7  and  N_10
REMARK    3  A    between atoms: C_11  and  C_13
REMARK    4  A    between atoms: C_15  and  N_19
REMARK    5  A    between atoms: N_17  and  C_18
REMARK                            x       y       z     vdW  Elec       q    Type
REMARK                         _______ _______ _______ _____ _____    ______ ____
ROOT
ATOM      1  N   UNL     1       1.213  -2.619  -0.061  0.00  0.00    -0.307 N 
ATOM      2  C   UNL     1       1.859  -3.802  -0.043  0.00  0.00    +0.261 C 
ATOM      3  O   UNL     1       1.872  -4.473   0.971  0.00  0.00    -0.269 OA
ATOM      4  H   UNL     1       1.270  -2.046  -0.841  0.00  0.00    +0.149 HD
ENDROOT
BRANCH   1  10
ATOM      5  C   UNL     1      -0.455   1.341  -0.137  0.00  0.00    +0.007 C 
ATOM      6  C   UNL     1      -0.355  -0.186  -0.159  0.00  0.00    -0.012 C 
ATOM      7  C   UNL     1      -1.759  -0.788  -0.252  0.00  0.00    +0.003 C 
ATOM      8  C   UNL     1      -1.659  -2.314  -0.274  0.00  0.00    +0.002 C 
ATOM      9  C   UNL     1      -0.980  -2.800   1.008  0.00  0.00    +0.022 C 
ATOM     10  C   UNL     1       0.424  -2.198   1.100  0.00  0.00    +0.074 C 
ATOM     11  C   UNL     1       0.324  -0.672   1.123  0.00  0.00    +0.025 C 
ENDBRANCH   1  10
BRANCH   2  12
ATOM     12  C   UNL     1       2.546  -4.279  -1.248  0.00  0.00    +0.106 A 
ATOM     13  C   UNL     1       2.691  -3.586  -2.432  0.00  0.00    +0.055 A 
ATOM     14  C   UNL     1       3.410  -4.411  -3.308  0.00  0.00    +0.043 A 
ATOM     15  C   UNL     1       3.686  -5.569  -2.654  0.00  0.00    +0.108 A 
ATOM     16  N   UNL     1       3.169  -5.497  -1.398  0.00  0.00    -0.344 N 
ATOM     17  C   UNL     1       3.258  -6.543  -0.376  0.00  0.00    +0.149 C 
BRANCH  14  18
ATOM     18  N   UNL     1       3.780  -4.095  -4.628  0.00  0.00    -0.357 N 
ATOM     19  H   UNL     1       3.535  -3.237  -5.009  0.00  0.00    +0.142 HD
ATOM     20  H   UNL     1       4.280  -4.736  -5.158  0.00  0.00    +0.142 HD
ENDBRANCH  14  18
ENDBRANCH   2  12
TORSDOF 3
