REMARK  Name = ZINC40087722
REMARK  5 active torsions:
REMARK  status: ('A' for Active; 'I' for Inactive)
REMARK    1  A    between atoms: C_1  and  C_2
REMARK    2  A    between atoms: C_3  and  C_16
REMARK    3  A    between atoms: C_4  and  C_15
REMARK    4  A    between atoms: N_5  and  C_7
REMARK    5  A    between atoms: N_18  and  C_19
REMARK                            x       y       z     vdW  Elec       q    Type
REMARK                         _______ _______ _______ _____ _____    ______ ____
ROOT
ATOM      1  C   UNL     1      -0.484   1.588  -0.092  0.00  0.00    +0.068 C 
ATOM      2  C   UNL     1      -0.175   0.115  -0.024  0.00  0.00    +0.073 A 
ATOM      3  C   UNL     1       0.020  -0.745  -1.129  0.00  0.00    +0.081 A 
ATOM      4  C   UNL     1       0.279  -2.004  -0.626  0.00  0.00    +0.054 A 
ATOM      5  N   UNL     1       0.243  -1.916   0.716  0.00  0.00    -0.233 N 
ATOM      6  N   UNL     1      -0.034  -0.590   1.065  0.00  0.00    -0.171 NA
ATOM      7  C   UNL     1       0.550  -3.249  -1.431  0.00  0.00    +0.066 C 
ENDROOT
BRANCH   5   8
ATOM      8  C   UNL     1       0.455  -2.973   1.613  0.00  0.00    +0.101 A 
ATOM      9  C   UNL     1       1.548  -3.813   1.452  0.00  0.00    +0.033 A 
ATOM     10  C   UNL     1       1.755  -4.853   2.337  0.00  0.00    +0.040 A 
ATOM     11  C   UNL     1       0.873  -5.061   3.384  0.00  0.00    +0.126 A 
ATOM     12  C   UNL     1      -0.219  -4.225   3.548  0.00  0.00    +0.078 A 
ATOM     13  C   UNL     1      -0.427  -3.178   2.668  0.00  0.00    +0.151 A 
ATOM     14  F   UNL     1      -1.489  -2.359   2.831  0.00  0.00    -0.203 F 
ATOM     15  F   UNL     1       1.078  -6.080   4.247  0.00  0.00    -0.205 F 
ENDBRANCH   5   8
BRANCH   3  16
ATOM     16  C   UNL     1      -0.043  -0.367  -2.553  0.00  0.00    +0.252 C 
ATOM     17  O   UNL     1       0.962   0.005  -3.127  0.00  0.00    -0.270 OA
ATOM     18  N   UNL     1      -1.214  -0.435  -3.217  0.00  0.00    -0.280 N 
ATOM     19  H   UNL     1      -2.029  -0.659  -2.742  0.00  0.00    +0.155 HD
BRANCH  18  20
ATOM     20  C   UNL     1      -1.253  -0.180  -4.593  0.00  0.00    +0.052 A 
ATOM     21  C   UNL     1      -0.172  -0.519  -5.405  0.00  0.00    +0.028 A 
ATOM     22  C   UNL     1      -0.255  -0.249  -6.759  0.00  0.00    +0.050 A 
ATOM     23  C   UNL     1      -1.406   0.346  -7.261  0.00  0.00    +0.156 A 
ATOM     24  N   UNL     1      -2.413   0.655  -6.462  0.00  0.00    -0.234 NA
ATOM     25  C   UNL     1      -2.372   0.407  -5.167  0.00  0.00    +0.136 A 
ATOM     26  N   UNL     1      -1.499   0.624  -8.630  0.00  0.00    -0.202 N 
ATOM     27  C   UNL     1      -2.537   1.199  -9.269  0.00  0.00    +0.226 A 
ATOM     28  N   UNL     1      -2.235   1.282 -10.539  0.00  0.00    -0.222 NA
ATOM     29  C   UNL     1      -1.021   0.774 -10.749  0.00  0.00    +0.245 A 
ATOM     30  N   UNL     1      -0.528   0.363  -9.610  0.00  0.00    -0.152 NA
ENDBRANCH  18  20
ENDBRANCH   3  16
TORSDOF 3
