REMARK  Name = ZINC66126049
REMARK  8 active torsions:
REMARK  status: ('A' for Active; 'I' for Inactive)
REMARK    1  A    between atoms: C_1  and  C_2
REMARK    2  A    between atoms: C_5  and  C_10
REMARK    3  A    between atoms: C_6  and  O_8
REMARK    4  A    between atoms: O_8  and  C_9
REMARK    5  A    between atoms: C_10  and  N_11
REMARK    6  A    between atoms: N_14  and  C_15
REMARK    7  A    between atoms: C_15  and  C_16
REMARK    8  A    between atoms: C_16  and  C_17
REMARK                            x       y       z     vdW  Elec       q    Type
REMARK                         _______ _______ _______ _____ _____    ______ ____
ROOT
ATOM      1  N   UNL     1      -1.293  -4.731   0.327  0.00  0.00    -0.295 N 
ATOM      2  C   UNL     1      -1.518  -6.057   0.416  0.00  0.00    +0.300 C 
ATOM      3  O   UNL     1      -0.598  -6.840   0.278  0.00  0.00    -0.253 OA
ATOM      4  N   UNL     1      -2.762  -6.515   0.658  0.00  0.00    -0.299 N 
ATOM      5  H   UNL     1      -2.027  -4.107   0.437  0.00  0.00    +0.151 HD
ATOM      6  H   UNL     1      -3.496  -5.891   0.768  0.00  0.00    +0.150 HD
ENDROOT
BRANCH   1   7
ATOM      7  C   UNL     1       0.059  -4.233   0.064  0.00  0.00    +0.146 C 
BRANCH   7  12
ATOM      8  C   UNL     1      -0.018   1.503   0.010  0.00  0.00    +0.066 C 
ATOM      9  C   UNL     1       0.002  -0.004   0.002  0.00  0.00    +0.042 A 
ATOM     10  C   UNL     1       0.005  -0.679  -1.203  0.00  0.00    +0.023 A 
ATOM     11  C   UNL     1       0.024  -2.067  -1.203  0.00  0.00    +0.012 A 
ATOM     12  C   UNL     1       0.039  -2.727   0.013  0.00  0.00    +0.031 A 
ATOM     13  C   UNL     1       0.035  -1.984   1.186  0.00  0.00    +0.219 A 
ATOM     14  N   UNL     1       0.022  -0.661   1.146  0.00  0.00    -0.218 NA
BRANCH  13  15
ATOM     15  O   UNL     1       0.049  -2.619   2.385  0.00  0.00    -0.479 OA
ATOM     16  C   UNL     1       0.043  -1.798   3.554  0.00  0.00    +0.279 C 
ENDBRANCH  13  15
ENDBRANCH   7  12
ENDBRANCH   1   7
BRANCH   4  17
ATOM     17  C   UNL     1      -3.006  -7.957   0.754  0.00  0.00    +0.113 C 
BRANCH  17  18
ATOM     18  C   UNL     1      -4.490  -8.205   1.032  0.00  0.00    +0.095 C 
BRANCH  18  19
ATOM     19  C   UNL     1      -4.741  -9.688   1.131  0.00  0.00    +0.139 A 
ATOM     20  N   UNL     1      -5.052 -10.487   0.144  0.00  0.00    -0.134 NA
ATOM     21  N   UNL     1      -5.197 -11.692   0.574  0.00  0.00    -0.129 NA
ATOM     22  C   UNL     1      -4.982 -11.723   1.879  0.00  0.00    +0.161 A 
ATOM     23  N   UNL     1      -4.680 -10.440   2.263  0.00  0.00    -0.286 N 
ATOM     24  C   UNL     1      -4.401 -10.157   3.568  0.00  0.00    +0.094 A 
ATOM     25  C   UNL     1      -4.415 -11.134   4.499  0.00  0.00    +0.018 A 
ATOM     26  C   UNL     1      -4.718 -12.457   4.136  0.00  0.00    +0.005 A 
ATOM     27  C   UNL     1      -5.005 -12.752   2.840  0.00  0.00    +0.048 A 
ENDBRANCH  18  19
ENDBRANCH  17  18
ENDBRANCH   4  17
TORSDOF 6
