REMARK  Name = ZINC37291332
REMARK  5 active torsions:
REMARK  status: ('A' for Active; 'I' for Inactive)
REMARK    1  A    between atoms: C_1  and  C_2
REMARK    2  A    between atoms: C_5  and  N_9
REMARK    3  A    between atoms: C_10  and  N_20
REMARK    4  A    between atoms: C_12  and  C_14
REMARK    5  A    between atoms: C_18  and  C_19
REMARK                            x       y       z     vdW  Elec       q    Type
REMARK                         _______ _______ _______ _____ _____    ______ ____
ROOT
ATOM      1  N   UNL     1       0.059  -4.172  -0.022  0.00  0.00    -0.218 N 
ATOM      2  C   UNL     1       0.701  -4.970   0.875  0.00  0.00    +0.120 A 
ATOM      3  C   UNL     1       0.472  -6.261   0.517  0.00  0.00    +0.073 A 
ATOM      4  C   UNL     1      -0.336  -6.251  -0.635  0.00  0.00    +0.098 A 
ATOM      5  N   UNL     1      -0.586  -4.998  -0.952  0.00  0.00    -0.165 NA
ENDROOT
BRANCH   1  10
ATOM      6  C   UNL     1      -0.018   1.503   0.010  0.00  0.00    +0.045 C 
ATOM      7  C   UNL     1       0.002  -0.004   0.002  0.00  0.00    -0.032 A 
ATOM      8  C   UNL     1       0.006  -0.688  -1.200  0.00  0.00    +0.007 A 
ATOM      9  C   UNL     1       0.025  -2.068  -1.211  0.00  0.00    +0.028 A 
ATOM     10  C   UNL     1       0.040  -2.771  -0.013  0.00  0.00    +0.069 A 
ATOM     11  C   UNL     1       0.037  -2.083   1.192  0.00  0.00    +0.048 A 
ATOM     12  C   UNL     1       0.023  -0.701   1.197  0.00  0.00    +0.046 A 
ATOM     13 CL   UNL     1       0.025   0.161   2.704  0.00  0.00    -0.083 Cl
ENDBRANCH   1  10
BRANCH   4  14
ATOM     14  C   UNL     1      -0.827  -7.448  -1.364  0.00  0.00    +0.043 A 
ATOM     15  C   UNL     1      -0.575  -8.853  -1.029  0.00  0.00    +0.051 A 
ATOM     16  C   UNL     1      -1.215  -9.578  -1.963  0.00  0.00    +0.196 A 
ATOM     17  O   UNL     1      -1.823  -8.745  -2.821  0.00  0.00    -0.467 OA
ATOM     18  C   UNL     1      -1.606  -7.467  -2.476  0.00  0.00    +0.111 A 
ATOM     19  C   UNL     1      -2.135  -6.257  -3.202  0.00  0.00    +0.087 C 
ENDBRANCH   4  14
BRANCH   2  20
ATOM     20  N   UNL     1       1.456  -4.540   1.962  0.00  0.00    -0.343 N 
ATOM     21  H   UNL     1       1.562  -3.592   2.136  0.00  0.00    +0.144 HD
ATOM     22  H   UNL     1       1.878  -5.190   2.547  0.00  0.00    +0.144 HD
ENDBRANCH   2  20
TORSDOF 3
