REMARK  Name = ZINC13031153
REMARK  12 active torsions:
REMARK  status: ('A' for Active; 'I' for Inactive)
REMARK    1  A    between atoms: C_1  and  C_2
REMARK    2  A    between atoms: C_2  and  O_3
REMARK    3  A    between atoms: O_3  and  C_4
REMARK    4  A    between atoms: C_7  and  N_16
REMARK    5  A    between atoms: C_9  and  S_10
REMARK    6  A    between atoms: S_10  and  N_13
REMARK    7  A    between atoms: N_13  and  C_14
REMARK    8  A    between atoms: N_13  and  C_15
REMARK    9  A    between atoms: N_16  and  S_17
REMARK   10  A    between atoms: S_17  and  C_20
REMARK   11  A    between atoms: C_23  and  C_26
REMARK   12  A    between atoms: C_27  and  C_28
REMARK                            x       y       z     vdW  Elec       q    Type
REMARK                         _______ _______ _______ _____ _____    ______ ____
ROOT
ATOM      1  N   UNL     1       3.089   4.194  -1.528  0.00  0.00    -0.216 N 
ATOM      2  H   UNL     1       3.159   3.231  -1.620  0.00  0.00    +0.174 HD
ENDROOT
BRANCH   1   6
ATOM      3  C   UNL     1       0.755   6.377  -4.205  0.00  0.00    +0.147 A 
ATOM      4  C   UNL     1       0.147   5.604  -3.226  0.00  0.00    +0.049 A 
ATOM      5  C   UNL     1       0.920   4.876  -2.342  0.00  0.00    +0.028 A 
ATOM      6  C   UNL     1       2.305   4.927  -2.427  0.00  0.00    +0.050 A 
ATOM      7  C   UNL     1       2.912   5.701  -3.407  0.00  0.00    +0.056 A 
ATOM      8  C   UNL     1       2.138   6.424  -4.293  0.00  0.00    +0.149 A 
BRANCH   8   9
ATOM      9  S   UNL     1       2.908   7.407  -5.536  0.00  0.00    +0.064 S 
ATOM     10  O   UNL     1       2.293   8.687  -5.481  0.00  0.00    -0.153 OA
ATOM     11  O   UNL     1       4.309   7.228  -5.385  0.00  0.00    -0.153 OA
BRANCH   9  12
ATOM     12  N   UNL     1       2.502   6.750  -7.001  0.00  0.00    -0.183 NA
ATOM     13  C   UNL     1       1.295   7.203  -7.698  0.00  0.00    +0.131 C 
ATOM     14  C   UNL     1       3.349   5.716  -7.601  0.00  0.00    +0.131 C 
ENDBRANCH   9  12
ENDBRANCH   8   9
BRANCH   3  15
ATOM     15  O   UNL     1      -0.007   7.089  -5.078  0.00  0.00    -0.490 OA
BRANCH  15  17
ATOM     16  C   UNL     1      -2.108   7.857  -5.992  0.00  0.00    +0.048 C 
ATOM     17  C   UNL     1      -1.425   6.994  -4.929  0.00  0.00    +0.226 C 
ENDBRANCH  15  17
ENDBRANCH   3  15
ENDBRANCH   1   6
BRANCH   1  18
ATOM     18  S   UNL     1       3.895   4.971  -0.308  0.00  0.00    +0.072 S 
ATOM     19  O   UNL     1       4.609   6.042  -0.911  0.00  0.00    -0.150 OA
ATOM     20  O   UNL     1       4.539   3.963   0.459  0.00  0.00    -0.150 OA
BRANCH  18  21
ATOM     21  C   UNL     1       2.680   5.702   0.737  0.00  0.00    +0.109 A 
ATOM     22  C   UNL     1       2.091   4.949   1.738  0.00  0.00    +0.029 A 
ATOM     23  C   UNL     1       1.138   5.513   2.560  0.00  0.00    +0.010 A 
ATOM     24  C   UNL     1       0.764   6.848   2.377  0.00  0.00    -0.025 A 
ATOM     25  C   UNL     1       1.368   7.604   1.367  0.00  0.00    +0.010 A 
ATOM     26  C   UNL     1       2.319   7.025   0.553  0.00  0.00    +0.029 A 
BRANCH  24  27
ATOM     27  C   UNL     1      -0.256   7.456   3.246  0.00  0.00    +0.015 C 
ATOM     28  C   UNL     1      -0.614   8.745   3.067  0.00  0.00    +0.096 C 
BRANCH  28  29
ATOM     29  C   UNL     1      -1.628   9.349   3.930  0.00  0.00    +0.380 C 
ATOM     30  O   UNL     1      -2.148   8.690   4.811  0.00  0.00    -0.241 OA
ATOM     31  O   UNL     1      -1.986  10.637   3.751  0.00  0.00    -0.241 OA
ENDBRANCH  28  29
ENDBRANCH  24  27
ENDBRANCH  18  21
ENDBRANCH   1  18
TORSDOF 9
