REMARK  Name = ZINC66080995
REMARK  3 active torsions:
REMARK  status: ('A' for Active; 'I' for Inactive)
REMARK    1  A    between atoms: N_10  and  C_14
REMARK    2  A    between atoms: C_14  and  N_15
REMARK    3  A    between atoms: C_18  and  N_21
REMARK                            x       y       z     vdW  Elec       q    Type
REMARK                         _______ _______ _______ _____ _____    ______ ____
ROOT
ATOM      1  C   UNL     1      -0.018   1.452   0.010  0.00  0.00    +0.000 C 
ATOM      2  C   UNL     1       1.397   2.063  -0.000  0.00  0.00    +0.000 C 
ATOM      3  C   UNL     1       1.944   2.026   1.402  0.00  0.00    +0.003 C 
ATOM      4  C   UNL     1       2.797   0.771   1.664  0.00  0.00    +0.035 C 
ATOM      5  C   UNL     1       2.182  -0.505   1.058  0.00  0.00    +0.113 C 
ATOM      6  C   UNL     1       0.693  -0.588   1.253  0.00  0.00    +0.035 C 
ATOM      7  C   UNL     1       0.002  -0.004   0.002  0.00  0.00    +0.003 C 
ATOM      8  C   UNL     1       2.535  -0.565  -0.415  0.00  0.00    +0.248 C 
ATOM      9  O   UNL     1       2.194   0.210  -1.282  0.00  0.00    -0.273 OA
ATOM     10  N   UNL     1       3.307  -1.660  -0.558  0.00  0.00    -0.211 N 
ATOM     11  C   UNL     1       3.489  -2.292   0.607  0.00  0.00    +0.310 C 
ATOM     12  O   UNL     1       4.149  -3.305   0.731  0.00  0.00    -0.252 OA
ATOM     13  N   UNL     1       2.858  -1.681   1.627  0.00  0.00    -0.285 N 
ATOM     14  H   UNL     1       2.850  -1.962   2.556  0.00  0.00    +0.151 HD
ENDROOT
BRANCH  10  15
ATOM     15  C   UNL     1       3.877  -2.104  -1.833  0.00  0.00    +0.205 C 
BRANCH  15  16
ATOM     16  N   UNL     1       5.197  -1.487  -2.020  0.00  0.00    -0.288 NA
ATOM     17  C   UNL     1       5.071  -0.133  -2.599  0.00  0.00    +0.084 C 
ATOM     18  C   UNL     1       6.320   0.030  -3.501  0.00  0.00    +0.001 C 
ATOM     19  C   UNL     1       6.471  -1.399  -4.087  0.00  0.00    -0.053 C 
ATOM     20  C   UNL     1       6.039  -2.303  -2.914  0.00  0.00    +0.071 C 
BRANCH  19  21
ATOM     21  N   UNL     1       7.867  -1.661  -4.462  0.00  0.00    +0.382 N 
ATOM     22  C   UNL     1       8.283  -0.716  -5.521  0.00  0.00    -0.078 C 
ATOM     23  C   UNL     1       9.221  -1.539  -6.439  0.00  0.00    -0.020 C 
ATOM     24  C   UNL     1       8.533  -2.929  -6.425  0.00  0.00    -0.020 C 
ATOM     25  C   UNL     1       7.991  -3.034  -4.983  0.00  0.00    -0.078 C 
ATOM     26  H   UNL     1       8.463  -1.548  -3.656  0.00  0.00    -0.081 HD
ENDBRANCH  19  21
ENDBRANCH  15  16
ENDBRANCH  10  15
TORSDOF 3
