REMARK  Name = ZINC05273134
REMARK  4 active torsions:
REMARK  status: ('A' for Active; 'I' for Inactive)
REMARK    1  A    between atoms: C_1  and  C_2
REMARK    2  A    between atoms: C_3  and  C_7
REMARK    3  A    between atoms: N_9  and  N_10
REMARK    4  A    between atoms: C_11  and  C_13
REMARK                            x       y       z     vdW  Elec       q    Type
REMARK                         _______ _______ _______ _____ _____    ______ ____
ROOT
ATOM      1  N   UNL     1      -0.863   3.334   1.472  0.00  0.00    -0.234 N 
ATOM      2  C   UNL     1      -0.724   2.012   1.250  0.00  0.00    +0.235 C 
ATOM      3  O   UNL     1      -1.167   1.213   2.049  0.00  0.00    -0.274 OA
ATOM      4  H   UNL     1      -0.509   3.973   0.834  0.00  0.00    +0.173 HD
ENDROOT
BRANCH   2   5
ATOM      5  C   UNL     1      -0.019   1.526   0.010  0.00  0.00    +0.049 C 
ATOM      6  C   UNL     1       1.417   2.055  -0.000  0.00  0.00    +0.019 C 
ATOM      7  C   UNL     1       2.133   1.562  -1.259  0.00  0.00    -0.009 C 
ATOM      8  C   UNL     1       2.154   0.032  -1.268  0.00  0.00    +0.007 C 
ATOM      9  C   UNL     1       0.718  -0.497  -1.257  0.00  0.00    -0.009 C 
ATOM     10  C   UNL     1       0.002  -0.004   0.002  0.00  0.00    +0.019 C 
ATOM     11  C   UNL     1      -0.022   0.009  -2.496  0.00  0.00    +0.007 C 
ATOM     12  C   UNL     1      -0.043   1.539  -2.488  0.00  0.00    -0.009 C 
ATOM     13  C   UNL     1       1.393   2.069  -2.499  0.00  0.00    +0.007 C 
ATOM     14  C   UNL     1      -0.759   2.033  -1.229  0.00  0.00    +0.019 C 
ENDBRANCH   2   5
BRANCH   1  17
ATOM     15  C   UNL     1      -1.658   5.108   2.846  0.00  0.00    +0.263 C 
ATOM     16  O   UNL     1      -1.214   5.909   2.046  0.00  0.00    -0.269 OA
ATOM     17  N   UNL     1      -1.519   3.786   2.625  0.00  0.00    -0.230 N 
ATOM     18  H   UNL     1      -1.873   3.147   3.263  0.00  0.00    +0.173 HD
BRANCH  15  21
ATOM     19  C   UNL     1      -2.146   8.100   3.654  0.00  0.00    +0.087 C 
ATOM     20  C   UNL     1      -2.570   6.878   4.428  0.00  0.00    +0.114 A 
ATOM     21  C   UNL     1      -2.348   5.583   4.059  0.00  0.00    +0.079 A 
ATOM     22  C   UNL     1      -2.946   4.761   5.121  0.00  0.00    +0.054 A 
ATOM     23  C   UNL     1      -3.453   5.625   6.014  0.00  0.00    +0.196 A 
ATOM     24  O   UNL     1      -3.227   6.878   5.591  0.00  0.00    -0.467 OA
ENDBRANCH  15  21
ENDBRANCH   1  17
TORSDOF 3
