REMARK  Name = ZINC57351896
REMARK  5 active torsions:
REMARK  status: ('A' for Active; 'I' for Inactive)
REMARK    1  A    between atoms: C_1  and  C_2
REMARK    2  A    between atoms: C_2  and  N_3
REMARK    3  A    between atoms: C_14  and  N_16
REMARK    4  A    between atoms: C_17  and  C_19
REMARK    5  A    between atoms: C_19  and  C_20
REMARK                            x       y       z     vdW  Elec       q    Type
REMARK                         _______ _______ _______ _____ _____    ______ ____
ROOT
ATOM      1  N   UNL     1      -1.357  -0.568   0.017  0.00  0.00    -0.340 N 
ATOM      2  C   UNL     1      -2.015  -1.027   1.144  0.00  0.00    +0.050 A 
ATOM      3  C   UNL     1      -1.672  -1.030   2.493  0.00  0.00    +0.026 A 
ATOM      4  C   UNL     1      -2.537  -1.565   3.423  0.00  0.00    +0.002 A 
ATOM      5  C   UNL     1      -3.752  -2.105   3.029  0.00  0.00    +0.001 A 
ATOM      6  C   UNL     1      -4.109  -2.111   1.698  0.00  0.00    +0.010 A 
ATOM      7  C   UNL     1      -3.245  -1.573   0.747  0.00  0.00    +0.008 A 
ATOM      8  C   UNL     1      -3.316  -1.424  -0.719  0.00  0.00    +0.009 A 
ATOM      9  C   UNL     1      -2.127  -0.793  -1.113  0.00  0.00    +0.050 A 
ATOM     10  C   UNL     1      -1.915  -0.514  -2.460  0.00  0.00    +0.028 A 
ATOM     11  C   UNL     1      -2.869  -0.854  -3.394  0.00  0.00    +0.025 A 
ATOM     12  C   UNL     1      -4.051  -1.476  -3.004  0.00  0.00    +0.034 A 
ATOM     13  C   UNL     1      -4.273  -1.768  -1.669  0.00  0.00    +0.034 A 
ENDROOT
BRANCH  12  14
ATOM     14  N   UNL     1      -5.013  -1.815  -3.965  0.00  0.00    -0.285 N 
ATOM     15  C   UNL     1      -6.323  -1.774  -3.650  0.00  0.00    +0.221 C 
ATOM     16  O   UNL     1      -6.674  -1.353  -2.568  0.00  0.00    -0.275 OA
ATOM     17  H   UNL     1      -4.737  -2.080  -4.856  0.00  0.00    +0.155 HD
BRANCH  15  18
ATOM     18  C   UNL     1      -7.352  -2.252  -4.642  0.00  0.00    +0.145 C 
BRANCH  18  19
ATOM     19  C   UNL     1      -8.750  -2.099  -4.040  0.00  0.00    +0.216 C 
ATOM     20  C   UNL     1      -9.795  -2.472  -5.061  0.00  0.00    +0.007 A 
ATOM     21  C   UNL     1     -10.127  -1.978  -6.301  0.00  0.00    +0.008 A 
ATOM     22  C   UNL     1     -11.166  -2.550  -7.017  0.00  0.00    +0.000 A 
ATOM     23  C   UNL     1     -11.872  -3.617  -6.489  0.00  0.00    +0.001 A 
ATOM     24  C   UNL     1     -11.547  -4.120  -5.246  0.00  0.00    +0.015 A 
ATOM     25  C   UNL     1     -10.501  -3.550  -4.520  0.00  0.00    +0.066 A 
ATOM     26  C   UNL     1      -9.919  -3.846  -3.198  0.00  0.00    +0.340 C 
ATOM     27  O   UNL     1     -10.297  -4.727  -2.452  0.00  0.00    -0.245 OA
ATOM     28  O   UNL     1      -8.910  -2.997  -2.939  0.00  0.00    -0.453 OA
ENDBRANCH  18  19
ENDBRANCH  15  18
ENDBRANCH  12  14
BRANCH   1  30
ATOM     29  C   UNL     1      -0.205   1.583   0.188  0.00  0.00    +0.027 C 
ATOM     30  C   UNL     1      -0.039   0.072   0.019  0.00  0.00    +0.119 C 
ENDBRANCH   1  30
TORSDOF 4
