REMARK  Name = ZINC62425608
REMARK  5 active torsions:
REMARK  status: ('A' for Active; 'I' for Inactive)
REMARK    1  A    between atoms: C_1  and  C_2
REMARK    2  A    between atoms: C_2  and  C_3
REMARK    3  A    between atoms: C_2  and  S_4
REMARK    4  A    between atoms: S_4  and  C_7
REMARK    5  A    between atoms: C_8  and  N_17
REMARK                            x       y       z     vdW  Elec       q    Type
REMARK                         _______ _______ _______ _____ _____    ______ ____
ROOT
ATOM      1  C   UNL     1      -2.433   0.018  -1.449  0.00  0.00    +0.239 A 
ATOM      2  C   UNL     1      -3.083   1.207  -1.547  0.00  0.00    +0.168 A 
ATOM      3  N   UNL     1      -3.492   1.323  -2.845  0.00  0.00    -0.173 N 
ATOM      4  N   UNL     1      -3.057   0.161  -3.499  0.00  0.00    -0.055 NA
ATOM      5  N   UNL     1      -2.436  -0.574  -2.644  0.00  0.00    -0.108 NA
ATOM      6  C   UNL     1      -4.200   2.384  -3.408  0.00  0.00    +0.197 A 
ATOM      7  N   UNL     1      -4.617   3.487  -2.827  0.00  0.00    -0.229 NA
ATOM      8  C   UNL     1      -5.281   4.406  -3.502  0.00  0.00    +0.121 A 
ATOM      9  C   UNL     1      -5.511   4.159  -4.816  0.00  0.00    +0.068 A 
ATOM     10  S   UNL     1      -4.721   2.567  -4.998  0.00  0.00    -0.056 S 
ENDROOT
BRANCH   1  11
ATOM     11  S   UNL     1      -1.700  -0.632   0.015  0.00  0.00    +0.021 S 
ATOM     12  O   UNL     1      -1.703  -2.041  -0.172  0.00  0.00    -0.167 OA
ATOM     13  O   UNL     1      -2.431  -0.041   1.080  0.00  0.00    -0.167 OA
BRANCH  11  15
ATOM     14  C   UNL     1      -0.019   1.526   0.010  0.00  0.00    +0.032 C 
ATOM     15  C   UNL     1       0.002  -0.004   0.002  0.00  0.00    +0.132 C 
ATOM     16  C   UNL     1       0.742  -0.511   1.242  0.00  0.00    +0.032 C 
ENDBRANCH  11  15
ENDBRANCH   1  11
BRANCH   2  17
ATOM     17  N   UNL     1      -3.293   2.127  -0.523  0.00  0.00    -0.340 N 
ATOM     18  H   UNL     1      -2.960   1.944   0.369  0.00  0.00    +0.144 HD
ATOM     19  H   UNL     1      -3.774   2.951  -0.702  0.00  0.00    +0.144 HD
ENDBRANCH   2  17
TORSDOF 3
