REMARK  Name = ZINC39710401
REMARK  11 active torsions:
REMARK  status: ('A' for Active; 'I' for Inactive)
REMARK    1  A    between atoms: C_1  and  C_2
REMARK    2  A    between atoms: C_2  and  C_3
REMARK    3  A    between atoms: C_10  and  C_15
REMARK    4  A    between atoms: C_15  and  C_17
REMARK    5  A    between atoms: C_15  and  N_27
REMARK    6  A    between atoms: N_22  and  C_23
REMARK    7  A    between atoms: C_23  and  C_24
REMARK    8  A    between atoms: C_23  and  C_25
REMARK    9  A    between atoms: C_23  and  C_26
REMARK   10  A    between atoms: N_30  and  C_33
REMARK   11  A    between atoms: C_36  and  N_39
REMARK                            x       y       z     vdW  Elec       q    Type
REMARK                         _______ _______ _______ _____ _____    ______ ____
ROOT
ATOM      1  C   UNL     1      -6.431  -1.026  -2.945  0.00  0.00    -0.009 C 
ENDROOT
BRANCH   1   9
ATOM      2  C   UNL     1      -3.458  -5.738  -4.677  0.00  0.00    -0.047 A 
ATOM      3  C   UNL     1      -2.234  -5.110  -4.448  0.00  0.00    +0.005 A 
ATOM      4  C   UNL     1      -2.127  -3.942  -3.762  0.00  0.00    +0.024 A 
ATOM      5  C   UNL     1      -3.272  -3.309  -3.245  0.00  0.00    +0.040 A 
ATOM      6  N   UNL     1      -3.155  -2.164  -2.574  0.00  0.00    -0.285 N 
ATOM      7  C   UNL     1      -4.189  -1.518  -2.062  0.00  0.00    +0.223 C 
ATOM      8  O   UNL     1      -4.020  -0.475  -1.459  0.00  0.00    -0.275 OA
ATOM      9  C   UNL     1      -5.583  -2.080  -2.230  0.00  0.00    +0.088 C 
ATOM     10  C   UNL     1      -5.722  -3.382  -2.994  0.00  0.00    -0.006 C 
ATOM     11  C   UNL     1      -4.579  -3.951  -3.472  0.00  0.00    -0.007 A 
ATOM     12  C   UNL     1      -4.623  -5.206  -4.224  0.00  0.00    +0.013 A 
ATOM     13  H   UNL     1      -2.270  -1.787  -2.455  0.00  0.00    +0.155 HD
BRANCH   2  15
ATOM     14  C   UNL     1      -3.642  -6.732  -6.942  0.00  0.00    +0.009 C 
ATOM     15  C   UNL     1      -3.490  -7.032  -5.449  0.00  0.00    +0.032 C 
ENDBRANCH   2  15
ENDBRANCH   1   9
BRANCH   1  16
ATOM     16  N   UNL     1      -7.808  -1.518  -3.085  0.00  0.00    +0.387 N 
ATOM     17  C   UNL     1      -8.600  -0.542  -3.846  0.00  0.00    -0.059 C 
ATOM     18  C   UNL     1     -10.003  -1.106  -4.092  0.00  0.00    +0.086 C 
ATOM     19  N   UNL     1     -10.588  -1.483  -2.796  0.00  0.00    -0.333 N 
ATOM     20  C   UNL     1      -9.790  -2.329  -1.895  0.00  0.00    +0.086 C 
ATOM     21  C   UNL     1      -8.396  -1.709  -1.753  0.00  0.00    -0.059 C 
ATOM     22  H   UNL     1      -7.801  -2.398  -3.577  0.00  0.00    -0.081 HD
BRANCH  19  23
ATOM     23  C   UNL     1     -11.865  -1.050  -2.431  0.00  0.00    +0.030 A 
ATOM     24  C   UNL     1     -12.553  -0.154  -3.238  0.00  0.00    +0.025 A 
ATOM     25  C   UNL     1     -13.816   0.271  -2.875  0.00  0.00    +0.034 A 
ATOM     26  C   UNL     1     -14.395  -0.194  -1.708  0.00  0.00    +0.126 A 
ATOM     27  C   UNL     1     -13.711  -1.086  -0.901  0.00  0.00    +0.034 A 
ATOM     28  C   UNL     1     -12.451  -1.519  -1.262  0.00  0.00    +0.025 A 
BRANCH  26  29
ATOM     29  N   UNL     1     -15.748   0.265  -1.321  0.00  0.00    +0.056 N 
ATOM     30  O   UNL     1     -16.346   1.045  -2.025  0.00  0.00    -0.126 OA
ATOM     31  O   UNL     1     -16.255  -0.141  -0.301  0.00  0.00    -0.126 OA
ENDBRANCH  26  29
ENDBRANCH  19  23
ENDBRANCH   1  16
BRANCH   1  32
ATOM     32  C   UNL     1      -5.844  -0.751  -4.330  0.00  0.00    +0.205 C 
ATOM     33  N   UNL     1      -5.744  -1.998  -5.101  0.00  0.00    -0.152 NA
ATOM     34  N   UNL     1      -4.560  -2.205  -5.374  0.00  0.00    -0.070 NA
ATOM     35  N   UNL     1      -3.709  -1.217  -4.879  0.00  0.00    -0.179 N 
ATOM     36  N   UNL     1      -4.450  -0.272  -4.214  0.00  0.00    -0.183 NA
ATOM     37  H   UNL     1      -2.745  -1.200  -4.988  0.00  0.00    +0.191 HD
BRANCH  36  38
ATOM     38  C   UNL     1      -4.296   1.052  -4.832  0.00  0.00    +0.035 C 
ATOM     39  C   UNL     1      -5.218   2.052  -4.132  0.00  0.00    +0.029 C 
ATOM     40  C   UNL     1      -2.844   1.514  -4.692  0.00  0.00    +0.029 C 
ATOM     41  C   UNL     1      -4.665   0.969  -6.314  0.00  0.00    +0.029 C 
ENDBRANCH  36  38
ENDBRANCH   1  32
TORSDOF 7
