REMARK  Name = ZINC67246344
REMARK  4 active torsions:
REMARK  status: ('A' for Active; 'I' for Inactive)
REMARK    1  A    between atoms: C_4  and  O_22
REMARK    2  A    between atoms: C_5  and  N_7
REMARK    3  A    between atoms: C_8  and  C_10
REMARK    4  A    between atoms: O_22  and  C_23
REMARK                            x       y       z     vdW  Elec       q    Type
REMARK                         _______ _______ _______ _____ _____    ______ ____
ROOT
ATOM      1  N   UNL     1       1.234  -2.082  -0.022  0.00  0.00    -0.282 N 
ATOM      2  C   UNL     1       0.083  -2.774   0.087  0.00  0.00    +0.220 C 
ATOM      3  O   UNL     1      -0.978  -2.188   0.102  0.00  0.00    -0.275 OA
ATOM      4  H   UNL     1       2.077  -2.553  -0.115  0.00  0.00    +0.155 HD
ENDROOT
BRANCH   2   5
ATOM      5  C   UNL     1       0.115  -4.277   0.192  0.00  0.00    +0.075 C 
ATOM      6  C   UNL     1       0.914  -4.686   1.431  0.00  0.00    +0.015 C 
ATOM      7  C   UNL     1       0.954  -6.213   1.530  0.00  0.00    +0.036 C 
ATOM      8  C   UNL     1      -0.468  -6.756   1.619  0.00  0.00    +0.112 C 
ATOM      9  C   UNL     1      -1.282  -6.338   0.400  0.00  0.00    +0.036 C 
ATOM     10  C   UNL     1      -1.315  -4.811   0.304  0.00  0.00    +0.015 C 
ATOM     11  C   UNL     1      -0.451  -8.261   1.753  0.00  0.00    +0.244 C 
ATOM     12  O   UNL     1      -0.005  -9.063   0.960  0.00  0.00    -0.273 OA
ATOM     13  N   UNL     1      -1.036  -8.524   2.939  0.00  0.00    -0.238 N 
ATOM     14  C   UNL     1      -1.414  -7.401   3.562  0.00  0.00    +0.307 C 
ATOM     15  O   UNL     1      -1.964  -7.382   4.646  0.00  0.00    -0.252 OA
ATOM     16  N   UNL     1      -1.117  -6.295   2.853  0.00  0.00    -0.285 N 
ATOM     17  H   UNL     1      -1.167  -9.416   3.297  0.00  0.00    +0.159 HD
ATOM     18  H   UNL     1      -1.297  -5.377   3.107  0.00  0.00    +0.151 HD
ENDBRANCH   2   5
BRANCH   1  23
ATOM     19  C   UNL     1       0.153   1.372   0.637  0.00  0.00    +0.002 A 
ATOM     20  C   UNL     1       1.172   2.088   0.036  0.00  0.00    +0.004 A 
ATOM     21  C   UNL     1       2.214   1.426  -0.585  0.00  0.00    +0.048 A 
ATOM     22  C   UNL     1       2.240   0.041  -0.608  0.00  0.00    +0.151 A 
ATOM     23  C   UNL     1       1.214  -0.681  -0.002  0.00  0.00    +0.076 A 
ATOM     24  C   UNL     1       0.172  -0.009   0.620  0.00  0.00    +0.027 A 
BRANCH  22  25
ATOM     25  O   UNL     1       3.264  -0.612  -1.220  0.00  0.00    -0.404 OA
BRANCH  25  26
ATOM     26  C   UNL     1       4.280   0.194  -1.820  0.00  0.00    +0.575 C 
ATOM     27  F   UNL     1       4.877   0.996  -0.842  0.00  0.00    -0.133 F 
ATOM     28  F   UNL     1       5.249  -0.633  -2.399  0.00  0.00    -0.133 F 
ATOM     29  F   UNL     1       3.710   1.006  -2.805  0.00  0.00    -0.133 F 
ENDBRANCH  25  26
ENDBRANCH  22  25
ENDBRANCH   1  23
TORSDOF 4
