REMARK  Name = ZINC20891457
REMARK  8 active torsions:
REMARK  status: ('A' for Active; 'I' for Inactive)
REMARK    1  A    between atoms: C_1  and  C_2
REMARK    2  A    between atoms: C_5  and  C_29
REMARK    3  A    between atoms: C_6  and  O_8
REMARK    4  A    between atoms: O_8  and  C_9
REMARK    5  A    between atoms: C_9  and  C_10
REMARK    6  A    between atoms: C_13  and  S_15
REMARK    7  A    between atoms: S_15  and  C_16
REMARK    8  A    between atoms: C_16  and  C_17
REMARK                            x       y       z     vdW  Elec       q    Type
REMARK                         _______ _______ _______ _____ _____    ______ ____
ROOT
ATOM      1  C   UNL     1      -3.556  -0.875   0.033  0.00  0.00    +0.255 A 
ATOM      2  N   UNL     1      -4.144  -1.362   1.085  0.00  0.00    -0.108 NA
ATOM      3  N   UNL     1      -5.118  -2.121   0.723  0.00  0.00    -0.101 NA
ATOM      4  C   UNL     1      -5.179  -2.152  -0.587  0.00  0.00    +0.278 A 
ATOM      5  O   UNL     1      -4.191  -1.363  -1.051  0.00  0.00    -0.412 OA
ENDROOT
BRANCH   1   6
ATOM      6  C   UNL     1      -2.374   0.060   0.026  0.00  0.00    +0.326 C 
BRANCH   6   7
ATOM      7  O   UNL     1      -1.165  -0.701   0.010  0.00  0.00    -0.482 OA
BRANCH   7  13
ATOM      8  C   UNL     1       1.151   3.596   0.010  0.00  0.00    +0.044 C 
ATOM      9  C   UNL     1       1.171   2.089   0.002  0.00  0.00    -0.047 A 
ATOM     10  C   UNL     1       2.377   1.414  -0.013  0.00  0.00    +0.004 A 
ATOM     11  C   UNL     1       2.399   0.032  -0.021  0.00  0.00    +0.007 A 
ATOM     12  C   UNL     1       1.214  -0.679  -0.013  0.00  0.00    -0.009 A 
ATOM     13  C   UNL     1       0.002  -0.004   0.002  0.00  0.00    +0.124 A 
ATOM     14  C   UNL     1      -0.017   1.383   0.010  0.00  0.00    +0.049 A 
ATOM     15  C   UNL     1       1.238  -2.186  -0.022  0.00  0.00    +0.047 C 
ENDBRANCH   7  13
ENDBRANCH   6   7
ENDBRANCH   1   6
BRANCH   4  16
ATOM     16  S   UNL     1      -6.338  -3.056  -1.558  0.00  0.00    -0.059 S 
BRANCH  16  17
ATOM     17  C   UNL     1      -7.306  -3.839  -0.245  0.00  0.00    +0.134 C 
BRANCH  17  18
ATOM     18  C   UNL     1      -8.390  -4.688  -0.857  0.00  0.00    +0.059 A 
ATOM     19  C   UNL     1      -8.263  -6.064  -0.873  0.00  0.00    +0.094 A 
ATOM     20  C   UNL     1      -9.285  -6.832  -1.443  0.00  0.00    +0.259 A 
ATOM     21  O   UNL     1      -9.204  -8.050  -1.469  0.00  0.00    -0.267 OA
ATOM     22  N   UNL     1     -10.358  -6.204  -1.970  0.00  0.00    -0.267 N 
ATOM     23  C   UNL     1     -11.358  -6.937  -2.534  0.00  0.00    +0.111 A 
ATOM     24  C   UNL     1     -12.442  -6.330  -3.068  0.00  0.00    +0.035 A 
ATOM     25  C   UNL     1     -12.550  -4.932  -3.046  0.00  0.00    +0.020 A 
ATOM     26  C   UNL     1     -11.554  -4.190  -2.485  0.00  0.00    +0.048 A 
ATOM     27  C   UNL     1     -10.434  -4.839  -1.934  0.00  0.00    +0.141 A 
ATOM     28  N   UNL     1      -9.460  -4.115  -1.385  0.00  0.00    -0.233 NA
ATOM     29 BR   UNL     1     -13.817  -7.370  -3.846  0.00  0.00    -0.049 Br
ENDBRANCH  17  18
ENDBRANCH  16  17
ENDBRANCH   4  16
TORSDOF 6
