REMARK  Name = ZINC39769376
REMARK  10 active torsions:
REMARK  status: ('A' for Active; 'I' for Inactive)
REMARK    1  A    between atoms: C_1  and  C_2
REMARK    2  A    between atoms: C_2  and  N_3
REMARK    3  A    between atoms: C_4  and  N_27
REMARK    4  A    between atoms: C_5  and  C_13
REMARK    5  A    between atoms: C_6  and  C_12
REMARK    6  A    between atoms: C_7  and  C_10
REMARK    7  A    between atoms: N_17  and  C_21
REMARK    8  A    between atoms: C_21  and  C_22
REMARK    9  A    between atoms: C_29  and  C_36
REMARK   10  A    between atoms: C_32  and  C_35
REMARK                            x       y       z     vdW  Elec       q    Type
REMARK                         _______ _______ _______ _____ _____    ______ ____
ROOT
ATOM      1  N   UNL     1       1.236  -0.531  -1.312  0.00  0.00    -0.295 N 
ATOM      2  C   UNL     1       0.370  -0.706  -2.344  0.00  0.00    +0.112 A 
ATOM      3  C   UNL     1       0.740  -1.470  -3.464  0.00  0.00    +0.019 A 
ATOM      4  C   UNL     1       2.017  -2.055  -3.510  0.00  0.00    -0.017 A 
ATOM      5  C   UNL     1       2.885  -1.860  -2.440  0.00  0.00    +0.120 A 
ATOM      6  C   UNL     1       2.465  -1.076  -1.335  0.00  0.00    +0.270 A 
ATOM      7  O   UNL     1       3.223  -0.898  -0.398  0.00  0.00    -0.266 OA
ATOM      8  C   UNL     1       2.439  -2.880  -4.699  0.00  0.00    +0.046 C 
ENDROOT
BRANCH   3   9
ATOM      9  C   UNL     1      -0.198  -1.656  -4.572  0.00  0.00    +0.032 C 
ATOM     10  C   UNL     1       0.079  -1.123  -5.794  0.00  0.00    +0.077 C 
ATOM     11  C   UNL     1       1.154  -0.271  -6.191  0.00  0.00    +0.259 C 
ATOM     12  O   UNL     1       1.998   0.088  -5.391  0.00  0.00    -0.269 OA
ATOM     13  N   UNL     1       1.204   0.116  -7.454  0.00  0.00    -0.248 N 
ATOM     14  C   UNL     1       0.267  -0.282  -8.342  0.00  0.00    +0.121 C 
ATOM     15  S   UNL     1       0.138   0.094 -10.007  0.00  0.00    -0.027 S 
ATOM     16  S   UNL     1      -0.800  -1.307  -7.340  0.00  0.00    -0.061 S 
BRANCH  13  17
ATOM     17  C   UNL     1       2.293   0.991  -7.897  0.00  0.00    +0.189 C 
BRANCH  17  18
ATOM     18  C   UNL     1       3.452   0.151  -8.367  0.00  0.00    +0.122 A 
ATOM     19  C   UNL     1       3.650  -0.284  -9.625  0.00  0.00    +0.046 A 
ATOM     20  C   UNL     1       4.850  -1.031  -9.616  0.00  0.00    +0.041 A 
ATOM     21  C   UNL     1       5.315  -1.007  -8.354  0.00  0.00    +0.195 A 
ATOM     22  O   UNL     1       4.467  -0.285  -7.603  0.00  0.00    -0.466 OA
ENDBRANCH  17  18
ENDBRANCH  13  17
ENDBRANCH   3   9
BRANCH   2  23
ATOM     23  N   UNL     1      -0.868  -0.136  -2.293  0.00  0.00    -0.315 N 
ATOM     24  C   UNL     1      -1.117   1.170  -2.919  0.00  0.00    +0.109 C 
ATOM     25  C   UNL     1      -2.309   1.040  -3.873  0.00  0.00    +0.004 C 
ATOM     26  C   UNL     1      -3.507   0.469  -3.111  0.00  0.00    +0.009 C 
ATOM     27  C   UNL     1      -3.160  -0.923  -2.579  0.00  0.00    +0.004 C 
ATOM     28  C   UNL     1      -1.979  -0.818  -1.616  0.00  0.00    +0.109 C 
ATOM     29  C   UNL     1      -4.370  -1.506  -1.846  0.00  0.00    +0.009 C 
ATOM     30  C   UNL     1      -2.668   2.418  -4.432  0.00  0.00    +0.009 C 
ENDBRANCH   2  23
BRANCH   1  32
ATOM     31  C   UNL     1       1.307   1.710  -0.337  0.00  0.00    +0.027 C 
ATOM     32  C   UNL     1       0.825   0.270  -0.157  0.00  0.00    +0.123 C 
ENDBRANCH   1  32
BRANCH   5  33
ATOM     33  C   UNL     1       4.193  -2.443  -2.456  0.00  0.00    +0.105 C 
ATOM     34  N   UNL     1       5.231  -2.905  -2.469  0.00  0.00    -0.191 NA
ENDBRANCH   5  33
TORSDOF 6
