REMARK  Name = ZINC64640257
REMARK  6 active torsions:
REMARK  status: ('A' for Active; 'I' for Inactive)
REMARK    1  A    between atoms: C_1  and  C_2
REMARK    2  A    between atoms: C_3  and  C_26
REMARK    3  A    between atoms: C_12  and  C_14
REMARK    4  A    between atoms: C_16  and  C_25
REMARK    5  A    between atoms: C_26  and  N_27
REMARK    6  A    between atoms: C_28  and  C_30
REMARK                            x       y       z     vdW  Elec       q    Type
REMARK                         _______ _______ _______ _____ _____    ______ ____
ROOT
ATOM      1  C   UNL     1       0.133   1.508  -0.483  0.00  0.00    +0.066 C 
ATOM      2  C   UNL     1       0.113   0.001  -0.504  0.00  0.00    +0.043 A 
ATOM      3  C   UNL     1      -0.155  -0.663  -1.685  0.00  0.00    -0.006 A 
ATOM      4  C   UNL     1      -0.169  -2.054  -1.697  0.00  0.00    -0.033 A 
ATOM      5  C   UNL     1       0.093  -2.721  -0.519  0.00  0.00    -0.008 A 
ATOM      6  C   UNL     1       0.346  -1.988   0.629  0.00  0.00    +0.116 A 
ATOM      7  N   UNL     1       0.355  -0.671   0.605  0.00  0.00    -0.260 NA
ATOM      8  C   UNL     1       0.127  -4.225  -0.437  0.00  0.00    +0.144 C 
ATOM      9  N   UNL     1      -0.422  -4.797  -1.671  0.00  0.00    -0.295 N 
ATOM     10  C   UNL     1       0.015  -4.205  -2.947  0.00  0.00    +0.113 C 
ATOM     11  C   UNL     1      -0.475  -2.758  -2.989  0.00  0.00    +0.055 C 
ATOM     12  C   UNL     1      -1.294  -5.824  -1.639  0.00  0.00    +0.242 C 
ATOM     13  O   UNL     1      -1.800  -6.222  -2.667  0.00  0.00    -0.273 OA
ENDROOT
BRANCH  12  14
ATOM     14  C   UNL     1      -1.639  -6.479  -0.326  0.00  0.00    +0.193 C 
ATOM     15  C   UNL     1      -2.880  -5.845   0.262  0.00  0.00    -0.033 C 
ATOM     16  C   UNL     1      -3.797  -6.834   0.357  0.00  0.00    +0.001 A 
ATOM     17  C   UNL     1      -5.182  -6.862   0.842  0.00  0.00    +0.030 A 
ATOM     18  C   UNL     1      -5.864  -8.031   0.812  0.00  0.00    +0.042 A 
ATOM     19  C   UNL     1      -5.282  -9.213   0.330  0.00  0.00    +0.022 A 
ATOM     20  C   UNL     1      -4.015  -9.265  -0.132  0.00  0.00    +0.027 A 
ATOM     21  C   UNL     1      -3.206  -8.095  -0.146  0.00  0.00    +0.043 A 
ATOM     22  N   UNL     1      -1.969  -7.893  -0.537  0.00  0.00    -0.370 N 
ATOM     23 CL   UNL     1      -7.502  -8.069   1.386  0.00  0.00    -0.084 Cl
ATOM     24  C   UNL     1      -3.058  -4.403   0.661  0.00  0.00    +0.042 C 
ATOM     25  H   UNL     1      -1.374  -8.564  -0.905  0.00  0.00    +0.161 HD
ENDBRANCH  12  14
BRANCH   3  26
ATOM     26  C   UNL     1      -0.429   0.112  -2.948  0.00  0.00    +0.142 C 
BRANCH  26  27
ATOM     27  N   UNL     1       0.831   0.352  -3.656  0.00  0.00    -0.307 N 
ATOM     28  C   UNL     1       0.830   1.032  -4.821  0.00  0.00    +0.245 C 
ATOM     29  O   UNL     1      -0.217   1.445  -5.283  0.00  0.00    -0.270 OA
ATOM     30  H   UNL     1       1.665   0.023  -3.288  0.00  0.00    +0.149 HD
BRANCH  28  31
ATOM     31  C   UNL     1       2.095   1.274  -5.532  0.00  0.00    +0.044 A 
ATOM     32  C   UNL     1       2.134   2.002  -6.777  0.00  0.00    +0.020 A 
ATOM     33  C   UNL     1       3.355   2.155  -7.328  0.00  0.00    +0.046 A 
ATOM     34  S   UNL     1       4.426   1.326  -6.173  0.00  0.00    -0.104 S 
ATOM     35  C   UNL     1       3.298   0.821  -5.038  0.00  0.00    +0.058 A 
ENDBRANCH  28  31
ENDBRANCH  26  27
ENDBRANCH   3  26
TORSDOF 4
