REMARK  Name = ZINC39450837
REMARK  5 active torsions:
REMARK  status: ('A' for Active; 'I' for Inactive)
REMARK    1  A    between atoms: C_1  and  C_2
REMARK    2  A    between atoms: C_2  and  O_3
REMARK    3  A    between atoms: O_3  and  C_4
REMARK    4  A    between atoms: N_10  and  S_13
REMARK    5  A    between atoms: S_13  and  C_16
REMARK                            x       y       z     vdW  Elec       q    Type
REMARK                         _______ _______ _______ _____ _____    ______ ____
ROOT
ATOM      1  C   UNL     1       0.069  -1.937  -1.677  0.00  0.00    +0.139 A 
ATOM      2  C   UNL     1       0.692  -2.464  -2.802  0.00  0.00    +0.062 A 
ATOM      3  C   UNL     1       1.135  -3.784  -2.746  0.00  0.00    +0.072 A 
ATOM      4  C   UNL     1       0.939  -4.529  -1.562  0.00  0.00    +0.099 A 
ATOM      5  C   UNL     1       1.416  -5.918  -1.530  0.00  0.00    +0.085 A 
ATOM      6  C   UNL     1       2.035  -6.457  -2.643  0.00  0.00    +0.134 A 
ATOM      7  N   UNL     1       2.219  -5.702  -3.794  0.00  0.00    -0.170 N 
ATOM      8  C   UNL     1       1.805  -4.425  -3.887  0.00  0.00    +0.281 A 
ATOM      9  O   UNL     1       1.985  -3.800  -4.916  0.00  0.00    -0.265 OA
ATOM     10  C   UNL     1       2.485  -7.796  -2.615  0.00  0.00    +0.187 C 
ATOM     11  O   UNL     1       3.072  -8.253  -3.575  0.00  0.00    -0.290 OA
ATOM     12  C   UNL     1       2.244  -8.663  -1.407  0.00  0.00    +0.138 C 
ATOM     13  C   UNL     1       2.201  -7.784  -0.151  0.00  0.00    +0.259 C 
ATOM     14  N   UNL     1       1.254  -6.684  -0.392  0.00  0.00    -0.311 N 
ATOM     15  F   UNL     1       3.474  -7.264   0.104  0.00  0.00    -0.224 F 
ATOM     16  N   UNL     1       0.338  -3.978  -0.516  0.00  0.00    -0.249 NA
ATOM     17  C   UNL     1      -0.084  -2.733  -0.543  0.00  0.00    +0.157 A 
ATOM     18  H   UNL     1       0.534  -6.502   0.232  0.00  0.00    +0.149 HD
ENDROOT
BRANCH   7  19
ATOM     19  S   UNL     1       2.972  -6.396  -5.096  0.00  0.00    +0.087 S 
ATOM     20  O   UNL     1       2.514  -7.740  -5.161  0.00  0.00    -0.148 OA
ATOM     21  O   UNL     1       2.827  -5.489  -6.180  0.00  0.00    -0.148 OA
BRANCH  19  22
ATOM     22  C   UNL     1       4.693  -6.468  -4.725  0.00  0.00    +0.111 A 
ATOM     23  C   UNL     1       5.518  -5.411  -5.064  0.00  0.00    +0.029 A 
ATOM     24  C   UNL     1       6.868  -5.468  -4.773  0.00  0.00    +0.002 A 
ATOM     25  C   UNL     1       7.393  -6.580  -4.143  0.00  0.00    +0.000 A 
ATOM     26  C   UNL     1       6.568  -7.636  -3.803  0.00  0.00    +0.002 A 
ATOM     27  C   UNL     1       5.217  -7.578  -4.090  0.00  0.00    +0.029 A 
ENDBRANCH  19  22
ENDBRANCH   7  19
BRANCH   1  28
ATOM     28  O   UNL     1      -0.381  -0.656  -1.680  0.00  0.00    -0.491 OA
BRANCH  28  30
ATOM     29  C   UNL     1      -1.444   1.269  -0.677  0.00  0.00    +0.048 C 
ATOM     30  C   UNL     1      -1.005  -0.184  -0.484  0.00  0.00    +0.226 C 
ENDBRANCH  28  30
ENDBRANCH   1  28
TORSDOF 4
