REMARK  Name = ZINC09823612
REMARK  8 active torsions:
REMARK  status: ('A' for Active; 'I' for Inactive)
REMARK    1  A    between atoms: C_1  and  C_2
REMARK    2  A    between atoms: C_2  and  C_25
REMARK    3  A    between atoms: N_5  and  C_9
REMARK    4  A    between atoms: C_9  and  C_10
REMARK    5  A    between atoms: N_12  and  C_13
REMARK    6  A    between atoms: C_13  and  C_14
REMARK    7  A    between atoms: C_14  and  C_16
REMARK    8  A    between atoms: C_14  and  N_62
REMARK                            x       y       z     vdW  Elec       q    Type
REMARK                         _______ _______ _______ _____ _____    ______ ____
ROOT
ATOM      1  C   UNL     1      -4.088   4.933  -8.873  0.00  0.00    +0.047 C 
ATOM      2  C   UNL     1      -3.552   5.950  -7.864  0.00  0.00    +0.135 C 
ATOM      3  C   UNL     1      -2.332   5.409  -7.146  0.00  0.00    +0.251 C 
ATOM      4  O   UNL     1      -1.273   5.089  -7.642  0.00  0.00    -0.272 OA
ATOM      5  N   UNL     1      -2.670   5.356  -5.843  0.00  0.00    -0.215 N 
ATOM      6  C   UNL     1      -3.919   5.791  -5.639  0.00  0.00    +0.310 C 
ATOM      7  O   UNL     1      -4.447   5.841  -4.545  0.00  0.00    -0.252 OA
ATOM      8  N   UNL     1      -4.525   6.167  -6.780  0.00  0.00    -0.281 N 
ATOM      9  H   UNL     1      -5.426   6.513  -6.870  0.00  0.00    +0.152 HD
ENDROOT
BRANCH   2  10
ATOM     10  C   UNL     1      -3.224   7.252  -8.550  0.00  0.00    -0.015 A 
ATOM     11  C   UNL     1      -1.953   7.444  -9.087  0.00  0.00    +0.007 A 
ATOM     12  C   UNL     1      -1.626   8.605  -9.717  0.00  0.00    +0.009 A 
ATOM     13  C   UNL     1      -2.579   9.633  -9.819  0.00  0.00    -0.018 A 
ATOM     14  C   UNL     1      -2.277  10.848 -10.457  0.00  0.00    +0.008 A 
ATOM     15  C   UNL     1      -3.226  11.820 -10.538  0.00  0.00    +0.001 A 
ATOM     16  C   UNL     1      -4.496  11.631  -9.995  0.00  0.00    +0.001 A 
ATOM     17  C   UNL     1      -4.824  10.467  -9.371  0.00  0.00    +0.008 A 
ATOM     18  C   UNL     1      -3.871   9.440  -9.268  0.00  0.00    -0.018 A 
ATOM     19  C   UNL     1      -4.173   8.225  -8.630  0.00  0.00    +0.014 A 
ENDBRANCH   2  10
BRANCH   5  20
ATOM     20  C   UNL     1      -1.779   4.885  -4.780  0.00  0.00    +0.213 C 
BRANCH  20  21
ATOM     21  C   UNL     1      -1.962   3.401  -4.590  0.00  0.00    +0.231 C 
ATOM     22  O   UNL     1      -2.759   2.796  -5.276  0.00  0.00    -0.274 OA
ATOM     23  N   UNL     1      -1.240   2.747  -3.659  0.00  0.00    -0.315 N 
ATOM     24  H   UNL     1      -0.603   3.231  -3.111  0.00  0.00    +0.149 HD
BRANCH  23  25
ATOM     25  C   UNL     1      -1.418   1.304  -3.475  0.00  0.00    +0.096 C 
BRANCH  25  26
ATOM     26  C   UNL     1      -0.487   0.813  -2.365  0.00  0.00    +0.016 C 
BRANCH  26  31
ATOM     27  C   UNL     1      -0.061   0.968   0.028  0.00  0.00    -0.078 C 
ATOM     28  C   UNL     1      -0.808   1.536   1.253  0.00  0.00    -0.020 C 
ATOM     29  C   UNL     1      -2.198   1.949   0.716  0.00  0.00    -0.020 C 
ATOM     30  C   UNL     1      -2.169   1.594  -0.786  0.00  0.00    -0.078 C 
ATOM     31  N   UNL     1      -0.745   1.591  -1.112  0.00  0.00    +0.387 N 
ATOM     32  H   UNL     1      -0.411   2.554  -1.238  0.00  0.00    -0.081 HD
ENDBRANCH  26  31
BRANCH  26  33
ATOM     33  C   UNL     1      -0.757  -0.644  -2.091  0.00  0.00    +0.093 A 
ATOM     34  C   UNL     1       0.039  -1.671  -2.440  0.00  0.00    +0.043 A 
ATOM     35  C   UNL     1      -0.594  -2.851  -1.988  0.00  0.00    +0.041 A 
ATOM     36  C   UNL     1      -1.742  -2.476  -1.396  0.00  0.00    +0.195 A 
ATOM     37  O   UNL     1      -1.836  -1.138  -1.462  0.00  0.00    -0.469 OA
ENDBRANCH  26  33
ENDBRANCH  25  26
ENDBRANCH  23  25
ENDBRANCH  20  21
ENDBRANCH   5  20
TORSDOF 7
