REMARK  Name = ZINC59874969
REMARK  4 active torsions:
REMARK  status: ('A' for Active; 'I' for Inactive)
REMARK    1  A    between atoms: C_8  and  C_20
REMARK    2  A    between atoms: N_10  and  S_12
REMARK    3  A    between atoms: S_12  and  C_15
REMARK    4  A    between atoms: C_20  and  N_22
REMARK                            x       y       z     vdW  Elec       q    Type
REMARK                         _______ _______ _______ _____ _____    ______ ____
ROOT
ATOM      1  C   UNL     1       0.634   1.840   0.060  0.00  0.00    +0.000 A 
ATOM      2  C   UNL     1       1.926   2.299   0.236  0.00  0.00    +0.000 A 
ATOM      3  C   UNL     1       2.972   1.399   0.274  0.00  0.00    +0.005 A 
ATOM      4  C   UNL     1       2.737   0.038   0.131  0.00  0.00    -0.028 A 
ATOM      5  C   UNL     1       1.451  -0.419  -0.054  0.00  0.00    -0.041 A 
ATOM      6  C   UNL     1       0.399   0.489  -0.083  0.00  0.00    +0.004 A 
ATOM      7  C   UNL     1       1.122  -1.876  -0.246  0.00  0.00    +0.065 C 
ATOM      8  C   UNL     1       2.251  -2.762   0.279  0.00  0.00    +0.172 C 
ATOM      9  N   UNL     1       3.522  -2.233  -0.241  0.00  0.00    -0.160 NA
ATOM     10  C   UNL     1       3.922  -0.891   0.196  0.00  0.00    +0.145 C 
ENDROOT
BRANCH   9  11
ATOM     11  S   UNL     1       4.463  -3.117  -1.278  0.00  0.00    +0.068 S 
ATOM     12  O   UNL     1       5.755  -2.526  -1.259  0.00  0.00    -0.152 OA
ATOM     13  O   UNL     1       4.246  -4.485  -0.958  0.00  0.00    -0.152 OA
BRANCH  11  14
ATOM     14  C   UNL     1       3.822  -2.873  -2.901  0.00  0.00    +0.143 A 
ATOM     15  C   UNL     1       4.153  -1.930  -3.816  0.00  0.00    +0.036 A 
ATOM     16  C   UNL     1       3.511  -1.929  -5.041  0.00  0.00    +0.010 A 
ATOM     17  C   UNL     1       2.570  -2.873  -5.290  0.00  0.00    +0.047 A 
ATOM     18  S   UNL     1       2.573  -3.808  -3.769  0.00  0.00    -0.077 S 
ENDBRANCH  11  14
ENDBRANCH   9  11
BRANCH   8  19
ATOM     19  C   UNL     1       2.052  -4.177  -0.200  0.00  0.00    +0.258 C 
ATOM     20  O   UNL     1       1.924  -4.405  -1.388  0.00  0.00    -0.272 OA
BRANCH  19  21
ATOM     21  N   UNL     1       2.017  -5.177   0.676  0.00  0.00    -0.145 NA
ATOM     22  C   UNL     1       1.943  -6.434   0.248  0.00  0.00    +0.198 A 
ATOM     23  N   UNL     1       1.790  -6.817  -1.047  0.00  0.00    -0.326 N 
ATOM     24  H   UNL     1       1.717  -6.223  -1.811  0.00  0.00    +0.169 HD
ATOM     25  C   UNL     1       1.758  -8.207  -1.090  0.00  0.00    +0.065 A 
ATOM     26  C   UNL     1       1.624  -9.120  -2.127  0.00  0.00    +0.028 A 
ATOM     27  C   UNL     1       1.628 -10.474  -1.856  0.00  0.00    +0.002 A 
ATOM     28  C   UNL     1       1.765 -10.925  -0.554  0.00  0.00    +0.002 A 
ATOM     29  C   UNL     1       1.898 -10.025   0.484  0.00  0.00    +0.028 A 
ATOM     30  C   UNL     1       1.896  -8.662   0.223  0.00  0.00    +0.065 A 
ATOM     31  N   UNL     1       2.015  -7.539   1.035  0.00  0.00    -0.326 N 
ATOM     32  H   UNL     1       2.127  -7.544   1.999  0.00  0.00    +0.169 HD
ENDBRANCH  19  21
ENDBRANCH   8  19
TORSDOF 4
