REMARK  Name = ZINC63212052
REMARK  6 active torsions:
REMARK  status: ('A' for Active; 'I' for Inactive)
REMARK    1  A    between atoms: C_1  and  C_2
REMARK    2  A    between atoms: C_2  and  C_3
REMARK    3  A    between atoms: C_2  and  C_4
REMARK    4  A    between atoms: C_4  and  C_5
REMARK    5  A    between atoms: N_7  and  C_8
REMARK    6  A    between atoms: C_15  and  N_17
REMARK                            x       y       z     vdW  Elec       q    Type
REMARK                         _______ _______ _______ _____ _____    ______ ____
ROOT
ATOM      1  C   UNL     1      -4.078  -0.112  -2.723  0.00  0.00    +0.058 C 
ATOM      2  C   UNL     1      -3.718  -1.133  -3.819  0.00  0.00    +0.020 C 
ATOM      3  C   UNL     1      -4.662  -1.077  -4.990  0.00  0.00    +0.002 C 
ATOM      4  C   UNL     1      -5.770  -2.128  -4.776  0.00  0.00    +0.000 C 
ATOM      5  C   UNL     1      -6.804  -1.666  -3.862  0.00  0.00    -0.002 C 
ATOM      6  C   UNL     1      -6.255  -1.377  -2.450  0.00  0.00    -0.014 C 
ATOM      7  C   UNL     1      -5.594  -0.028  -2.462  0.00  0.00    -0.055 C 
ENDROOT
BRANCH   1  10
ATOM      8  C   UNL     1      -2.125  -0.137  -1.266  0.00  0.00    +0.213 C 
ATOM      9  O   UNL     1      -1.528   0.505  -2.104  0.00  0.00    -0.276 OA
ATOM     10  N   UNL     1      -3.406  -0.497  -1.479  0.00  0.00    -0.314 N 
ATOM     11  H   UNL     1      -3.883  -1.011  -0.809  0.00  0.00    +0.149 HD
BRANCH   8  12
ATOM     12  C   UNL     1      -1.433  -0.534   0.013  0.00  0.00    +0.098 C 
BRANCH  12  14
ATOM     13  C   UNL     1      -0.019   1.526   0.010  0.00  0.00    +0.008 C 
ATOM     14  C   UNL     1       0.002  -0.004   0.002  0.00  0.00    -0.008 C 
ATOM     15  C   UNL     1       0.742  -0.511   1.242  0.00  0.00    +0.008 C 
ENDBRANCH  12  14
ENDBRANCH   8  12
ENDBRANCH   1  10
BRANCH   7  16
ATOM     16  N   UNL     1      -5.818   0.620  -1.163  0.00  0.00    +0.381 N 
ATOM     17  H   UNL     1      -5.422   1.548  -1.176  0.00  0.00    -0.090 HD
ATOM     18  H   UNL     1      -6.809   0.679  -0.983  0.00  0.00    -0.090 HD
ATOM     19  H   UNL     1      -5.377   0.076  -0.436  0.00  0.00    -0.090 HD
ENDBRANCH   7  16
TORSDOF 4
