REMARK  Name = ZINC21595590
REMARK  5 active torsions:
REMARK  status: ('A' for Active; 'I' for Inactive)
REMARK    1  A    between atoms: C_4  and  N_22
REMARK    2  A    between atoms: C_5  and  N_7
REMARK    3  A    between atoms: N_7  and  C_8
REMARK    4  A    between atoms: C_8  and  N_10
REMARK    5  A    between atoms: C_11  and  C_13
REMARK                            x       y       z     vdW  Elec       q    Type
REMARK                         _______ _______ _______ _____ _____    ______ ____
ROOT
ATOM      1  C   UNL     1      -3.567  -0.860   0.412  0.00  0.00    +0.141 C 
ATOM      2  S   UNL     1      -3.448  -2.549   0.663  0.00  0.00    -0.018 S 
ENDROOT
BRANCH   1   3
ATOM      3  N   UNL     1      -4.775  -0.261   0.415  0.00  0.00    -0.264 N 
ATOM      4  C   UNL     1      -5.889  -0.992   0.617  0.00  0.00    +0.250 C 
ATOM      5  O   UNL     1      -5.804  -2.191   0.796  0.00  0.00    -0.270 OA
ATOM      6  H   UNL     1      -4.851   0.825   0.254  0.00  0.00    +0.157 HD
BRANCH   4   7
ATOM      7  C   UNL     1      -7.211  -0.336   0.621  0.00  0.00    +0.039 A 
ATOM      8  C   UNL     1      -7.296   1.054   0.413  0.00  0.00    +0.015 A 
ATOM      9  C   UNL     1      -8.485   1.693   0.409  0.00  0.00    +0.031 A 
ATOM     10  C   UNL     1      -9.691   0.969   0.617  0.00  0.00    +0.100 A 
ATOM     11  C   UNL     1      -9.616  -0.473   0.833  0.00  0.00    +0.101 A 
ATOM     12  C   UNL     1      -8.345  -1.096   0.823  0.00  0.00    +0.043 A 
ATOM     13  N   UNL     1     -10.821  -1.015   1.013  0.00  0.00    -0.191 NA
ATOM     14  S   UNL     1     -11.849   0.163   0.914  0.00  0.00    +0.116 S 
ATOM     15  N   UNL     1     -10.944   1.415   0.648  0.00  0.00    -0.191 NA
ENDBRANCH   4   7
ENDBRANCH   1   3
BRANCH   1  16
ATOM     16  N   UNL     1      -2.453  -0.128   0.210  0.00  0.00    -0.295 N 
ATOM     17  H   UNL     1      -2.520   0.967   0.134  0.00  0.00    +0.154 HD
BRANCH  16  22
ATOM     18  C   UNL     1       0.148  -2.522  -0.802  0.00  0.00    +0.002 A 
ATOM     19  C   UNL     1       1.245  -2.017  -0.128  0.00  0.00    +0.002 A 
ATOM     20  C   UNL     1       1.118  -0.883   0.653  0.00  0.00    +0.034 A 
ATOM     21  C   UNL     1      -0.108  -0.258   0.772  0.00  0.00    +0.147 A 
ATOM     22  C   UNL     1      -1.211  -0.762   0.096  0.00  0.00    +0.063 A 
ATOM     23  C   UNL     1      -1.079  -1.898  -0.692  0.00  0.00    +0.025 A 
BRANCH  21  24
ATOM     24  N   UNL     1      -0.244   0.953   1.613  0.00  0.00    +0.058 N 
ATOM     25  O   UNL     1       0.743   1.457   2.119  0.00  0.00    -0.126 OA
ATOM     26  O   UNL     1      -1.342   1.447   1.796  0.00  0.00    -0.126 OA
ENDBRANCH  21  24
ENDBRANCH  16  22
ENDBRANCH   1  16
TORSDOF 5
