REMARK  Name = ZINC06589205
REMARK  7 active torsions:
REMARK  status: ('A' for Active; 'I' for Inactive)
REMARK    1  A    between atoms: C_1  and  C_2
REMARK    2  A    between atoms: C_2  and  C_3
REMARK    3  A    between atoms: C_2  and  C_4
REMARK    4  A    between atoms: C_4  and  C_5
REMARK    5  A    between atoms: C_10  and  O_19
REMARK    6  A    between atoms: C_14  and  N_18
REMARK    7  A    between atoms: C_15  and  C_16
REMARK                            x       y       z     vdW  Elec       q    Type
REMARK                         _______ _______ _______ _____ _____    ______ ____
ROOT
ATOM      1  C   UNL     1       0.132   0.999   0.090  0.00  0.00    +0.068 C 
ATOM      2  C   UNL     1      -0.653   1.233  -1.174  0.00  0.00    +0.003 A 
ATOM      3  C   UNL     1      -0.031   1.050  -2.400  0.00  0.00    +0.011 A 
ATOM      4  C   UNL     1      -0.732   1.259  -3.572  0.00  0.00    +0.046 A 
ATOM      5  C   UNL     1      -2.061   1.656  -3.523  0.00  0.00    +0.120 A 
ATOM      6  C   UNL     1      -2.682   1.840  -2.300  0.00  0.00    +0.092 A 
ATOM      7  C   UNL     1      -1.976   1.629  -1.122  0.00  0.00    +0.137 A 
ATOM      8  O   UNL     1      -2.599   1.814   0.068  0.00  0.00    -0.441 OA
ATOM      9  C   UNL     1      -1.873   1.997   1.183  0.00  0.00    +0.198 C 
ATOM     10  C   UNL     1      -0.571   1.632   1.258  0.00  0.00    +0.094 C 
ENDROOT
BRANCH   9  11
ATOM     11  N   UNL     1      -2.467   2.571   2.279  0.00  0.00    -0.328 N 
ATOM     12  H   UNL     1      -1.956   2.710   3.091  0.00  0.00    +0.145 HD
ATOM     13  H   UNL     1      -3.399   2.838   2.241  0.00  0.00    +0.145 HD
ENDBRANCH   9  11
BRANCH  10  14
ATOM     14  C   UNL     1       0.151   1.854   2.474  0.00  0.00    +0.100 C 
ATOM     15  N   UNL     1       0.724   2.030   3.440  0.00  0.00    -0.191 NA
ENDBRANCH  10  14
BRANCH   5  16
ATOM     16  O   UNL     1      -2.752   1.862  -4.676  0.00  0.00    -0.507 OA
ATOM     17  H   UNL     1      -2.700   2.768  -5.009  0.00  0.00    +0.292 HD
ENDBRANCH   5  16
BRANCH   1  18
ATOM     18  C   UNL     1       1.525   1.614  -0.057  0.00  0.00    +0.016 C 
BRANCH  18  20
ATOM     19  C   UNL     1       2.804   3.760  -0.072  0.00  0.00    +0.007 C 
ATOM     20  C   UNL     1       1.407   3.138  -0.113  0.00  0.00    -0.016 C 
ATOM     21  C   UNL     1       0.704   3.549  -1.408  0.00  0.00    +0.007 C 
ENDBRANCH  18  20
ENDBRANCH   1  18
TORSDOF 5
