REMARK  Name = ZINC66246669
REMARK  5 active torsions:
REMARK  status: ('A' for Active; 'I' for Inactive)
REMARK    1  A    between atoms: C_6  and  C_7
REMARK    2  A    between atoms: C_7  and  C_13
REMARK    3  A    between atoms: C_13  and  N_14
REMARK    4  A    between atoms: N_16  and  C_17
REMARK    5  A    between atoms: C_17  and  C_18
REMARK                            x       y       z     vdW  Elec       q    Type
REMARK                         _______ _______ _______ _____ _____    ______ ____
ROOT
ATOM      1  C   UNL     1      -2.034  -0.517   1.324  0.00  0.00    +0.127 C 
ENDROOT
BRANCH   1   2
ATOM      2  N   UNL     1      -2.423   0.894   1.396  0.00  0.00    -0.357 N 
ATOM      3  C   UNL     1      -3.014   1.387   2.535  0.00  0.00    +0.169 C 
ATOM      4  N   UNL     1      -3.360   2.642   2.599  0.00  0.00    -0.355 N 
ATOM      5  N   UNL     1      -3.239   0.556   3.607  0.00  0.00    -0.371 N 
ATOM      6  H   UNL     1      -2.264   1.480   0.639  0.00  0.00    +0.162 HD
ATOM      7  H   UNL     1      -2.981  -0.378   3.559  0.00  0.00    +0.159 HD
ATOM      8  H   UNL     1      -3.655   0.903   4.411  0.00  0.00    +0.159 HD
ATOM      9  H   UNL     1      -3.201   3.228   1.843  0.00  0.00    +0.162 HD
BRANCH   4  10
ATOM     10  C   UNL     1      -3.989   3.167   3.813  0.00  0.00    +0.147 C 
BRANCH  10  11
ATOM     11  C   UNL     1      -4.293   4.655   3.628  0.00  0.00    +0.137 C 
ATOM     12  C   UNL     1      -4.928   5.239   4.915  0.00  0.00    +0.035 C 
ATOM     13  C   UNL     1      -4.553   6.739   4.774  0.00  0.00    +0.031 C 
ATOM     14  C   UNL     1      -3.173   6.669   4.085  0.00  0.00    +0.160 C 
ATOM     15  O   UNL     1      -3.075   5.393   3.439  0.00  0.00    -0.375 OA
ENDBRANCH  10  11
ENDBRANCH   4  10
ENDBRANCH   1   2
BRANCH   1  16
ATOM     16  C   UNL     1      -1.388  -0.799  -0.035  0.00  0.00    +0.017 C 
ATOM     17  C   UNL     1      -2.410  -0.555  -1.150  0.00  0.00    +0.041 C 
ATOM     18  C   UNL     1      -3.573  -1.538  -0.990  0.00  0.00    +0.161 C 
ATOM     19  O   UNL     1      -3.071  -2.876  -1.019  0.00  0.00    -0.380 OA
ATOM     20  C   UNL     1      -2.148  -3.176   0.029  0.00  0.00    +0.161 C 
ATOM     21  C   UNL     1      -0.928  -2.259  -0.089  0.00  0.00    +0.041 C 
BRANCH  16  27
ATOM     22  C   UNL     1       0.902  -0.009   0.594  0.00  0.00    +0.005 A 
ATOM     23  C   UNL     1       1.989   0.826   0.416  0.00  0.00    +0.015 A 
ATOM     24  C   UNL     1       1.972   1.781  -0.584  0.00  0.00    +0.018 A 
ATOM     25  C   UNL     1       0.866   1.901  -1.406  0.00  0.00    +0.015 A 
ATOM     26  C   UNL     1      -0.221   1.065  -1.228  0.00  0.00    +0.005 A 
ATOM     27  C   UNL     1      -0.203   0.111  -0.228  0.00  0.00    -0.039 A 
ATOM     28 BR   UNL     1       3.459   2.924  -0.827  0.00  0.00    -0.050 Br
ENDBRANCH  16  27
ENDBRANCH   1  16
TORSDOF 5
