REMARK  Name = ZINC63794437
REMARK  7 active torsions:
REMARK  status: ('A' for Active; 'I' for Inactive)
REMARK    1  A    between atoms: C_1  and  C_2
REMARK    2  A    between atoms: C_5  and  C_8
REMARK    3  A    between atoms: C_11  and  C_14
REMARK    4  A    between atoms: C_19  and  C_21
REMARK    5  A    between atoms: C_21  and  N_22
REMARK    6  A    between atoms: C_25  and  C_30
REMARK    7  A    between atoms: C_30  and  C_31
REMARK                            x       y       z     vdW  Elec       q    Type
REMARK                         _______ _______ _______ _____ _____    ______ ____
ROOT
ATOM      1  C   UNL     1       0.095  -6.974  -3.211  0.00  0.00    +0.215 C 
ENDROOT
BRANCH   1   2
ATOM      2  N   UNL     1       0.110  -8.201  -4.011  0.00  0.00    -0.216 N 
ATOM      3  C   UNL     1       1.234  -8.825  -4.419  0.00  0.00    +0.244 C 
ATOM      4  O   UNL     1       2.378  -8.488  -4.202  0.00  0.00    -0.273 OA
ATOM      5  C   UNL     1       0.768 -10.034  -5.205  0.00  0.00    +0.165 C 
ATOM      6  N   UNL     1      -0.701  -9.944  -5.143  0.00  0.00    -0.287 N 
ATOM      7  C   UNL     1      -0.988  -8.845  -4.421  0.00  0.00    +0.310 C 
ATOM      8  O   UNL     1      -2.119  -8.477  -4.173  0.00  0.00    -0.252 OA
ATOM      9  H   UNL     1      -1.337 -10.558  -5.542  0.00  0.00    +0.151 HD
BRANCH   5  10
ATOM     10  C   UNL     1       1.260 -11.325  -4.548  0.00  0.00    +0.065 C 
BRANCH  10  11
ATOM     11  C   UNL     1       0.889 -12.502  -5.413  0.00  0.00    -0.039 C 
ATOM     12  C   UNL     1       1.669 -13.109  -6.338  0.00  0.00    -0.001 A 
ATOM     13  C   UNL     1       3.041 -12.863  -6.797  0.00  0.00    +0.010 A 
ATOM     14  C   UNL     1       3.562 -13.656  -7.761  0.00  0.00    +0.001 A 
ATOM     15  C   UNL     1       2.825 -14.704  -8.331  0.00  0.00    +0.002 A 
ATOM     16  C   UNL     1       1.559 -14.991  -7.961  0.00  0.00    +0.026 A 
ATOM     17  C   UNL     1       0.912 -14.222  -6.955  0.00  0.00    +0.043 A 
ATOM     18  N   UNL     1      -0.287 -14.300  -6.433  0.00  0.00    -0.380 N 
ATOM     19  C   UNL     1      -0.426 -13.248  -5.420  0.00  0.00    +0.144 C 
ATOM     20  H   UNL     1      -0.968 -14.948  -6.673  0.00  0.00    +0.160 HD
ENDBRANCH  10  11
ENDBRANCH   5  10
ENDBRANCH   1   2
BRANCH   1  26
ATOM     21  C   UNL     1       0.058  -4.248  -0.021  0.00  0.00    +0.069 C 
ATOM     22  N   UNL     1       0.068  -4.985  -1.077  0.00  0.00    -0.181 NA
ATOM     23  N   UNL     1       0.086  -6.354  -0.816  0.00  0.00    -0.181 N 
ATOM     24  C   UNL     1       0.088  -6.560   0.641  0.00  0.00    +0.173 C 
ATOM     25  C   UNL     1       0.076  -5.127   1.209  0.00  0.00    +0.090 C 
ATOM     26  C   UNL     1       0.098  -7.329  -1.746  0.00  0.00    +0.253 C 
ATOM     27  O   UNL     1       0.113  -8.493  -1.404  0.00  0.00    -0.272 OA
BRANCH  21  32
ATOM     28  C   UNL     1      -0.018   1.503   0.010  0.00  0.00    +0.044 C 
ATOM     29  C   UNL     1       0.002  -0.004   0.002  0.00  0.00    -0.050 A 
ATOM     30  C   UNL     1       0.006  -0.686  -1.202  0.00  0.00    +0.004 A 
ATOM     31  C   UNL     1       0.024  -2.065  -1.217  0.00  0.00    +0.010 A 
ATOM     32  C   UNL     1       0.039  -2.773  -0.013  0.00  0.00    -0.002 A 
ATOM     33  C   UNL     1       0.036  -2.078   1.198  0.00  0.00    +0.010 A 
ATOM     34  C   UNL     1       0.023  -0.699   1.198  0.00  0.00    +0.004 A 
ENDBRANCH  21  32
BRANCH  24  35
ATOM     35  C   UNL     1       1.335  -7.289   1.071  0.00  0.00    +0.128 A 
ATOM     36  C   UNL     1       1.402  -8.240   2.020  0.00  0.00    +0.046 A 
ATOM     37  C   UNL     1       2.754  -8.646   2.097  0.00  0.00    +0.041 A 
ATOM     38  C   UNL     1       3.432  -7.918   1.192  0.00  0.00    +0.195 A 
ATOM     39  O   UNL     1       2.566  -7.102   0.569  0.00  0.00    -0.466 OA
ENDBRANCH  24  35
ENDBRANCH   1  26
TORSDOF 6
