REMARK  Name = ZINC04278910
REMARK  10 active torsions:
REMARK  status: ('A' for Active; 'I' for Inactive)
REMARK    1  A    between atoms: C_1  and  C_2
REMARK    2  A    between atoms: C_2  and  C_4
REMARK    3  A    between atoms: C_6  and  C_18
REMARK    4  A    between atoms: C_12  and  C_13
REMARK    5  A    between atoms: C_12  and  O_17
REMARK    6  A    between atoms: C_20  and  O_27
REMARK    7  A    between atoms: C_21  and  O_26
REMARK    8  A    between atoms: C_22  and  O_24
REMARK    9  A    between atoms: O_24  and  C_25
REMARK   10  A    between atoms: O_27  and  C_28
REMARK                            x       y       z     vdW  Elec       q    Type
REMARK                         _______ _______ _______ _____ _____    ______ ____
ROOT
ATOM      1  C   UNL     1       0.433  -1.236  -1.383  0.00  0.00    +0.139 C 
ATOM      2  C   UNL     1      -0.858  -2.056  -1.289  0.00  0.00    +0.120 C 
ATOM      3  N   UNL     1      -0.859  -2.808  -0.033  0.00  0.00    -0.292 N 
ATOM      4  C   UNL     1       0.286  -3.203   0.544  0.00  0.00    +0.302 C 
ATOM      5  O   UNL     1       0.229  -3.835   1.581  0.00  0.00    -0.253 OA
ATOM      6  N   UNL     1       1.491  -2.930   0.021  0.00  0.00    -0.264 N 
ATOM      7  C   UNL     1       1.629  -2.182  -1.234  0.00  0.00    +0.243 C 
ATOM      8  H   UNL     1      -1.704  -3.024   0.391  0.00  0.00    +0.151 HD
ATOM      9  H   UNL     1       2.288  -3.232   0.483  0.00  0.00    +0.153 HD
ENDROOT
BRANCH   2  10
ATOM     10  C   UNL     1      -0.933  -3.013  -2.451  0.00  0.00    -0.019 A 
ATOM     11  C   UNL     1      -0.547  -4.330  -2.284  0.00  0.00    +0.055 A 
ATOM     12  C   UNL     1      -0.614  -5.214  -3.351  0.00  0.00    +0.165 A 
ATOM     13  C   UNL     1      -1.069  -4.774  -4.588  0.00  0.00    +0.201 A 
ATOM     14  C   UNL     1      -1.456  -3.449  -4.751  0.00  0.00    +0.165 A 
ATOM     15  C   UNL     1      -1.392  -2.573  -3.678  0.00  0.00    +0.055 A 
BRANCH  14  16
ATOM     16  O   UNL     1      -1.903  -3.014  -5.960  0.00  0.00    -0.491 OA
ATOM     17  C   UNL     1      -2.284  -1.640  -6.054  0.00  0.00    +0.277 C 
ENDBRANCH  14  16
BRANCH  13  18
ATOM     18  O   UNL     1      -1.136  -5.638  -5.637  0.00  0.00    -0.501 OA
ATOM     19  H   UNL     1      -1.981  -6.102  -5.712  0.00  0.00    +0.292 HD
ENDBRANCH  13  18
BRANCH  12  20
ATOM     20  O   UNL     1      -0.234  -6.509  -3.187  0.00  0.00    -0.491 OA
ATOM     21  C   UNL     1       0.225  -6.891  -1.888  0.00  0.00    +0.277 C 
ENDBRANCH  12  20
ENDBRANCH   2  10
BRANCH   7  22
ATOM     22  C   UNL     1       2.925  -1.369  -1.212  0.00  0.00    +0.436 C 
ATOM     23  F   UNL     1       2.961  -0.581  -0.057  0.00  0.00    -0.166 F 
ATOM     24  F   UNL     1       4.021  -2.238  -1.219  0.00  0.00    -0.166 F 
ATOM     25  F   UNL     1       2.976  -0.544  -2.341  0.00  0.00    -0.166 F 
ENDBRANCH   7  22
BRANCH   1  27
ATOM     26  C   UNL     1       1.000   1.173  -0.554  0.00  0.00    +0.086 C 
ATOM     27  C   UNL     1       0.460  -0.207  -0.282  0.00  0.00    +0.140 C 
ATOM     28  O   UNL     1       0.050  -0.490   0.818  0.00  0.00    -0.297 OA
ENDBRANCH   1  27
BRANCH   7  29
ATOM     29  O   UNL     1       1.655  -3.095  -2.333  0.00  0.00    -0.364 OA
ATOM     30  H   UNL     1       2.388  -3.725  -2.303  0.00  0.00    +0.212 HD
ENDBRANCH   7  29
TORSDOF 7
