REMARK  Name = ZINC01012976
REMARK  5 active torsions:
REMARK  status: ('A' for Active; 'I' for Inactive)
REMARK    1  A    between atoms: C_1  and  C_2
REMARK    2  A    between atoms: C_2  and  O_3
REMARK    3  A    between atoms: O_3  and  C_4
REMARK    4  A    between atoms: C_6  and  C_12
REMARK    5  A    between atoms: C_9  and  O_10
REMARK                            x       y       z     vdW  Elec       q    Type
REMARK                         _______ _______ _______ _____ _____    ______ ____
ROOT
ATOM      1  C   UNL     1      -0.029   0.041  -0.485  0.00  0.00    +0.164 A 
ATOM      2  C   UNL     1      -0.019   1.421  -0.417  0.00  0.00    +0.057 A 
ATOM      3  C   UNL     1       1.158   2.092  -0.064  0.00  0.00    -0.019 A 
ATOM      4  C   UNL     1       2.318   1.361   0.217  0.00  0.00    +0.032 A 
ATOM      5  C   UNL     1       2.299  -0.015   0.146  0.00  0.00    +0.087 A 
ATOM      6  C   UNL     1       1.130  -0.680  -0.204  0.00  0.00    +0.177 A 
ATOM      7 CL   UNL     1       3.739  -0.921   0.495  0.00  0.00    -0.080 Cl
ENDROOT
BRANCH   3   8
ATOM      8  C   UNL     1       1.175   3.558   0.009  0.00  0.00    +0.028 C 
ATOM      9  C   UNL     1       0.108   4.225   0.520  0.00  0.00    +0.080 C 
ATOM     10  C   UNL     1      -1.091   3.700   1.202  0.00  0.00    +0.258 C 
ATOM     11  O   UNL     1      -1.250   2.508   1.389  0.00  0.00    -0.269 OA
ATOM     12  N   UNL     1      -1.984   4.590   1.601  0.00  0.00    -0.243 N 
ATOM     13  C   UNL     1      -1.804   5.910   1.392  0.00  0.00    +0.283 C 
ATOM     14  O   UNL     1      -2.535   6.831   1.703  0.00  0.00    -0.262 OA
ATOM     15  S   UNL     1      -0.227   5.980   0.557  0.00  0.00    -0.026 S 
ATOM     16  H   UNL     1      -2.786   4.287   2.053  0.00  0.00    +0.159 HD
ENDBRANCH   3   8
BRANCH   6  17
ATOM     17  O   UNL     1       1.117  -2.037  -0.273  0.00  0.00    -0.502 OA
ATOM     18  H   UNL     1       1.345  -2.389  -1.144  0.00  0.00    +0.292 HD
ENDBRANCH   6  17
BRANCH   1  19
ATOM     19  O   UNL     1      -1.171  -0.614  -0.827  0.00  0.00    -0.489 OA
BRANCH  19  21
ATOM     20  C   UNL     1      -3.499  -0.719  -1.466  0.00  0.00    +0.048 C 
ATOM     21  C   UNL     1      -2.321   0.188  -1.102  0.00  0.00    +0.226 C 
ENDBRANCH  19  21
ENDBRANCH   1  19
TORSDOF 4
