REMARK  Name = ZINC20536960
REMARK  7 active torsions:
REMARK  status: ('A' for Active; 'I' for Inactive)
REMARK    1  A    between atoms: C_4  and  C_7
REMARK    2  A    between atoms: C_8  and  C_9
REMARK    3  A    between atoms: C_9  and  N_10
REMARK    4  A    between atoms: C_16  and  C_18
REMARK    5  A    between atoms: C_18  and  C_19
REMARK    6  A    between atoms: N_21  and  C_22
REMARK    7  A    between atoms: C_22  and  C_23
REMARK                            x       y       z     vdW  Elec       q    Type
REMARK                         _______ _______ _______ _____ _____    ______ ____
ROOT
ATOM      1  N   UNL     1      -0.032   0.041  -0.023  0.00  0.00    +0.391 N 
ATOM      2  C   UNL     1       0.389  -0.475  -1.336  0.00  0.00    -0.058 C 
ATOM      3  C   UNL     1       0.759  -1.952  -1.188  0.00  0.00    +0.085 C 
ATOM      4  N   UNL     1      -0.310  -2.669  -0.499  0.00  0.00    -0.318 N 
ATOM      5  C   UNL     1      -1.250  -2.052   0.224  0.00  0.00    +0.200 C 
ATOM      6  O   UNL     1      -2.085  -2.727   0.789  0.00  0.00    -0.278 OA
ATOM      7  C   UNL     1      -1.316  -0.558   0.368  0.00  0.00    +0.028 C 
ATOM      8  H   UNL     1      -0.367  -3.766  -0.564  0.00  0.00    +0.149 HD
ATOM      9  H   UNL     1       0.724  -0.242   0.724  0.00  0.00    -0.080 HD
ENDROOT
BRANCH   1  10
ATOM     10  C   UNL     1      -0.117   1.507  -0.035  0.00  0.00    -0.050 C 
BRANCH  10  12
ATOM     11  C   UNL     1       1.616   2.946  -1.012  0.00  0.00    +0.002 C 
ATOM     12  C   UNL     1       1.272   2.091  -0.059  0.00  0.00    -0.045 C 
BRANCH  11  16
ATOM     13  C   UNL     1       5.531   4.590  -1.077  0.00  0.00    +0.000 A 
ATOM     14  C   UNL     1       4.617   4.949  -2.051  0.00  0.00    +0.001 A 
ATOM     15  C   UNL     1       3.344   4.418  -2.036  0.00  0.00    +0.008 A 
ATOM     16  C   UNL     1       2.978   3.518  -1.034  0.00  0.00    -0.025 A 
ATOM     17  C   UNL     1       3.903   3.165  -0.051  0.00  0.00    +0.008 A 
ATOM     18  C   UNL     1       5.175   3.698  -0.081  0.00  0.00    +0.001 A 
ENDBRANCH  11  16
ENDBRANCH  10  12
ENDBRANCH   1  10
BRANCH   7  19
ATOM     19  C   UNL     1      -1.621  -0.200   1.824  0.00  0.00    +0.089 C 
BRANCH  19  20
ATOM     20  C   UNL     1      -0.501  -0.688   2.706  0.00  0.00    +0.212 C 
ATOM     21  O   UNL     1       0.492  -1.177   2.210  0.00  0.00    -0.276 OA
ATOM     22  N   UNL     1      -0.602  -0.580   4.045  0.00  0.00    -0.310 N 
ATOM     23  H   UNL     1      -1.503  -0.136   4.495  0.00  0.00    +0.149 HD
BRANCH  22  24
ATOM     24  C   UNL     1       0.487  -1.053   4.903  0.00  0.00    +0.161 C 
BRANCH  24  25
ATOM     25  C   UNL     1       0.127  -0.819   6.348  0.00  0.00    +0.077 A 
ATOM     26  C   UNL     1      -0.437  -1.713   7.170  0.00  0.00    +0.113 A 
ATOM     27  N   UNL     1      -0.602  -1.097   8.413  0.00  0.00    -0.324 N 
ATOM     28  C   UNL     1      -0.113   0.159   8.254  0.00  0.00    +0.169 A 
ATOM     29  N   UNL     1       0.323   0.319   7.032  0.00  0.00    -0.225 NA
ATOM     30  S   UNL     1      -0.302   0.986   9.816  0.00  0.00    -0.086 S 
ATOM     31  C   UNL     1      -1.072  -0.370  10.777  0.00  0.00    +0.099 C 
ATOM     32  C   UNL     1      -1.137  -1.482   9.717  0.00  0.00    +0.135 C 
ENDBRANCH  24  25
ENDBRANCH  22  24
ENDBRANCH  19  20
ENDBRANCH   7  19
TORSDOF 7
