REMARK  Name = ZINC13178448
REMARK  9 active torsions:
REMARK  status: ('A' for Active; 'I' for Inactive)
REMARK    1  A    between atoms: C_1  and  N_2
REMARK    2  A    between atoms: N_2  and  C_3
REMARK    3  A    between atoms: N_2  and  S_4
REMARK    4  A    between atoms: S_4  and  C_7
REMARK    5  A    between atoms: C_9  and  C_15
REMARK    6  A    between atoms: C_12  and  O_13
REMARK    7  A    between atoms: O_13  and  C_14
REMARK    8  A    between atoms: N_17  and  C_18
REMARK    9  A    between atoms: C_23  and  C_24
REMARK                            x       y       z     vdW  Elec       q    Type
REMARK                         _______ _______ _______ _____ _____    ______ ____
ROOT
ATOM      1  C   UNL     1      -1.933  -1.101  -1.671  0.00  0.00    +0.148 A 
ATOM      2  C   UNL     1      -1.957  -2.378  -2.186  0.00  0.00    +0.045 A 
ATOM      3  C   UNL     1      -2.324  -2.585  -3.518  0.00  0.00    +0.039 A 
ATOM      4  C   UNL     1      -2.665  -1.494  -4.323  0.00  0.00    +0.017 A 
ATOM      5  C   UNL     1      -2.638  -0.221  -3.800  0.00  0.00    +0.048 A 
ATOM      6  C   UNL     1      -2.278  -0.020  -2.472  0.00  0.00    +0.146 A 
ENDROOT
BRANCH   3   7
ATOM      7  C   UNL     1      -2.351  -3.951  -4.075  0.00  0.00    +0.248 C 
ATOM      8  O   UNL     1      -2.055  -4.899  -3.373  0.00  0.00    -0.270 OA
ATOM      9  N   UNL     1      -2.705  -4.149  -5.360  0.00  0.00    -0.281 N 
ATOM     10  H   UNL     1      -3.005  -3.401  -5.901  0.00  0.00    +0.155 HD
BRANCH   9  11
ATOM     11  C   UNL     1      -2.641  -5.425  -5.912  0.00  0.00    +0.048 A 
ATOM     12  C   UNL     1      -2.939  -6.537  -5.134  0.00  0.00    +0.025 A 
ATOM     13  C   UNL     1      -2.875  -7.801  -5.683  0.00  0.00    +0.017 A 
ATOM     14  C   UNL     1      -2.514  -7.973  -7.010  0.00  0.00    +0.019 A 
ATOM     15  C   UNL     1      -2.215  -6.882  -7.797  0.00  0.00    +0.032 A 
ATOM     16  C   UNL     1      -2.281  -5.594  -7.257  0.00  0.00    +0.085 A 
ATOM     17 BR   UNL     1      -2.430  -9.714  -7.745  0.00  0.00    -0.050 Br
BRANCH  16  18
ATOM     18  C   UNL     1      -1.969  -4.422  -8.094  0.00  0.00    +0.388 C 
ATOM     19  O   UNL     1      -1.929  -3.314  -7.598  0.00  0.00    -0.241 OA
ATOM     20  O   UNL     1      -1.728  -4.580  -9.411  0.00  0.00    -0.241 OA
ENDBRANCH  16  18
ENDBRANCH   9  11
ENDBRANCH   3   7
BRANCH   1  21
ATOM     21  S   UNL     1      -1.471  -0.840   0.010  0.00  0.00    +0.064 S 
ATOM     22  O   UNL     1      -1.161  -2.117   0.549  0.00  0.00    -0.153 OA
ATOM     23  O   UNL     1      -2.462   0.006   0.576  0.00  0.00    -0.153 OA
BRANCH  21  25
ATOM     24  C   UNL     1      -0.098   1.491   0.010  0.00  0.00    +0.131 C 
ATOM     25  N   UNL     1      -0.059   0.026   0.000  0.00  0.00    -0.183 NA
ATOM     26  C   UNL     1       1.228  -0.672  -0.018  0.00  0.00    +0.131 C 
ENDBRANCH  21  25
ENDBRANCH   1  21
BRANCH   6  27
ATOM     27  O   UNL     1      -2.258   1.236  -1.959  0.00  0.00    -0.493 OA
ATOM     28  C   UNL     1      -2.623   2.302  -2.838  0.00  0.00    +0.277 C 
ENDBRANCH   6  27
TORSDOF 6
