REMARK  Name = ZINC41963301
REMARK  9 active torsions:
REMARK  status: ('A' for Active; 'I' for Inactive)
REMARK    1  A    between atoms: C_1  and  C_2
REMARK    2  A    between atoms: C_2  and  C_24
REMARK    3  A    between atoms: N_5  and  C_9
REMARK    4  A    between atoms: C_9  and  C_10
REMARK    5  A    between atoms: N_12  and  N_13
REMARK    6  A    between atoms: N_13  and  C_14
REMARK    7  A    between atoms: C_14  and  N_16
REMARK    8  A    between atoms: N_16  and  C_17
REMARK    9  A    between atoms: C_17  and  C_18
REMARK                            x       y       z     vdW  Elec       q    Type
REMARK                         _______ _______ _______ _____ _____    ______ ____
ROOT
ATOM      1  C   UNL     1       3.998  -0.950  -1.696  0.00  0.00    +0.247 C 
ATOM      2  O   UNL     1       3.959   0.180  -1.258  0.00  0.00    -0.273 OA
ATOM      3  N   UNL     1       5.066  -1.360  -2.409  0.00  0.00    -0.234 N 
ATOM      4  H   UNL     1       5.097  -2.264  -2.760  0.00  0.00    +0.173 HD
ENDROOT
BRANCH   3   5
ATOM      5  N   UNL     1       6.130  -0.480  -2.644  0.00  0.00    -0.246 N 
ATOM      6  H   UNL     1       6.099   0.424  -2.294  0.00  0.00    +0.172 HD
BRANCH   5   7
ATOM      7  C   UNL     1       7.198  -0.890  -3.358  0.00  0.00    +0.147 C 
ATOM      8  S   UNL     1       8.499   0.185  -3.645  0.00  0.00    -0.017 S 
BRANCH   7   9
ATOM      9  N   UNL     1       7.242  -2.146  -3.845  0.00  0.00    -0.321 N 
ATOM     10  H   UNL     1       6.504  -2.755  -3.682  0.00  0.00    +0.148 HD
BRANCH   9  11
ATOM     11  C   UNL     1       8.402  -2.591  -4.620  0.00  0.00    +0.138 C 
BRANCH  11  12
ATOM     12  C   UNL     1       8.203  -4.023  -5.044  0.00  0.00    -0.030 A 
ATOM     13  C   UNL     1       8.637  -5.052  -4.229  0.00  0.00    +0.005 A 
ATOM     14  C   UNL     1       8.454  -6.366  -4.618  0.00  0.00    +0.000 A 
ATOM     15  C   UNL     1       7.838  -6.651  -5.822  0.00  0.00    +0.000 A 
ATOM     16  C   UNL     1       7.403  -5.622  -6.637  0.00  0.00    +0.000 A 
ATOM     17  C   UNL     1       7.582  -4.308  -6.246  0.00  0.00    +0.005 A 
ENDBRANCH  11  12
ENDBRANCH   9  11
ENDBRANCH   7   9
ENDBRANCH   5   7
ENDBRANCH   3   5
BRANCH   1  18
ATOM     18  C   UNL     1       2.853  -1.896  -1.443  0.00  0.00    +0.215 C 
BRANCH  18  23
ATOM     19  C   UNL     1      -0.019   1.526   0.010  0.00  0.00    +0.041 C 
ATOM     20  C   UNL     1       0.002  -0.004   0.002  0.00  0.00    +0.107 C 
ATOM     21  C   UNL     1       0.799  -0.520  -1.180  0.00  0.00    +0.246 C 
ATOM     22  O   UNL     1       0.564  -0.342  -2.356  0.00  0.00    -0.273 OA
ATOM     23  N   UNL     1       1.824  -1.217  -0.651  0.00  0.00    -0.215 N 
ATOM     24  C   UNL     1       1.786  -1.214   0.686  0.00  0.00    +0.310 C 
ATOM     25  O   UNL     1       2.604  -1.776   1.387  0.00  0.00    -0.252 OA
ATOM     26  N   UNL     1       0.740  -0.519   1.169  0.00  0.00    -0.285 N 
ATOM     27  C   UNL     1      -1.423  -0.560  -0.022  0.00  0.00    +0.041 C 
ATOM     28  H   UNL     1       0.515  -0.383   2.102  0.00  0.00    +0.151 HD
ENDBRANCH  18  23
ENDBRANCH   1  18
TORSDOF 7
