REMARK  Name = ZINC13064176
REMARK  12 active torsions:
REMARK  status: ('A' for Active; 'I' for Inactive)
REMARK    1  A    between atoms: C_1  and  C_2
REMARK    2  A    between atoms: C_2  and  C_3
REMARK    3  A    between atoms: C_3  and  C_5
REMARK    4  A    between atoms: C_3  and  N_65
REMARK    5  A    between atoms: N_9  and  C_10
REMARK    6  A    between atoms: C_10  and  C_11
REMARK    7  A    between atoms: C_16  and  C_17
REMARK    8  A    between atoms: C_16  and  N_65
REMARK    9  A    between atoms: C_21  and  O_29
REMARK   10  A    between atoms: O_29  and  C_30
REMARK   11  A    between atoms: C_31  and  C_32
REMARK   12  A    between atoms: C_31  and  N_65
REMARK                            x       y       z     vdW  Elec       q    Type
REMARK                         _______ _______ _______ _____ _____    ______ ____
ROOT
ATOM      1  N   UNL     1      -2.927  -2.201   2.167  0.00  0.00    +0.391 N 
ATOM      2  H   UNL     1      -3.038  -2.227   3.188  0.00  0.00    -0.080 HD
ENDROOT
BRANCH   1   3
ATOM      3  C   UNL     1      -2.240  -0.947   1.792  0.00  0.00    +0.003 C 
BRANCH   3   4
ATOM      4  C   UNL     1      -2.429  -0.661   0.325  0.00  0.00    +0.139 A 
ATOM      5  N   UNL     1      -3.547  -0.752  -0.353  0.00  0.00    -0.115 NA
ATOM      6  N   UNL     1      -3.299  -0.431  -1.576  0.00  0.00    -0.023 NA
ATOM      7  N   UNL     1      -2.052  -0.133  -1.695  0.00  0.00    -0.044 NA
ATOM      8  N   UNL     1      -1.482  -0.260  -0.544  0.00  0.00    -0.223 N 
BRANCH   8   9
ATOM      9  C   UNL     1      -0.069  -0.018  -0.241  0.00  0.00    +0.221 C 
BRANCH   9  10
ATOM     10  C   UNL     1       0.119   1.423   0.158  0.00  0.00    +0.126 A 
ATOM     11  C   UNL     1       0.040   1.909   1.410  0.00  0.00    +0.046 A 
ATOM     12  C   UNL     1       0.287   3.298   1.327  0.00  0.00    +0.041 A 
ATOM     13  C   UNL     1       0.498   3.579   0.028  0.00  0.00    +0.195 A 
ATOM     14  O   UNL     1       0.392   2.440  -0.675  0.00  0.00    -0.466 OA
ENDBRANCH   9  10
ENDBRANCH   8   9
ENDBRANCH   3   4
BRANCH   3  16
ATOM     15  C   UNL     1      -2.586  -0.061   4.103  0.00  0.00    +0.002 C 
ATOM     16  C   UNL     1      -2.830   0.200   2.615  0.00  0.00    -0.011 C 
ENDBRANCH   3  16
ENDBRANCH   1   3
BRANCH   1  17
ATOM     17  C   UNL     1      -2.121  -3.365   1.742  0.00  0.00    -0.036 C 
BRANCH  17  18
ATOM     18  C   UNL     1      -2.021  -3.418   0.239  0.00  0.00    +0.001 A 
ATOM     19  C   UNL     1      -0.952  -2.868  -0.387  0.00  0.00    +0.017 A 
ATOM     20  C   UNL     1      -0.884  -2.936  -1.848  0.00  0.00    +0.002 A 
ATOM     21  C   UNL     1       0.195  -2.386  -2.547  0.00  0.00    +0.055 A 
ATOM     22  C   UNL     1       0.227  -2.468  -3.925  0.00  0.00    +0.121 A 
ATOM     23  C   UNL     1      -0.808  -3.095  -4.616  0.00  0.00    +0.047 A 
ATOM     24  C   UNL     1      -1.875  -3.640  -3.938  0.00  0.00    +0.030 A 
ATOM     25  C   UNL     1      -1.928  -3.567  -2.550  0.00  0.00    +0.049 A 
ATOM     26  N   UNL     1      -2.989  -4.108  -1.853  0.00  0.00    -0.322 N 
ATOM     27  H   UNL     1      -3.708  -4.543  -2.338  0.00  0.00    +0.169 HD
ATOM     28  C   UNL     1      -3.039  -4.045  -0.511  0.00  0.00    +0.251 A 
ATOM     29  O   UNL     1      -3.989  -4.538   0.072  0.00  0.00    -0.268 OA
BRANCH  22  30
ATOM     30  O   UNL     1       1.274  -1.936  -4.610  0.00  0.00    -0.495 OA
ATOM     31  C   UNL     1       1.245  -2.055  -6.034  0.00  0.00    +0.277 C 
ENDBRANCH  22  30
ENDBRANCH  17  18
ENDBRANCH   1  17
BRANCH   1  32
ATOM     32  C   UNL     1      -4.262  -2.253   1.536  0.00  0.00    -0.045 C 
BRANCH  32  33
ATOM     33  C   UNL     1      -5.093  -3.331   2.236  0.00  0.00    +0.102 C 
ATOM     34  C   UNL     1      -6.477  -3.465   1.561  0.00  0.00    +0.032 C 
ATOM     35  C   UNL     1      -7.444  -3.731   2.737  0.00  0.00    +0.030 C 
ATOM     36  C   UNL     1      -6.530  -3.726   3.983  0.00  0.00    +0.160 C 
ATOM     37  O   UNL     1      -5.382  -2.939   3.595  0.00  0.00    -0.378 OA
ENDBRANCH  32  33
ENDBRANCH   1  32
TORSDOF 10
