REMARK  Name = ZINC41209544
REMARK  10 active torsions:
REMARK  status: ('A' for Active; 'I' for Inactive)
REMARK    1  A    between atoms: C_1  and  C_2
REMARK    2  A    between atoms: C_3  and  S_9
REMARK    3  A    between atoms: C_4  and  C_8
REMARK    4  A    between atoms: S_9  and  N_12
REMARK    5  A    between atoms: N_12  and  C_13
REMARK    6  A    between atoms: N_12  and  C_14
REMARK    7  A    between atoms: C_14  and  C_15
REMARK    8  A    between atoms: N_17  and  C_18
REMARK    9  A    between atoms: C_21  and  C_24
REMARK   10  A    between atoms: C_24  and  C_26
REMARK                            x       y       z     vdW  Elec       q    Type
REMARK                         _______ _______ _______ _____ _____    ______ ____
ROOT
ATOM      1  C   UNL     1       2.257   1.209  -3.060  0.00  0.00    +0.205 C 
ENDROOT
BRANCH   1   2
ATOM      2  C   UNL     1       3.017   1.189  -1.759  0.00  0.00    +0.233 C 
ATOM      3  O   UNL     1       2.987   0.203  -1.054  0.00  0.00    -0.274 OA
ATOM      4  N   UNL     1       3.729   2.268  -1.378  0.00  0.00    -0.284 N 
ATOM      5  H   UNL     1       3.808   3.032  -1.971  0.00  0.00    +0.155 HD
BRANCH   4   6
ATOM      6  C   UNL     1       4.353   2.287  -0.133  0.00  0.00    +0.033 A 
ATOM      7  C   UNL     1       4.435   3.477   0.585  0.00  0.00    +0.024 A 
ATOM      8  C   UNL     1       5.048   3.500   1.811  0.00  0.00    +0.013 A 
ATOM      9  C   UNL     1       5.592   2.324   2.341  0.00  0.00    +0.017 A 
ATOM     10  C   UNL     1       5.508   1.129   1.616  0.00  0.00    +0.013 A 
ATOM     11  C   UNL     1       4.888   1.114   0.393  0.00  0.00    +0.024 A 
BRANCH   9  12
ATOM     12  C   UNL     1       6.250   2.344   3.654  0.00  0.00    +0.160 C 
ATOM     13  O   UNL     1       6.323   3.380   4.280  0.00  0.00    -0.292 OA
ATOM     14  C   UNL     1       6.835   1.077   4.223  0.00  0.00    +0.091 C 
ENDBRANCH   9  12
ENDBRANCH   4   6
ENDBRANCH   1   2
BRANCH   1  15
ATOM     15  N   UNL     1       1.570  -0.072  -3.244  0.00  0.00    -0.171 NA
ATOM     16  C   UNL     1       2.281  -1.206  -3.838  0.00  0.00    +0.132 C 
BRANCH  15  17
ATOM     17  S   UNL     1      -0.011  -0.237  -2.779  0.00  0.00    +0.064 S 
ATOM     18  O   UNL     1      -0.551  -1.303  -3.548  0.00  0.00    -0.153 OA
ATOM     19  O   UNL     1      -0.575   1.067  -2.784  0.00  0.00    -0.153 OA
BRANCH  17  22
ATOM     20  C   UNL     1      -0.030   1.527  -0.008  0.00  0.00    +0.067 C 
ATOM     21  C   UNL     1      -0.017   0.020  -0.009  0.00  0.00    +0.060 A 
ATOM     22  C   UNL     1      -0.008  -0.777  -1.102  0.00  0.00    +0.148 A 
ATOM     23  C   UNL     1       0.004  -2.106  -0.665  0.00  0.00    +0.086 A 
ATOM     24  N   UNL     1       0.003  -2.106   0.643  0.00  0.00    -0.177 NA
ATOM     25  N   UNL     1      -0.005  -0.776   1.081  0.00  0.00    -0.280 N 
ATOM     26  H   UNL     1      -0.004  -0.479   2.005  0.00  0.00    +0.189 HD
ATOM     27  C   UNL     1       0.016  -3.327  -1.549  0.00  0.00    +0.069 C 
ENDBRANCH  17  22
ENDBRANCH  15  17
ENDBRANCH   1  15
TORSDOF 6
