REMARK  Name = ZINC38677099
REMARK  5 active torsions:
REMARK  status: ('A' for Active; 'I' for Inactive)
REMARK    1  A    between atoms: C_6  and  C_7
REMARK    2  A    between atoms: C_10  and  C_12
REMARK    3  A    between atoms: C_12  and  N_13
REMARK    4  A    between atoms: N_13  and  S_14
REMARK    5  A    between atoms: S_14  and  C_17
REMARK                            x       y       z     vdW  Elec       q    Type
REMARK                         _______ _______ _______ _____ _____    ______ ____
ROOT
ATOM      1  S   UNL     1      -6.907  -0.427   1.755  0.00  0.00    +0.059 S 
ATOM      2  O   UNL     1      -7.076  -0.519   3.163  0.00  0.00    -0.153 OA
ATOM      3  O   UNL     1      -7.053   0.798   1.048  0.00  0.00    -0.153 OA
ENDROOT
BRANCH   1   4
ATOM      4  C   UNL     1      -8.046  -1.562   1.035  0.00  0.00    +0.107 A 
ATOM      5  C   UNL     1      -8.472  -1.355  -0.292  0.00  0.00    +0.030 A 
ATOM      6  C   UNL     1      -9.344  -2.189  -0.902  0.00  0.00    +0.027 A 
ATOM      7  C   UNL     1      -9.852  -3.310  -0.195  0.00  0.00    +0.055 A 
ATOM      8  N   UNL     1     -10.702  -4.139  -0.763  0.00  0.00    -0.276 N 
ATOM      9  C   UNL     1     -11.171  -5.199  -0.072  0.00  0.00    +0.304 C 
ATOM     10  O   UNL     1     -11.955  -5.968  -0.589  0.00  0.00    -0.265 OA
ATOM     11  C   UNL     1     -10.719  -5.419   1.337  0.00  0.00    +0.304 C 
ATOM     12  O   UNL     1     -11.132  -6.368   1.971  0.00  0.00    -0.265 OA
ATOM     13  N   UNL     1      -9.847  -4.556   1.898  0.00  0.00    -0.276 N 
ATOM     14  C   UNL     1      -9.402  -3.529   1.204  0.00  0.00    +0.057 A 
ATOM     15  C   UNL     1      -8.481  -2.610   1.770  0.00  0.00    +0.053 A 
ATOM     16  H   UNL     1      -9.548  -4.691   2.811  0.00  0.00    +0.155 HD
ATOM     17  H   UNL     1     -10.991  -3.989  -1.677  0.00  0.00    +0.155 HD
ENDBRANCH   1   4
BRANCH   1  18
ATOM     18  N   UNL     1      -5.383  -0.985   1.423  0.00  0.00    -0.183 NA
ATOM     19  H   UNL     1      -4.805  -1.274   2.147  0.00  0.00    +0.148 HD
BRANCH  18  20
ATOM     20  C   UNL     1      -4.909  -1.042   0.039  0.00  0.00    +0.180 C 
BRANCH  20  24
ATOM     21  C   UNL     1      -1.266  -0.763   0.011  0.00  0.00    +0.135 A 
ATOM     22  C   UNL     1      -1.385  -2.118   0.010  0.00  0.00    +0.050 A 
ATOM     23  C   UNL     1      -2.765  -2.404   0.021  0.00  0.00    +0.046 A 
ATOM     24  C   UNL     1      -3.413  -1.223   0.027  0.00  0.00    +0.121 A 
ATOM     25  O   UNL     1      -2.504  -0.234   0.026  0.00  0.00    -0.458 OA
BRANCH  21  31
ATOM     26  C   UNL     1      -0.017   1.392   0.010  0.00  0.00    +0.012 A 
ATOM     27  C   UNL     1       1.170   2.095   0.002  0.00  0.00    +0.016 A 
ATOM     28  C   UNL     1       2.378   1.419  -0.013  0.00  0.00    +0.018 A 
ATOM     29  C   UNL     1       2.404   0.035  -0.021  0.00  0.00    +0.016 A 
ATOM     30  C   UNL     1       1.224  -0.680  -0.013  0.00  0.00    +0.012 A 
ATOM     31  C   UNL     1       0.002  -0.004   0.002  0.00  0.00    +0.017 A 
ATOM     32 BR   UNL     1       4.000   2.390  -0.025  0.00  0.00    -0.050 Br
ENDBRANCH  21  31
ENDBRANCH  20  24
ENDBRANCH  18  20
ENDBRANCH   1  18
TORSDOF 5
