REMARK  Name = ZINC63592182
REMARK  9 active torsions:
REMARK  status: ('A' for Active; 'I' for Inactive)
REMARK    1  A    between atoms: C_1  and  C_2
REMARK    2  A    between atoms: C_2  and  C_3
REMARK    3  A    between atoms: C_2  and  C_4
REMARK    4  A    between atoms: C_4  and  C_5
REMARK    5  A    between atoms: C_7  and  C_10
REMARK    6  A    between atoms: N_12  and  C_13
REMARK    7  A    between atoms: C_16  and  N_19
REMARK    8  A    between atoms: C_20  and  N_26
REMARK    9  A    between atoms: C_21  and  C_24
REMARK                            x       y       z     vdW  Elec       q    Type
REMARK                         _______ _______ _______ _____ _____    ______ ____
ROOT
ATOM      1  C   UNL     1       6.622  -2.742   0.766  0.00  0.00    +0.034 A 
ATOM      2  C   UNL     1       6.683  -4.126   0.666  0.00  0.00    +0.025 A 
ATOM      3  C   UNL     1       7.815  -4.799   1.078  0.00  0.00    +0.029 A 
ATOM      4  C   UNL     1       8.894  -4.092   1.594  0.00  0.00    +0.068 A 
ATOM      5  C   UNL     1       8.834  -2.708   1.694  0.00  0.00    +0.029 A 
ATOM      6  C   UNL     1       7.704  -2.035   1.276  0.00  0.00    +0.025 A 
ENDROOT
BRANCH   4   7
ATOM      7  N   UNL     1      10.044  -4.776   2.013  0.00  0.00    -0.218 N 
ATOM      8  C   UNL     1      11.315  -4.326   1.906  0.00  0.00    +0.137 A 
ATOM      9  C   UNL     1      12.143  -5.309   2.441  0.00  0.00    +0.111 A 
ATOM     10  C   UNL     1      11.308  -6.365   2.872  0.00  0.00    +0.155 A 
ATOM     11  N   UNL     1      10.071  -6.037   2.619  0.00  0.00    -0.172 NA
BRANCH   8  12
ATOM     12  N   UNL     1      11.715  -3.118   1.367  0.00  0.00    -0.342 N 
ATOM     13  H   UNL     1      11.054  -2.500   1.018  0.00  0.00    +0.144 HD
ATOM     14  H   UNL     1      12.657  -2.889   1.337  0.00  0.00    +0.144 HD
ENDBRANCH   8  12
BRANCH   9  15
ATOM     15  C   UNL     1      13.571  -5.259   2.536  0.00  0.00    +0.104 C 
ATOM     16  N   UNL     1      14.704  -5.220   2.612  0.00  0.00    -0.191 NA
ENDBRANCH   9  15
ENDBRANCH   4   7
BRANCH   1  19
ATOM     17  C   UNL     1       5.585  -0.847  -0.232  0.00  0.00    +0.267 C 
ATOM     18  O   UNL     1       6.673  -0.309  -0.315  0.00  0.00    -0.268 OA
ATOM     19  N   UNL     1       5.474  -2.059   0.348  0.00  0.00    -0.280 N 
ATOM     20  H   UNL     1       4.600  -2.458   0.474  0.00  0.00    +0.155 HD
BRANCH  17  23
ATOM     21  C   UNL     1       2.161  -0.070  -1.187  0.00  0.00    +0.079 A 
ATOM     22  N   UNL     1       3.174  -0.729  -0.693  0.00  0.00    -0.239 NA
ATOM     23  C   UNL     1       4.388  -0.174  -0.763  0.00  0.00    +0.133 A 
ATOM     24  C   UNL     1       4.453   1.057  -1.359  0.00  0.00    +0.080 A 
ATOM     25  S   UNL     1       2.851   1.343  -1.776  0.00  0.00    -0.080 S 
BRANCH  21  26
ATOM     26  C   UNL     1       0.713  -0.483  -1.225  0.00  0.00    +0.066 C 
BRANCH  26  28
ATOM     27  C   UNL     1      -0.009   1.544   0.045  0.00  0.00    +0.007 C 
ATOM     28  C   UNL     1       0.007   0.014   0.038  0.00  0.00    -0.011 C 
ATOM     29  C   UNL     1      -1.430  -0.510   0.059  0.00  0.00    +0.007 C 
ENDBRANCH  26  28
ENDBRANCH  21  26
ENDBRANCH  17  23
ENDBRANCH   1  19
TORSDOF 7
