REMARK  Name = ZINC16478545
REMARK  4 active torsions:
REMARK  status: ('A' for Active; 'I' for Inactive)
REMARK    1  A    between atoms: C_4  and  C_7
REMARK    2  A    between atoms: N_18  and  S_19
REMARK    3  A    between atoms: S_19  and  C_22
REMARK    4  A    between atoms: C_25  and  N_28
REMARK                            x       y       z     vdW  Elec       q    Type
REMARK                         _______ _______ _______ _____ _____    ______ ____
ROOT
ATOM      1  C   UNL     1      -1.886   0.973  -1.912  0.00  0.00    +0.161 C 
ATOM      2  C   UNL     1      -2.648   1.484  -3.112  0.00  0.00    +0.000 A 
ATOM      3  C   UNL     1      -3.597   0.710  -3.739  0.00  0.00    +0.008 A 
ATOM      4  C   UNL     1      -4.272   1.210  -4.840  0.00  0.00    +0.000 A 
ATOM      5  C   UNL     1      -3.992   2.482  -5.306  0.00  0.00    +0.002 A 
ATOM      6  C   UNL     1      -3.040   3.261  -4.677  0.00  0.00    +0.023 A 
ATOM      7  C   UNL     1      -2.361   2.765  -3.573  0.00  0.00    +0.038 A 
ATOM      8  N   UNL     1      -1.396   3.536  -2.924  0.00  0.00    -0.295 N 
ATOM      9  C   UNL     1      -0.715   3.103  -1.856  0.00  0.00    +0.158 C 
ATOM     10  S   UNL     1       0.444   4.146  -1.149  0.00  0.00    -0.017 S 
ATOM     11  N   UNL     1      -0.897   1.885  -1.312  0.00  0.00    -0.171 N 
ATOM     12  H   UNL     1      -1.211   4.426  -3.262  0.00  0.00    +0.154 HD
ENDROOT
BRANCH   1  16
ATOM     13  C   UNL     1      -4.733  -0.050   1.105  0.00  0.00    +0.000 A 
ATOM     14  C   UNL     1      -4.289  -1.013   0.218  0.00  0.00    +0.000 A 
ATOM     15  C   UNL     1      -3.368  -0.682  -0.758  0.00  0.00    +0.006 A 
ATOM     16  C   UNL     1      -2.891   0.612  -0.848  0.00  0.00    -0.021 A 
ATOM     17  C   UNL     1      -3.331   1.574   0.042  0.00  0.00    +0.006 A 
ATOM     18  C   UNL     1      -4.256   1.245   1.015  0.00  0.00    +0.000 A 
ENDBRANCH   1  16
BRANCH  11  19
ATOM     19  S   UNL     1      -0.017   1.417   0.010  0.00  0.00    +0.077 S 
ATOM     20  O   UNL     1       0.002  -0.004   0.002  0.00  0.00    -0.150 OA
ATOM     21  O   UNL     1       1.172   2.195   0.003  0.00  0.00    -0.150 OA
BRANCH  19  22
ATOM     22  C   UNL     1      -0.927   1.900   1.439  0.00  0.00    +0.109 A 
ATOM     23  C   UNL     1      -0.717   3.145   2.004  0.00  0.00    +0.031 A 
ATOM     24  C   UNL     1      -1.434   3.526   3.123  0.00  0.00    +0.034 A 
ATOM     25  C   UNL     1      -2.354   2.659   3.683  0.00  0.00    +0.126 A 
ATOM     26  C   UNL     1      -2.559   1.412   3.121  0.00  0.00    +0.034 A 
ATOM     27  C   UNL     1      -1.846   1.033   2.000  0.00  0.00    +0.031 A 
BRANCH  25  28
ATOM     28  N   UNL     1      -3.118   3.065   4.883  0.00  0.00    +0.056 N 
ATOM     29  O   UNL     1      -3.929   2.301   5.376  0.00  0.00    -0.126 OA
ATOM     30  O   UNL     1      -2.937   4.163   5.378  0.00  0.00    -0.126 OA
ENDBRANCH  25  28
ENDBRANCH  19  22
ENDBRANCH  11  19
TORSDOF 4
