REMARK  Name = ZINC63844200
REMARK  9 active torsions:
REMARK  status: ('A' for Active; 'I' for Inactive)
REMARK    1  A    between atoms: C_1  and  C_2
REMARK    2  A    between atoms: C_2  and  C_3
REMARK    3  A    between atoms: C_3  and  C_33
REMARK    4  A    between atoms: N_6  and  C_10
REMARK    5  A    between atoms: C_10  and  C_11
REMARK    6  A    between atoms: N_13  and  C_14
REMARK    7  A    between atoms: C_14  and  C_15
REMARK    8  A    between atoms: C_15  and  C_17
REMARK    9  A    between atoms: C_15  and  C_24
REMARK                            x       y       z     vdW  Elec       q    Type
REMARK                         _______ _______ _______ _____ _____    ______ ____
ROOT
ATOM      1  C   UNL     1       4.819  -6.667  -2.151  0.00  0.00    +0.066 C 
ENDROOT
BRANCH   1   2
ATOM      2  C   UNL     1       4.963  -7.077  -3.595  0.00  0.00    -0.033 C 
ATOM      3  C   UNL     1       4.455  -8.185  -4.180  0.00  0.00    -0.000 A 
ATOM      4  C   UNL     1       3.647  -9.298  -3.668  0.00  0.00    +0.010 A 
ATOM      5  C   UNL     1       3.282 -10.288  -4.515  0.00  0.00    +0.001 A 
ATOM      6  C   UNL     1       3.655 -10.276  -5.866  0.00  0.00    +0.002 A 
ATOM      7  C   UNL     1       4.396  -9.288  -6.410  0.00  0.00    +0.026 A 
ATOM      8  C   UNL     1       4.835  -8.196  -5.611  0.00  0.00    +0.043 A 
ATOM      9  N   UNL     1       5.551  -7.136  -5.899  0.00  0.00    -0.380 N 
ATOM     10  C   UNL     1       5.701  -6.329  -4.683  0.00  0.00    +0.145 C 
ATOM     11  H   UNL     1       5.917  -6.920  -6.770  0.00  0.00    +0.160 HD
ENDBRANCH   1   2
BRANCH   1  12
ATOM     12  C   UNL     1       6.184  -6.558  -1.521  0.00  0.00    -0.020 A 
ATOM     13  C   UNL     1       7.109  -5.664  -2.026  0.00  0.00    +0.006 A 
ATOM     14  C   UNL     1       8.361  -5.564  -1.448  0.00  0.00    +0.000 A 
ATOM     15  C   UNL     1       8.688  -6.359  -0.365  0.00  0.00    +0.001 A 
ATOM     16  C   UNL     1       7.763  -7.253   0.141  0.00  0.00    +0.020 A 
ATOM     17  C   UNL     1       6.508  -7.349  -0.434  0.00  0.00    +0.045 A 
ATOM     18 CL   UNL     1       5.344  -8.467   0.205  0.00  0.00    -0.083 Cl
ENDBRANCH   1  12
BRANCH   1  19
ATOM     19  C   UNL     1       4.112  -5.312  -2.074  0.00  0.00    +0.116 C 
BRANCH  19  22
ATOM     20  C   UNL     1       3.249  -3.812  -0.359  0.00  0.00    +0.231 C 
ATOM     21  O   UNL     1       2.900  -3.054  -1.239  0.00  0.00    -0.274 OA
ATOM     22  N   UNL     1       3.865  -4.969  -0.672  0.00  0.00    -0.313 N 
ATOM     23  H   UNL     1       4.145  -5.575   0.032  0.00  0.00    +0.149 HD
BRANCH  20  24
ATOM     24  C   UNL     1       2.995  -3.460   1.084  0.00  0.00    +0.213 C 
BRANCH  24  28
ATOM     25  C   UNL     1       0.742  -0.511   1.242  0.00  0.00    +0.110 C 
ATOM     26  C   UNL     1       0.980  -2.005   1.147  0.00  0.00    +0.247 C 
ATOM     27  O   UNL     1       0.140  -2.877   1.076  0.00  0.00    -0.273 OA
ATOM     28  N   UNL     1       2.318  -2.162   1.158  0.00  0.00    -0.215 N 
ATOM     29  C   UNL     1       2.953  -0.988   1.245  0.00  0.00    +0.310 C 
ATOM     30  O   UNL     1       4.162  -0.874   1.272  0.00  0.00    -0.252 OA
ATOM     31  N   UNL     1       2.102   0.053   1.300  0.00  0.00    -0.285 N 
ATOM     32  C   UNL     1      -0.039  -0.166   2.511  0.00  0.00    +0.041 C 
ATOM     33  H   UNL     1       2.338   0.992   1.365  0.00  0.00    +0.151 HD
BRANCH  25  35
ATOM     34  C   UNL     1      -0.019   1.526   0.010  0.00  0.00    +0.006 C 
ATOM     35  C   UNL     1       0.002  -0.004   0.002  0.00  0.00    +0.031 C 
ENDBRANCH  25  35
ENDBRANCH  24  28
ENDBRANCH  20  24
ENDBRANCH  19  22
ENDBRANCH   1  19
TORSDOF 7
