REMARK  Name = ZINC54893716
REMARK  10 active torsions:
REMARK  status: ('A' for Active; 'I' for Inactive)
REMARK    1  A    between atoms: C_1  and  C_2
REMARK    2  A    between atoms: C_6  and  O_8
REMARK    3  A    between atoms: O_8  and  C_9
REMARK    4  A    between atoms: C_9  and  C_10
REMARK    5  A    between atoms: C_10  and  C_12
REMARK    6  A    between atoms: C_10  and  N_13
REMARK    7  A    between atoms: C_14  and  C_16
REMARK    8  A    between atoms: N_18  and  C_19
REMARK    9  A    between atoms: C_21  and  N_26
REMARK   10  A    between atoms: C_24  and  C_25
REMARK                            x       y       z     vdW  Elec       q    Type
REMARK                         _______ _______ _______ _____ _____    ______ ____
ROOT
ATOM      1  N   UNL     1       1.342  -4.442   4.343  0.00  0.00    -0.302 N 
ATOM      2  C   UNL     1       1.820  -5.210   5.341  0.00  0.00    +0.300 C 
ATOM      3  O   UNL     1       1.220  -6.210   5.678  0.00  0.00    -0.265 OA
ATOM      4  H   UNL     1       1.821  -3.643   4.074  0.00  0.00    +0.150 HD
ENDROOT
BRANCH   2   5
ATOM      5  C   UNL     1       3.088  -4.832   6.033  0.00  0.00    +0.303 C 
ATOM      6  O   UNL     1       3.688  -3.832   5.696  0.00  0.00    -0.265 OA
ATOM      7  N   UNL     1       3.567  -5.601   7.032  0.00  0.00    -0.277 N 
ATOM      8  H   UNL     1       3.048  -6.354   7.355  0.00  0.00    +0.155 HD
BRANCH   7   9
ATOM      9  C   UNL     1       4.809  -5.313   7.601  0.00  0.00    +0.039 A 
ATOM     10  C   UNL     1       5.767  -4.621   6.870  0.00  0.00    +0.056 A 
ATOM     11  C   UNL     1       6.994  -4.338   7.436  0.00  0.00    +0.128 A 
ATOM     12  C   UNL     1       7.271  -4.742   8.729  0.00  0.00    +0.033 A 
ATOM     13  C   UNL     1       6.320  -5.430   9.460  0.00  0.00    +0.007 A 
ATOM     14  C   UNL     1       5.089  -5.712   8.902  0.00  0.00    -0.029 A 
ATOM     15  C   UNL     1       4.051  -6.457   9.701  0.00  0.00    +0.045 C 
BRANCH  11  16
ATOM     16  N   UNL     1       8.015  -3.601   6.657  0.00  0.00    +0.056 N 
ATOM     17  O   UNL     1       7.774  -3.248   5.526  0.00  0.00    -0.126 OA
ATOM     18  O   UNL     1       9.090  -3.353   7.152  0.00  0.00    -0.126 OA
ENDBRANCH  11  16
ENDBRANCH   7   9
ENDBRANCH   2   5
BRANCH   1  19
ATOM     19  C   UNL     1       0.098  -4.813   3.664  0.00  0.00    +0.108 C 
ATOM     20  C   UNL     1      -1.095  -4.272   4.455  0.00  0.00    +0.031 C 
BRANCH  19  21
ATOM     21  C   UNL     1       0.088  -4.217   2.255  0.00  0.00    +0.251 C 
BRANCH  21  22
ATOM     22  O   UNL     1       0.061  -2.791   2.341  0.00  0.00    -0.490 OA
BRANCH  22  28
ATOM     23  C   UNL     1      -0.018   1.489  -0.004  0.00  0.00    +0.044 C 
ATOM     24  C   UNL     1       0.011  -0.018  -0.013  0.00  0.00    -0.047 A 
ATOM     25  C   UNL     1       0.025  -0.701  -1.216  0.00  0.00    +0.003 A 
ATOM     26  C   UNL     1       0.052  -2.083  -1.228  0.00  0.00    +0.004 A 
ATOM     27  C   UNL     1       0.064  -2.785  -0.038  0.00  0.00    +0.045 A 
ATOM     28  C   UNL     1       0.049  -2.103   1.169  0.00  0.00    +0.121 A 
ATOM     29  C   UNL     1       0.029  -0.715   1.179  0.00  0.00    +0.049 A 
ENDBRANCH  22  28
ENDBRANCH  21  22
ENDBRANCH  19  21
ENDBRANCH   1  19
TORSDOF 7
