REMARK  Name = ZINC31863216
REMARK  3 active torsions:
REMARK  status: ('A' for Active; 'I' for Inactive)
REMARK    1  A    between atoms: C_3  and  C_6
REMARK    2  A    between atoms: C_6  and  C_7
REMARK    3  A    between atoms: C_15  and  N_16
REMARK                            x       y       z     vdW  Elec       q    Type
REMARK                         _______ _______ _______ _____ _____    ______ ____
ROOT
ATOM      1  C   UNL     1       3.665  -0.384  -0.034  0.00  0.00    +0.143 A 
ATOM      2  N   UNL     1       4.400   0.699  -0.036  0.00  0.00    -0.133 NA
ATOM      3  N   UNL     1       3.651   1.745  -0.023  0.00  0.00    -0.127 NA
ATOM      4  C   UNL     1       2.380   1.378  -0.013  0.00  0.00    +0.182 A 
ATOM      5  N   UNL     1       2.362   0.006  -0.020  0.00  0.00    -0.284 N 
ATOM      6  C   UNL     1       1.175  -0.672  -0.012  0.00  0.00    +0.109 A 
ATOM      7  C   UNL     1       0.002  -0.004   0.002  0.00  0.00    +0.036 A 
ATOM      8  C   UNL     1      -0.017   1.401   0.010  0.00  0.00    +0.043 A 
ATOM      9  C   UNL     1       1.161   2.094   0.002  0.00  0.00    +0.071 A 
ATOM     10 BR   UNL     1      -1.626  -0.966   0.012  0.00  0.00    -0.049 Br
ENDROOT
BRANCH   9  11
ATOM     11  N   UNL     1       1.161   3.489   0.010  0.00  0.00    -0.355 N 
ATOM     12  H   UNL     1       0.208   4.039   0.022  0.00  0.00    +0.142 HD
ATOM     13  H   UNL     1       2.113   4.040   0.004  0.00  0.00    +0.142 HD
ENDBRANCH   9  11
BRANCH   1  14
ATOM     14  C   UNL     1       4.170  -1.804  -0.045  0.00  0.00    +0.119 C 
BRANCH  14  17
ATOM     15  C   UNL     1       5.318  -2.686  -3.569  0.00  0.00    +0.008 A 
ATOM     16  C   UNL     1       5.404  -2.183  -2.284  0.00  0.00    +0.011 A 
ATOM     17  C   UNL     1       4.325  -2.271  -1.470  0.00  0.00    -0.003 A 
ATOM     18  S   UNL     1       3.136  -3.091  -2.519  0.00  0.00    -0.101 S 
ATOM     19  C   UNL     1       4.156  -3.252  -3.976  0.00  0.00    +0.045 A 
ENDBRANCH  14  17
ENDBRANCH   1  14
TORSDOF 3
