REMARK  Name = ZINC43220774
REMARK  6 active torsions:
REMARK  status: ('A' for Active; 'I' for Inactive)
REMARK    1  A    between atoms: C_1  and  C_2
REMARK    2  A    between atoms: N_8  and  C_9
REMARK    3  A    between atoms: C_9  and  C_11
REMARK    4  A    between atoms: C_9  and  C_16
REMARK    5  A    between atoms: C_20  and  N_21
REMARK    6  A    between atoms: C_22  and  C_24
REMARK                            x       y       z     vdW  Elec       q    Type
REMARK                         _______ _______ _______ _____ _____    ______ ____
ROOT
ATOM      1  C   UNL     1      -0.659  -2.947   4.681  0.00  0.00    +0.009 A 
ATOM      2  C   UNL     1      -1.663  -2.355   5.447  0.00  0.00    -0.030 A 
ATOM      3  C   UNL     1      -2.240  -3.133   6.402  0.00  0.00    -0.005 A 
ATOM      4  S   UNL     1      -1.402  -4.687   6.249  0.00  0.00    -0.078 S 
ATOM      5  C   UNL     1      -0.310  -4.242   4.907  0.00  0.00    +0.078 A 
ATOM      6  C   UNL     1      -3.328  -2.751   7.354  0.00  0.00    +0.043 C 
ATOM      7  C   UNL     1      -3.459  -1.220   7.348  0.00  0.00    +0.005 C 
ATOM      8  C   UNL     1      -3.494  -0.736   5.895  0.00  0.00    +0.005 C 
ATOM      9  C   UNL     1      -2.118  -0.911   5.252  0.00  0.00    +0.036 C 
ENDROOT
BRANCH   5  10
ATOM     10  N   UNL     1       0.652  -5.020   4.261  0.00  0.00    -0.273 N 
ATOM     11  C   UNL     1       0.913  -6.269   4.696  0.00  0.00    +0.284 C 
ATOM     12  O   UNL     1       0.309  -6.719   5.652  0.00  0.00    -0.266 OA
ATOM     13  H   UNL     1       1.134  -4.662   3.499  0.00  0.00    +0.156 HD
BRANCH  11  14
ATOM     14  C   UNL     1       1.923  -7.086   4.017  0.00  0.00    +0.189 A 
ATOM     15  C   UNL     1       2.279  -8.362   4.349  0.00  0.00    +0.054 A 
ATOM     16  C   UNL     1       3.275  -8.753   3.440  0.00  0.00    +0.042 A 
ATOM     17  C   UNL     1       3.480  -7.712   2.603  0.00  0.00    +0.196 A 
ATOM     18  O   UNL     1       2.661  -6.711   2.951  0.00  0.00    -0.458 OA
ENDBRANCH  11  14
ENDBRANCH   5  10
BRANCH   1  19
ATOM     19  C   UNL     1       0.034  -2.156   3.602  0.00  0.00    +0.135 C 
BRANCH  19  27
ATOM     20  C   UNL     1       0.912   1.123  -0.237  0.00  0.00    +0.044 C 
ATOM     21  C   UNL     1       0.738  -0.370  -0.129  0.00  0.00    -0.046 A 
ATOM     22  C   UNL     1       0.807  -1.177  -1.257  0.00  0.00    +0.021 A 
ATOM     23  C   UNL     1       0.644  -2.541  -1.125  0.00  0.00    +0.084 A 
ATOM     24  N   UNL     1       0.423  -3.084   0.058  0.00  0.00    -0.350 N 
ATOM     25  C   UNL     1       0.350  -2.349   1.157  0.00  0.00    +0.097 A 
ATOM     26  C   UNL     1       0.511  -0.969   1.097  0.00  0.00    +0.045 A 
ATOM     27  N   UNL     1       0.116  -2.963   2.382  0.00  0.00    -0.320 N 
ATOM     28  H   UNL     1       0.007  -3.926   2.429  0.00  0.00    +0.148 HD
ATOM     29  H   UNL     1       0.312  -4.046   0.123  0.00  0.00    +0.166 HD
ENDBRANCH  19  27
BRANCH  19  30
ATOM     30  C   UNL     1       1.423  -1.793   4.058  0.00  0.00    -0.016 A 
ATOM     31  C   UNL     1       1.656  -0.598   4.712  0.00  0.00    +0.013 A 
ATOM     32  C   UNL     1       2.918  -0.301   5.109  0.00  0.00    +0.045 A 
ATOM     33  S   UNL     1       3.826  -1.735   4.556  0.00  0.00    -0.105 S 
ATOM     34  C   UNL     1       2.462  -2.635   3.838  0.00  0.00    +0.051 A 
ENDBRANCH  19  30
ENDBRANCH   1  19
TORSDOF 5
