REMARK  Name = ZINC64392578
REMARK  3 active torsions:
REMARK  status: ('A' for Active; 'I' for Inactive)
REMARK    1  A    between atoms: C_4  and  C_7
REMARK    2  A    between atoms: N_9  and  C_10
REMARK    3  A    between atoms: C_18  and  C_20
REMARK                            x       y       z     vdW  Elec       q    Type
REMARK                         _______ _______ _______ _____ _____    ______ ____
ROOT
ATOM      1  C   UNL     1       4.903  -2.687  -0.134  0.00  0.00    +0.051 C 
ATOM      2  C   UNL     1       6.171  -2.133  -0.150  0.00  0.00    +0.020 A 
ATOM      3  C   UNL     1       6.631  -0.797  -0.049  0.00  0.00    +0.050 A 
ATOM      4  C   UNL     1       7.963  -0.539  -0.097  0.00  0.00    +0.124 A 
ATOM      5  C   UNL     1       8.903  -1.565  -0.245  0.00  0.00    +0.040 A 
ATOM      6  C   UNL     1       8.534  -2.864  -0.347  0.00  0.00    +0.029 A 
ATOM      7  C   UNL     1       7.159  -3.214  -0.305  0.00  0.00    +0.045 A 
ATOM      8  N   UNL     1       6.554  -4.382  -0.382  0.00  0.00    -0.369 N 
ATOM      9  C   UNL     1       5.105  -4.179  -0.280  0.00  0.00    +0.211 C 
ATOM     10  F   UNL     1       8.391   0.739   0.000  0.00  0.00    -0.205 F 
ATOM     11  H   UNL     1       6.996  -5.239  -0.487  0.00  0.00    +0.161 HD
ENDROOT
BRANCH   9  12
ATOM     12  C   UNL     1       4.562  -4.897   0.929  0.00  0.00    +0.244 C 
ATOM     13  O   UNL     1       5.316  -5.266   1.805  0.00  0.00    -0.273 OA
ATOM     14  N   UNL     1       3.239  -5.129   1.037  0.00  0.00    -0.296 N 
ATOM     15  C   UNL     1       2.315  -4.694  -0.019  0.00  0.00    +0.127 C 
ATOM     16  C   UNL     1       1.509  -5.908  -0.497  0.00  0.00    +0.125 C 
ATOM     17  N   UNL     1       0.964  -6.602   0.679  0.00  0.00    -0.314 N 
ATOM     18  C   UNL     1       1.889  -7.037   1.735  0.00  0.00    +0.125 C 
ATOM     19  C   UNL     1       2.695  -5.828   2.210  0.00  0.00    +0.127 C 
ATOM     20  C   UNL     1      -0.400  -6.841   0.790  0.00  0.00    +0.099 A 
ATOM     21  C   UNL     1      -1.244  -6.531  -0.272  0.00  0.00    +0.042 A 
ATOM     22  C   UNL     1      -2.599  -6.774  -0.148  0.00  0.00    +0.005 A 
ATOM     23  C   UNL     1      -3.068  -7.322   1.038  0.00  0.00    +0.018 A 
ATOM     24  C   UNL     1      -2.175  -7.606   2.052  0.00  0.00    +0.084 A 
ATOM     25  N   UNL     1      -0.886  -7.368   1.903  0.00  0.00    -0.350 N 
ATOM     26  H   UNL     1      -0.279  -7.580   2.630  0.00  0.00    +0.166 HD
ENDBRANCH   9  12
BRANCH   1  29
ATOM     27  C   UNL     1       3.588  -0.779  -0.499  0.00  0.00    +0.248 C 
ATOM     28  O   UNL     1       4.536  -0.229  -1.023  0.00  0.00    -0.270 OA
ATOM     29  N   UNL     1       3.719  -2.027  -0.007  0.00  0.00    -0.282 N 
ATOM     30  H   UNL     1       2.970  -2.455   0.437  0.00  0.00    +0.155 HD
BRANCH  27  34
ATOM     31  C   UNL     1      -0.142   1.232  -0.217  0.00  0.00    +0.000 A 
ATOM     32  C   UNL     1       0.936   1.861  -0.813  0.00  0.00    +0.001 A 
ATOM     33  C   UNL     1       2.150   1.214  -0.908  0.00  0.00    +0.013 A 
ATOM     34  C   UNL     1       2.290  -0.079  -0.400  0.00  0.00    +0.037 A 
ATOM     35  C   UNL     1       1.198  -0.708   0.201  0.00  0.00    +0.013 A 
ATOM     36  C   UNL     1      -0.011  -0.049   0.289  0.00  0.00    +0.001 A 
ENDBRANCH  27  34
ENDBRANCH   1  29
TORSDOF 3
