REMARK  Name = ZINC41230446
REMARK  6 active torsions:
REMARK  status: ('A' for Active; 'I' for Inactive)
REMARK    1  A    between atoms: C_1  and  C_2
REMARK    2  A    between atoms: N_6  and  O_7
REMARK    3  A    between atoms: C_12  and  C_14
REMARK    4  A    between atoms: C_14  and  C_15
REMARK    5  A    between atoms: C_14  and  C_16
REMARK    6  A    between atoms: C_14  and  C_17
REMARK                            x       y       z     vdW  Elec       q    Type
REMARK                         _______ _______ _______ _____ _____    ______ ____
ROOT
ATOM      1  C   UNL     1      -0.019   1.526   0.010  0.00  0.00    +0.013 C 
ATOM      2  C   UNL     1       0.002  -0.004   0.002  0.00  0.00    +0.022 C 
ATOM      3  C   UNL     1      -1.431  -0.551   0.068  0.00  0.00    +0.067 C 
ATOM      4  C   UNL     1      -1.490  -1.363   1.339  0.00  0.00    +0.088 C 
ATOM      5  N   UNL     1      -2.521  -2.004   1.784  0.00  0.00    -0.091 NA
ATOM      6  C   UNL     1      -0.163  -1.298   1.985  0.00  0.00    +0.003 A 
ATOM      7  C   UNL     1       0.713  -0.519   1.230  0.00  0.00    -0.035 A 
ATOM      8  C   UNL     1       2.013  -0.329   1.660  0.00  0.00    +0.005 A 
ATOM      9  C   UNL     1       2.451  -0.908   2.837  0.00  0.00    +0.004 A 
ATOM     10  C   UNL     1       1.590  -1.683   3.593  0.00  0.00    -0.041 A 
ATOM     11  C   UNL     1       0.288  -1.880   3.177  0.00  0.00    +0.014 A 
ENDROOT
BRANCH  10  12
ATOM     12  C   UNL     1       2.073  -2.312   4.874  0.00  0.00    -0.013 C 
ATOM     13  C   UNL     1       3.539  -1.939   5.104  0.00  0.00    +0.015 C 
ATOM     14  C   UNL     1       1.228  -1.802   6.043  0.00  0.00    +0.015 C 
ATOM     15  C   UNL     1       1.942  -3.833   4.776  0.00  0.00    +0.015 C 
ENDBRANCH  10  12
BRANCH   5  16
ATOM     16  O   UNL     1      -3.736  -1.981   1.058  0.00  0.00    -0.409 OA
ATOM     17  H   UNL     1      -4.450  -2.489   1.468  0.00  0.00    +0.328 HD
ENDBRANCH   5  16
TORSDOF 2
