REMARK  Name = ZINC04533936
REMARK  9 active torsions:
REMARK  status: ('A' for Active; 'I' for Inactive)
REMARK    1  A    between atoms: C_1  and  C_2
REMARK    2  A    between atoms: N_4  and  C_5
REMARK    3  A    between atoms: C_7  and  O_29
REMARK    4  A    between atoms: C_9  and  O_28
REMARK    5  A    between atoms: C_11  and  C_26
REMARK    6  A    between atoms: C_14  and  O_16
REMARK    7  A    between atoms: O_16  and  C_17
REMARK    8  A    between atoms: C_20  and  N_23
REMARK    9  A    between atoms: C_26  and  O_27
REMARK                            x       y       z     vdW  Elec       q    Type
REMARK                         _______ _______ _______ _____ _____    ______ ____
ROOT
ATOM      1  C   UNL     1      -2.468  -2.714  -0.238  0.00  0.00    +0.173 C 
ATOM      2  C   UNL     1      -2.403  -4.244  -0.209  0.00  0.00    +0.172 C 
ATOM      3  C   UNL     1      -1.834  -4.695   1.140  0.00  0.00    +0.176 C 
ATOM      4  C   UNL     1      -0.460  -4.051   1.346  0.00  0.00    +0.179 C 
ATOM      5  O   UNL     1      -0.587  -2.630   1.277  0.00  0.00    -0.332 OA
ATOM      6  C   UNL     1      -1.069  -2.147   0.021  0.00  0.00    +0.331 C 
ENDROOT
BRANCH   1  10
ATOM      7  C   UNL     1      -5.645  -1.615   1.593  0.00  0.00    +0.109 C 
ATOM      8  C   UNL     1      -4.699  -2.100   0.525  0.00  0.00    +0.210 C 
ATOM      9  O   UNL     1      -5.117  -2.361  -0.583  0.00  0.00    -0.276 OA
ATOM     10  N   UNL     1      -3.387  -2.243   0.800  0.00  0.00    -0.304 N 
ATOM     11  H   UNL     1      -3.052  -2.035   1.687  0.00  0.00    +0.149 HD
ENDBRANCH   1  10
BRANCH   3  12
ATOM     12  O   UNL     1      -2.714  -4.288   2.189  0.00  0.00    -0.387 OA
ATOM     13  H   UNL     1      -2.413  -4.537   3.074  0.00  0.00    +0.210 HD
ENDBRANCH   3  12
BRANCH   2  14
ATOM     14  O   UNL     1      -3.716  -4.783  -0.378  0.00  0.00    -0.387 OA
ATOM     15  H   UNL     1      -3.749  -5.750  -0.364  0.00  0.00    +0.210 HD
ENDBRANCH   2  14
BRANCH   6  16
ATOM     16  O   UNL     1      -1.132  -0.720   0.051  0.00  0.00    -0.462 OA
BRANCH  16  17
ATOM     17  C   UNL     1       0.047  -0.052   0.064  0.00  0.00    +0.124 A 
ATOM     18  C   UNL     1       0.053   1.345   0.093  0.00  0.00    +0.048 A 
ATOM     19  C   UNL     1       1.231   2.026   0.106  0.00  0.00    +0.032 A 
ATOM     20  C   UNL     1       2.457   1.311   0.089  0.00  0.00    +0.074 A 
ATOM     21  C   UNL     1       2.438  -0.107   0.060  0.00  0.00    +0.032 A 
ATOM     22  C   UNL     1       1.248  -0.766   0.048  0.00  0.00    +0.048 A 
BRANCH  20  23
ATOM     23  N   UNL     1       3.610   1.964   0.101  0.00  0.00    -0.197 NA
ATOM     24  C   UNL     1       3.620   3.214   0.127  0.00  0.00    +0.041 C 
ATOM     25  S   UNL     1       3.634   4.767   0.160  0.00  0.00    +0.021 S 
ENDBRANCH  20  23
ENDBRANCH  16  17
ENDBRANCH   6  16
BRANCH   4  26
ATOM     26  C   UNL     1       0.089  -4.449   2.718  0.00  0.00    +0.190 C 
BRANCH  26  27
ATOM     27  O   UNL     1       1.417  -3.944   2.863  0.00  0.00    -0.392 OA
ATOM     28  H   UNL     1       1.829  -4.158   3.712  0.00  0.00    +0.210 HD
ENDBRANCH  26  27
ENDBRANCH   4  26
TORSDOF 8
