REMARK  Name = ZINC58186432
REMARK  4 active torsions:
REMARK  status: ('A' for Active; 'I' for Inactive)
REMARK    1  A    between atoms: C_4  and  O_30
REMARK    2  A    between atoms: C_5  and  N_7
REMARK    3  A    between atoms: C_8  and  C_10
REMARK    4  A    between atoms: C_14  and  N_16
REMARK                            x       y       z     vdW  Elec       q    Type
REMARK                         _______ _______ _______ _____ _____    ______ ____
ROOT
ATOM      1  C   UNL     1       0.148  -4.259   0.486  0.00  0.00    +0.039 A 
ATOM      2  C   UNL     1       1.335  -4.925   0.175  0.00  0.00    +0.013 A 
ATOM      3  C   UNL     1       1.328  -6.290  -0.023  0.00  0.00    +0.003 A 
ATOM      4  C   UNL     1       0.149  -7.003   0.085  0.00  0.00    +0.025 A 
ATOM      5  C   UNL     1      -1.038  -6.350   0.394  0.00  0.00    +0.057 A 
ATOM      6  C   UNL     1      -1.041  -4.979   0.601  0.00  0.00    +0.038 A 
ENDROOT
BRANCH   5   7
ATOM      7  N   UNL     1      -2.229  -7.076   0.502  0.00  0.00    -0.188 N 
ATOM      8  C   UNL     1      -2.272  -8.191   1.260  0.00  0.00    +0.240 C 
ATOM      9  O   UNL     1      -1.296  -8.537   1.891  0.00  0.00    -0.273 OA
ATOM     10  C   UNL     1      -3.538  -9.003   1.319  0.00  0.00    +0.093 C 
ATOM     11  C   UNL     1      -3.220 -10.460   1.658  0.00  0.00    +0.040 C 
ATOM     12  C   UNL     1      -4.449 -11.303   1.463  0.00  0.00    -0.030 C 
ATOM     13  C   UNL     1      -5.483 -10.932   0.777  0.00  0.00    -0.030 C 
ATOM     14  C   UNL     1      -5.602  -9.604   0.083  0.00  0.00    +0.040 C 
ATOM     15  C   UNL     1      -4.225  -8.959  -0.054  0.00  0.00    +0.092 C 
ATOM     16  C   UNL     1      -4.348  -7.524  -0.493  0.00  0.00    +0.234 C 
ATOM     17  O   UNL     1      -5.317  -7.162  -1.127  0.00  0.00    -0.274 OA
ATOM     18  N   UNL     1      -3.377  -6.641  -0.174  0.00  0.00    -0.227 N 
ATOM     19  H   UNL     1      -3.473  -5.706  -0.414  0.00  0.00    +0.173 HD
ENDBRANCH   5   7
BRANCH   1  21
ATOM     20  N   UNL     1       1.303  -2.102   0.589  0.00  0.00    -0.279 N 
ATOM     21  C   UNL     1       0.152  -2.796   0.700  0.00  0.00    +0.248 C 
ATOM     22  O   UNL     1      -0.881  -2.219   0.976  0.00  0.00    -0.270 OA
ATOM     23  H   UNL     1       2.119  -2.555   0.326  0.00  0.00    +0.155 HD
BRANCH  20  28
ATOM     24  C   UNL     1       0.191   1.388   0.925  0.00  0.00    +0.002 A 
ATOM     25  C   UNL     1       1.351   1.994   1.373  0.00  0.00    +0.004 A 
ATOM     26  C   UNL     1       2.497   1.245   1.562  0.00  0.00    +0.047 A 
ATOM     27  C   UNL     1       2.487  -0.116   1.303  0.00  0.00    +0.138 A 
ATOM     28  C   UNL     1       1.319  -0.727   0.852  0.00  0.00    +0.076 A 
ATOM     29  C   UNL     1       0.172   0.031   0.664  0.00  0.00    +0.027 A 
BRANCH  27  30
ATOM     30  O   UNL     1       3.614  -0.854   1.488  0.00  0.00    -0.505 OA
ATOM     31  H   UNL     1       3.700  -1.224   2.377  0.00  0.00    +0.292 HD
ENDBRANCH  27  30
ENDBRANCH  20  28
ENDBRANCH   1  21
TORSDOF 4
