REMARK  Name = ZINC02147828
REMARK  6 active torsions:
REMARK  status: ('A' for Active; 'I' for Inactive)
REMARK    1  A    between atoms: C_1  and  C_2
REMARK    2  A    between atoms: C_11  and  C_13
REMARK    3  A    between atoms: C_14  and  S_20
REMARK    4  A    between atoms: C_17  and  S_18
REMARK    5  A    between atoms: S_18  and  C_19
REMARK    6  A    between atoms: S_20  and  C_21
REMARK                            x       y       z     vdW  Elec       q    Type
REMARK                         _______ _______ _______ _____ _____    ______ ____
ROOT
ATOM      1  C   UNL     1      -7.447  -4.961   1.008  0.00  0.00    +0.089 C 
ATOM      2  C   UNL     1      -6.357  -4.245   1.763  0.00  0.00    +0.136 A 
ATOM      3  C   UNL     1      -5.324  -3.553   1.230  0.00  0.00    +0.091 A 
ATOM      4  C   UNL     1      -4.604  -3.087   2.362  0.00  0.00    +0.169 A 
ATOM      5  N   UNL     1      -5.245  -3.532   3.411  0.00  0.00    -0.063 NA
ATOM      6  O   UNL     1      -6.221  -4.171   3.095  0.00  0.00    -0.358 OA
ATOM      7  N   UNL     1      -3.441  -2.316   2.356  0.00  0.00    -0.251 N 
ATOM      8  C   UNL     1      -2.891  -1.937   1.185  0.00  0.00    +0.312 C 
ATOM      9  O   UNL     1      -3.407  -2.268   0.136  0.00  0.00    -0.252 OA
ATOM     10  N   UNL     1      -1.768  -1.192   1.179  0.00  0.00    -0.236 N 
ATOM     11  C   UNL     1      -1.217  -0.813   0.009  0.00  0.00    +0.256 C 
ATOM     12  O   UNL     1      -1.734  -1.144  -1.042  0.00  0.00    -0.270 OA
ATOM     13  H   UNL     1      -3.030  -2.053   3.193  0.00  0.00    +0.158 HD
ATOM     14  H   UNL     1      -1.356  -0.928   2.017  0.00  0.00    +0.159 HD
ENDROOT
BRANCH  11  15
ATOM     15  C   UNL     1       0.002  -0.004   0.002  0.00  0.00    +0.091 A 
ATOM     16  C   UNL     1      -0.018   1.440   0.010  0.00  0.00    +0.119 A 
ATOM     17  N   UNL     1       1.130   2.066   0.002  0.00  0.00    -0.202 NA
ATOM     18  S   UNL     1       2.307   0.831  -0.015  0.00  0.00    +0.020 S 
ATOM     19  C   UNL     1       1.285  -0.566  -0.013  0.00  0.00    +0.078 A 
BRANCH  19  20
ATOM     20  S   UNL     1       1.743  -2.267  -0.028  0.00  0.00    -0.119 S 
ATOM     21  C   UNL     1       3.546  -2.106  -0.043  0.00  0.00    +0.090 C 
ENDBRANCH  19  20
BRANCH  16  22
ATOM     22  S   UNL     1      -1.539   2.329   0.022  0.00  0.00    -0.108 S 
ATOM     23  C   UNL     1      -1.030   4.069   0.029  0.00  0.00    +0.091 C 
ENDBRANCH  16  22
ENDBRANCH  11  15
TORSDOF 3
