REMARK  Name = ZINC57381842
REMARK  9 active torsions:
REMARK  status: ('A' for Active; 'I' for Inactive)
REMARK    1  A    between atoms: C_1  and  N_2
REMARK    2  A    between atoms: N_2  and  C_3
REMARK    3  A    between atoms: N_2  and  C_4
REMARK    4  A    between atoms: C_4  and  C_6
REMARK    5  A    between atoms: C_4  and  C_24
REMARK    6  A    between atoms: C_6  and  N_7
REMARK    7  A    between atoms: C_8  and  C_10
REMARK    8  A    between atoms: C_10  and  N_11
REMARK    9  A    between atoms: C_12  and  C_14
REMARK                            x       y       z     vdW  Elec       q    Type
REMARK                         _______ _______ _______ _____ _____    ______ ____
ROOT
ATOM      1  N   UNL     1      -1.766   1.531  -1.169  0.00  0.00    -0.315 N 
ATOM      2  C   UNL     1      -2.260   2.263  -2.188  0.00  0.00    +0.230 C 
ATOM      3  O   UNL     1      -2.935   1.732  -3.045  0.00  0.00    -0.274 OA
ATOM      4  H   UNL     1      -1.227   1.956  -0.484  0.00  0.00    +0.149 HD
ENDROOT
BRANCH   1   5
ATOM      5  C   UNL     1      -2.044   0.095  -1.098  0.00  0.00    +0.094 C 
BRANCH   5   6
ATOM      6  C   UNL     1      -1.280  -0.514   0.080  0.00  0.00    -0.014 C 
BRANCH   6   7
ATOM      7  C   UNL     1      -1.798   0.069   1.370  0.00  0.00    -0.022 A 
ATOM      8  C   UNL     1      -1.272   1.061   2.129  0.00  0.00    +0.009 A 
ATOM      9  C   UNL     1      -1.927   1.438   3.287  0.00  0.00    +0.008 A 
ATOM     10  C   UNL     1      -3.074   0.803   3.629  0.00  0.00    +0.045 A 
ATOM     11  S   UNL     1      -3.265  -0.362   2.290  0.00  0.00    -0.103 S 
ENDBRANCH   6   7
BRANCH   6  13
ATOM     12  C   UNL     1      -0.940  -2.543  -1.154  0.00  0.00    -0.096 C 
ATOM     13  N   UNL     1      -1.474  -1.970   0.089  0.00  0.00    +0.382 N 
ATOM     14  C   UNL     1      -0.769  -2.551   1.239  0.00  0.00    -0.096 C 
ATOM     15  H   UNL     1      -2.459  -2.178   0.159  0.00  0.00    -0.082 HD
ENDBRANCH   6  13
ENDBRANCH   5   6
ENDBRANCH   1   5
BRANCH   2  16
ATOM     16  C   UNL     1      -1.974   3.741  -2.262  0.00  0.00    +0.200 C 
BRANCH  16  17
ATOM     17  N   UNL     1      -2.617   4.304  -3.452  0.00  0.00    -0.306 N 
ATOM     18  C   UNL     1      -2.497   5.618  -3.724  0.00  0.00    +0.220 C 
ATOM     19  O   UNL     1      -1.856   6.335  -2.985  0.00  0.00    -0.275 OA
ATOM     20  H   UNL     1      -3.130   3.731  -4.043  0.00  0.00    +0.149 HD
BRANCH  18  21
ATOM     21  C   UNL     1      -3.158   6.197  -4.948  0.00  0.00    +0.048 C 
ATOM     22  C   UNL     1      -2.609   5.508  -6.199  0.00  0.00    +0.019 C 
ATOM     23  C   UNL     1      -3.281   6.096  -7.442  0.00  0.00    -0.009 C 
ATOM     24  C   UNL     1      -2.990   7.596  -7.517  0.00  0.00    +0.007 C 
ATOM     25  C   UNL     1      -3.540   8.285  -6.266  0.00  0.00    -0.009 C 
ATOM     26  C   UNL     1      -2.868   7.697  -5.024  0.00  0.00    +0.019 C 
ATOM     27  C   UNL     1      -5.051   8.062  -6.183  0.00  0.00    +0.007 C 
ATOM     28  C   UNL     1      -5.341   6.562  -6.108  0.00  0.00    -0.009 C 
ATOM     29  C   UNL     1      -4.792   5.873  -7.359  0.00  0.00    +0.007 C 
ATOM     30  C   UNL     1      -4.670   5.974  -4.865  0.00  0.00    +0.019 C 
ENDBRANCH  18  21
ENDBRANCH  16  17
ENDBRANCH   2  16
TORSDOF 7
