REMARK  Name = ZINC11933226
REMARK  6 active torsions:
REMARK  status: ('A' for Active; 'I' for Inactive)
REMARK    1  A    between atoms: C_10  and  C_11
REMARK    2  A    between atoms: C_11  and  N_54
REMARK    3  A    between atoms: C_17  and  C_19
REMARK    4  A    between atoms: C_19  and  C_20
REMARK    5  A    between atoms: N_22  and  C_23
REMARK    6  A    between atoms: C_23  and  C_24
REMARK                            x       y       z     vdW  Elec       q    Type
REMARK                         _______ _______ _______ _____ _____    ______ ____
ROOT
ATOM      1  C   UNL     1      -1.154   2.529  -0.559  0.00  0.00    -0.058 C 
ATOM      2  C   UNL     1      -1.047   1.047  -0.204  0.00  0.00    +0.085 C 
ATOM      3  N   UNL     1       0.341   0.606  -0.302  0.00  0.00    -0.318 N 
ATOM      4  C   UNL     1       1.375   1.454  -0.314  0.00  0.00    +0.200 C 
ATOM      5  O   UNL     1       2.498   1.000  -0.372  0.00  0.00    -0.278 OA
ATOM      6  C   UNL     1       1.203   2.946  -0.260  0.00  0.00    +0.028 C 
ATOM      7  H   UNL     1       0.522  -0.345  -0.365  0.00  0.00    +0.149 HD
ATOM      8  N   UNL     1      -0.150   3.267   0.233  0.00  0.00    +0.391 N 
ATOM      9  H   UNL     1      -0.225   2.984   1.217  0.00  0.00    -0.080 HD
ENDROOT
BRANCH   8  10
ATOM     10  C   UNL     1      -0.393   4.724   0.131  0.00  0.00    -0.041 C 
BRANCH  10  20
ATOM     11  C   UNL     1      -1.840   5.393   4.996  0.00  0.00    +0.001 A 
ATOM     12  C   UNL     1      -0.636   5.086   4.364  0.00  0.00    +0.001 A 
ATOM     13  C   UNL     1      -0.564   4.971   3.010  0.00  0.00    +0.009 A 
ATOM     14  C   UNL     1      -1.720   5.164   2.233  0.00  0.00    -0.017 A 
ATOM     15  C   UNL     1      -2.944   5.476   2.876  0.00  0.00    -0.018 A 
ATOM     16  C   UNL     1      -2.979   5.586   4.277  0.00  0.00    +0.008 A 
ATOM     17  C   UNL     1      -4.099   5.669   2.100  0.00  0.00    +0.008 A 
ATOM     18  C   UNL     1      -4.028   5.555   0.745  0.00  0.00    +0.001 A 
ATOM     19  C   UNL     1      -2.823   5.255   0.113  0.00  0.00    +0.002 A 
ATOM     20  C   UNL     1      -1.685   5.055   0.833  0.00  0.00    -0.056 A 
ENDBRANCH  10  20
ENDBRANCH   8  10
BRANCH   6  21
ATOM     21  C   UNL     1       2.235   3.541   0.700  0.00  0.00    +0.089 C 
BRANCH  21  22
ATOM     22  C   UNL     1       2.031   2.964   2.077  0.00  0.00    +0.212 C 
ATOM     23  O   UNL     1       1.090   2.231   2.295  0.00  0.00    -0.276 OA
ATOM     24  N   UNL     1       2.895   3.263   3.067  0.00  0.00    -0.311 N 
ATOM     25  H   UNL     1       3.648   3.850   2.894  0.00  0.00    +0.149 HD
BRANCH  24  26
ATOM     26  C   UNL     1       2.697   2.703   4.406  0.00  0.00    +0.139 C 
BRANCH  26  27
ATOM     27  C   UNL     1       3.792   3.188   5.321  0.00  0.00    -0.029 A 
ATOM     28  C   UNL     1       4.961   2.460   5.447  0.00  0.00    +0.005 A 
ATOM     29  C   UNL     1       5.967   2.908   6.282  0.00  0.00    +0.002 A 
ATOM     30  C   UNL     1       5.801   4.077   7.000  0.00  0.00    +0.020 A 
ATOM     31  C   UNL     1       4.630   4.803   6.878  0.00  0.00    +0.041 A 
ATOM     32  C   UNL     1       3.625   4.358   6.038  0.00  0.00    +0.025 A 
ATOM     33 CL   UNL     1       4.421   6.272   7.780  0.00  0.00    -0.084 Cl
ENDBRANCH  26  27
ENDBRANCH  24  26
ENDBRANCH  21  22
ENDBRANCH   6  21
TORSDOF 6
