REMARK  Name = ZINC39560738
REMARK  5 active torsions:
REMARK  status: ('A' for Active; 'I' for Inactive)
REMARK    1  A    between atoms: C_1  and  N_2
REMARK    2  A    between atoms: N_9  and  C_10
REMARK    3  A    between atoms: C_10  and  C_11
REMARK    4  A    between atoms: C_11  and  C_12
REMARK    5  A    between atoms: N_19  and  C_22
REMARK                            x       y       z     vdW  Elec       q    Type
REMARK                         _______ _______ _______ _____ _____    ______ ____
ROOT
ATOM      1  C   UNL     1      -0.018   1.461   0.010  0.00  0.00    +0.136 C 
ATOM      2  N   UNL     1       0.002  -0.004   0.002  0.00  0.00    -0.264 N 
ATOM      3  C   UNL     1      -1.252  -0.757   0.004  0.00  0.00    +0.220 C 
ATOM      4  C   UNL     1      -0.956  -2.036   0.781  0.00  0.00    +0.145 C 
ATOM      5  N   UNL     1      -1.862  -2.166   1.670  0.00  0.00    -0.211 NA
ATOM      6  C   UNL     1      -2.711  -1.100   1.698  0.00  0.00    +0.213 C 
ATOM      7  N   UNL     1      -2.326  -0.126   0.770  0.00  0.00    -0.290 N 
ATOM      8  N   UNL     1      -3.749  -1.002   2.480  0.00  0.00    -0.252 NA
ATOM      9  C   UNL     1       0.297  -2.788   0.509  0.00  0.00    +0.272 C 
ATOM     10  O   UNL     1       0.391  -3.993   0.628  0.00  0.00    -0.268 OA
ATOM     11  N   UNL     1       1.330  -1.991   0.113  0.00  0.00    -0.224 N 
ATOM     12  C   UNL     1       1.174  -0.665  -0.013  0.00  0.00    +0.313 C 
ATOM     13  O   UNL     1       2.183   0.001  -0.147  0.00  0.00    -0.252 OA
ATOM     14  C   UNL     1       2.632  -2.593  -0.186  0.00  0.00    +0.143 C 
ATOM     15  H   UNL     1      -2.684   0.768   0.656  0.00  0.00    +0.151 HD
ENDROOT
BRANCH   8  16
ATOM     16  C   UNL     1      -4.070  -2.086   3.412  0.00  0.00    +0.150 C 
BRANCH  16  17
ATOM     17  C   UNL     1      -3.923  -1.583   4.849  0.00  0.00    +0.065 C 
BRANCH  17  18
ATOM     18  C   UNL     1      -4.253  -2.699   5.808  0.00  0.00    -0.008 A 
ATOM     19  C   UNL     1      -3.429  -3.624   6.356  0.00  0.00    +0.011 A 
ATOM     20  C   UNL     1      -3.958  -4.564   7.221  0.00  0.00    +0.008 A 
ATOM     21  C   UNL     1      -5.285  -4.532   7.496  0.00  0.00    +0.045 A 
ATOM     22  S   UNL     1      -5.829  -3.138   6.522  0.00  0.00    -0.102 S 
ENDBRANCH  17  18
ENDBRANCH  16  17
ENDBRANCH   8  16
TORSDOF 3
