REMARK  Name = ZINC06193776
REMARK  9 active torsions:
REMARK  status: ('A' for Active; 'I' for Inactive)
REMARK    1  A    between atoms: C_1  and  C_2
REMARK    2  A    between atoms: C_2  and  N_63
REMARK    3  A    between atoms: C_3  and  C_4
REMARK    4  A    between atoms: C_3  and  N_63
REMARK    5  A    between atoms: C_10  and  C_12
REMARK    6  A    between atoms: C_10  and  C_25
REMARK    7  A    between atoms: C_10  and  N_63
REMARK    8  A    between atoms: C_17  and  C_24
REMARK    9  A    between atoms: N_29  and  C_30
REMARK                            x       y       z     vdW  Elec       q    Type
REMARK                         _______ _______ _______ _____ _____    ______ ____
ROOT
ATOM      1  C   UNL     1       5.681  -1.458  -1.354  0.00  0.00    +0.039 C 
ENDROOT
BRANCH   1   2
ATOM      2  C   UNL     1       5.767  -1.439  -2.858  0.00  0.00    +0.011 A 
ATOM      3  C   UNL     1       5.850  -2.606  -3.544  0.00  0.00    +0.017 A 
ATOM      4  C   UNL     1       5.932  -2.554  -5.005  0.00  0.00    -0.001 A 
ATOM      5  C   UNL     1       6.020  -3.724  -5.767  0.00  0.00    +0.010 A 
ATOM      6  C   UNL     1       6.095  -3.641  -7.128  0.00  0.00    +0.004 A 
ATOM      7  C   UNL     1       6.085  -2.406  -7.763  0.00  0.00    -0.048 A 
ATOM      8  C   UNL     1       5.999  -1.241  -7.032  0.00  0.00    +0.029 A 
ATOM      9  C   UNL     1       5.922  -1.300  -5.644  0.00  0.00    +0.049 A 
ATOM     10  N   UNL     1       5.835  -0.150  -4.889  0.00  0.00    -0.322 N 
ATOM     11  H   UNL     1       5.831   0.740  -5.345  0.00  0.00    +0.169 HD
ATOM     12  C   UNL     1       5.755  -0.208  -3.548  0.00  0.00    +0.251 A 
ATOM     13  O   UNL     1       5.674   0.829  -2.912  0.00  0.00    -0.268 OA
ATOM     14  C   UNL     1       6.168  -2.339  -9.266  0.00  0.00    +0.044 C 
ENDBRANCH   1   2
BRANCH   1  15
ATOM     15  C   UNL     1       5.557  -2.881  -0.875  0.00  0.00    +0.143 A 
ATOM     16  N   UNL     1       4.662  -3.760  -1.254  0.00  0.00    -0.115 NA
ATOM     17  N   UNL     1       4.889  -4.859  -0.622  0.00  0.00    -0.023 NA
ATOM     18  N   UNL     1       5.902  -4.702   0.158  0.00  0.00    -0.044 NA
ATOM     19  N   UNL     1       6.342  -3.496   0.030  0.00  0.00    -0.227 N 
BRANCH  19  20
ATOM     20  C   UNL     1       7.481  -2.906   0.738  0.00  0.00    +0.111 C 
ATOM     21  C   UNL     1       8.757  -3.727   0.463  0.00  0.00    +0.027 C 
ATOM     22  C   UNL     1       9.522  -3.703   1.810  0.00  0.00    +0.002 C 
ATOM     23  C   UNL     1       8.381  -3.811   2.853  0.00  0.00    +0.002 C 
ATOM     24  C   UNL     1       7.242  -2.959   2.257  0.00  0.00    +0.027 C 
ENDBRANCH  19  20
ENDBRANCH   1  15
BRANCH   1  25
ATOM     25  N   UNL     1       4.505  -0.666  -0.935  0.00  0.00    +0.392 N 
ATOM     26  H   UNL     1       4.508   0.228  -1.439  0.00  0.00    -0.080 HD
BRANCH  25  28
ATOM     27  C   UNL     1       3.037  -1.332  -2.774  0.00  0.00    -0.017 C 
ATOM     28  C   UNL     1       3.262  -1.397  -1.262  0.00  0.00    -0.080 C 
ENDBRANCH  25  28
BRANCH  25  29
ATOM     29  C   UNL     1       4.567  -0.399   0.517  0.00  0.00    -0.042 C 
BRANCH  29  30
ATOM     30  C   UNL     1       3.582   0.691   0.852  0.00  0.00    -0.064 A 
ATOM     31  C   UNL     1       2.326   0.366   1.331  0.00  0.00    +0.002 A 
ATOM     32  C   UNL     1       1.423   1.366   1.637  0.00  0.00    +0.000 A 
ATOM     33  C   UNL     1       1.774   2.692   1.463  0.00  0.00    +0.000 A 
ATOM     34  C   UNL     1       3.029   3.017   0.984  0.00  0.00    +0.000 A 
ATOM     35  C   UNL     1       3.933   2.017   0.678  0.00  0.00    +0.002 A 
ENDBRANCH  29  30
ENDBRANCH  25  29
ENDBRANCH   1  25
TORSDOF 7
