REMARK  Name = ZINC16923281
REMARK  7 active torsions:
REMARK  status: ('A' for Active; 'I' for Inactive)
REMARK    1  A    between atoms: C_1  and  C_2
REMARK    2  A    between atoms: C_6  and  N_8
REMARK    3  A    between atoms: C_11  and  C_16
REMARK    4  A    between atoms: C_16  and  C_17
REMARK    5  A    between atoms: N_19  and  C_20
REMARK    6  A    between atoms: C_23  and  N_27
REMARK    7  A    between atoms: C_25  and  O_26
REMARK                            x       y       z     vdW  Elec       q    Type
REMARK                         _______ _______ _______ _____ _____    ______ ____
ROOT
ATOM      1  C   UNL     1       1.019   1.718  -4.885  0.00  0.00    +0.120 C 
ENDROOT
BRANCH   1   5
ATOM      2  N   UNL     1       0.874   3.134  -8.049  0.00  0.00    -0.200 N 
ATOM      3  C   UNL     1       1.163   2.028  -7.381  0.00  0.00    +0.241 C 
ATOM      4  O   UNL     1       0.885   0.925  -7.802  0.00  0.00    -0.274 OA
ATOM      5  C   UNL     1       1.866   2.237  -6.048  0.00  0.00    +0.151 C 
ATOM      6  S   UNL     1       1.973   4.071  -6.031  0.00  0.00    -0.054 S 
ATOM      7  C   UNL     1       1.173   4.367  -7.601  0.00  0.00    +0.286 C 
ATOM      8  O   UNL     1       0.950   5.435  -8.139  0.00  0.00    -0.262 OA
BRANCH   2  14
ATOM      9  C   UNL     1       0.930   3.708 -12.933  0.00  0.00    +0.044 C 
ATOM     10  C   UNL     1       0.230   3.285 -11.668  0.00  0.00    -0.049 A 
ATOM     11  C   UNL     1      -1.056   2.777 -11.727  0.00  0.00    +0.003 A 
ATOM     12  C   UNL     1      -1.702   2.388 -10.568  0.00  0.00    +0.002 A 
ATOM     13  C   UNL     1      -1.065   2.505  -9.348  0.00  0.00    +0.024 A 
ATOM     14  C   UNL     1       0.225   3.014  -9.286  0.00  0.00    +0.045 A 
ATOM     15  C   UNL     1       0.869   3.410 -10.450  0.00  0.00    +0.027 A 
ENDBRANCH   2  14
ENDBRANCH   1   5
BRANCH   1  16
ATOM     16  C   UNL     1       1.764   1.924  -3.591  0.00  0.00    +0.219 C 
ATOM     17  O   UNL     1       2.863   2.435  -3.598  0.00  0.00    -0.275 OA
ATOM     18  N   UNL     1       1.207   1.540  -2.425  0.00  0.00    -0.283 N 
ATOM     19  H   UNL     1       0.365   1.059  -2.424  0.00  0.00    +0.155 HD
BRANCH  18  20
ATOM     20  C   UNL     1       1.845   1.835  -1.213  0.00  0.00    +0.075 A 
ATOM     21  C   UNL     1       2.719   2.910  -1.131  0.00  0.00    +0.029 A 
ATOM     22  C   UNL     1       3.347   3.200   0.066  0.00  0.00    +0.035 A 
ATOM     23  C   UNL     1       3.107   2.421   1.183  0.00  0.00    +0.130 A 
ATOM     24  C   UNL     1       2.233   1.352   1.110  0.00  0.00    +0.080 A 
ATOM     25  C   UNL     1       1.604   1.051  -0.087  0.00  0.00    +0.140 A 
BRANCH  23  26
ATOM     26  N   UNL     1       3.782   2.736   2.462  0.00  0.00    +0.057 N 
ATOM     27  O   UNL     1       4.548   3.681   2.529  0.00  0.00    -0.126 OA
ATOM     28  O   UNL     1       3.572   2.051   3.447  0.00  0.00    -0.126 OA
ENDBRANCH  23  26
BRANCH  25  29
ATOM     29  O   UNL     1       0.749  -0.004  -0.161  0.00  0.00    -0.505 OA
ATOM     30  H   UNL     1       1.173  -0.837  -0.407  0.00  0.00    +0.292 HD
ENDBRANCH  25  29
ENDBRANCH  18  20
ENDBRANCH   1  16
TORSDOF 6
