REMARK  Name = ZINC40312666
REMARK  10 active torsions:
REMARK  status: ('A' for Active; 'I' for Inactive)
REMARK    1  A    between atoms: C_1  and  O_2
REMARK    2  A    between atoms: O_2  and  C_3
REMARK    3  A    between atoms: C_6  and  N_9
REMARK    4  A    between atoms: C_11  and  C_30
REMARK    5  A    between atoms: C_14  and  C_20
REMARK    6  A    between atoms: C_17  and  O_19
REMARK    7  A    between atoms: C_24  and  O_28
REMARK    8  A    between atoms: C_25  and  O_26
REMARK    9  A    between atoms: O_26  and  C_27
REMARK   10  A    between atoms: O_28  and  C_29
REMARK                            x       y       z     vdW  Elec       q    Type
REMARK                         _______ _______ _______ _____ _____    ______ ____
ROOT
ATOM      1  N   UNL     1       2.542  -2.504   4.231  0.00  0.00    -0.317 N 
ATOM      2  C   UNL     1       3.779  -2.196   4.677  0.00  0.00    +0.109 A 
ATOM      3  C   UNL     1       4.081  -3.023   5.746  0.00  0.00    +0.107 A 
ATOM      4  C   UNL     1       2.911  -3.880   5.927  0.00  0.00    +0.103 A 
ATOM      5  C   UNL     1       2.007  -3.508   4.970  0.00  0.00    +0.058 A 
ATOM      6  C   UNL     1       0.666  -4.192   4.854  0.00  0.00    +0.081 C 
ATOM      7  C   UNL     1       0.828  -5.630   5.359  0.00  0.00    +0.110 C 
ATOM      8  C   UNL     1       1.669  -5.689   6.600  0.00  0.00    +0.189 C 
ATOM      9  N   UNL     1       2.651  -4.873   6.831  0.00  0.00    -0.215 NA
ENDROOT
BRANCH   1  13
ATOM     10  C   UNL     1       0.626  -0.619   1.042  0.00  0.00    +0.120 A 
ATOM     11  C   UNL     1       1.202   0.140   2.051  0.00  0.00    +0.047 A 
ATOM     12  C   UNL     1       1.836  -0.484   3.107  0.00  0.00    +0.030 A 
ATOM     13  C   UNL     1       1.897  -1.870   3.159  0.00  0.00    +0.047 A 
ATOM     14  C   UNL     1       1.320  -2.628   2.149  0.00  0.00    +0.030 A 
ATOM     15  C   UNL     1       0.681  -2.004   1.097  0.00  0.00    +0.047 A 
BRANCH  10  17
ATOM     16  C   UNL     1      -0.017   1.425   0.010  0.00  0.00    +0.277 C 
ATOM     17  O   UNL     1       0.002  -0.004   0.002  0.00  0.00    -0.495 OA
ENDBRANCH  10  17
ENDBRANCH   1  13
BRANCH   6  18
ATOM     18  C   UNL     1      -0.351  -3.466   5.697  0.00  0.00    +0.007 A 
ATOM     19  C   UNL     1      -0.157  -3.340   7.060  0.00  0.00    +0.008 A 
ATOM     20  C   UNL     1      -1.087  -2.675   7.836  0.00  0.00    +0.004 A 
ATOM     21  C   UNL     1      -2.217  -2.133   7.252  0.00  0.00    +0.049 A 
ATOM     22  C   UNL     1      -2.418  -2.255   5.886  0.00  0.00    +0.162 A 
ATOM     23  C   UNL     1      -1.477  -2.919   5.104  0.00  0.00    +0.165 A 
BRANCH  23  24
ATOM     24  O   UNL     1      -1.667  -3.037   3.763  0.00  0.00    -0.491 OA
ATOM     25  C   UNL     1      -2.385  -4.186   3.308  0.00  0.00    +0.277 C 
ENDBRANCH  23  24
BRANCH  22  26
ATOM     26  O   UNL     1      -3.529  -1.722   5.311  0.00  0.00    -0.491 OA
ATOM     27  C   UNL     1      -4.447  -1.049   6.173  0.00  0.00    +0.277 C 
ENDBRANCH  22  26
ENDBRANCH   6  18
BRANCH   3  28
ATOM     28  C   UNL     1       5.318  -3.037   6.532  0.00  0.00    +0.390 C 
ATOM     29  O   UNL     1       6.222  -2.256   6.265  0.00  0.00    -0.240 OA
ATOM     30  O   UNL     1       5.447  -3.830   7.456  0.00  0.00    -0.240 OA
ENDBRANCH   3  28
BRANCH   8  31
ATOM     31  O   UNL     1       1.394  -6.642   7.517  0.00  0.00    -0.495 OA
ATOM     32  H   UNL     1       1.974  -6.622   8.290  0.00  0.00    +0.293 HD
ENDBRANCH   8  31
TORSDOF 7
