REMARK  Name = ZINC59891985
REMARK  9 active torsions:
REMARK  status: ('A' for Active; 'I' for Inactive)
REMARK    1  A    between atoms: C_1  and  C_2
REMARK    2  A    between atoms: C_2  and  N_3
REMARK    3  A    between atoms: C_7  and  N_10
REMARK    4  A    between atoms: C_11  and  C_13
REMARK    5  A    between atoms: C_15  and  C_22
REMARK    6  A    between atoms: C_18  and  O_19
REMARK    7  A    between atoms: O_19  and  C_20
REMARK    8  A    between atoms: C_20  and  C_21
REMARK    9  A    between atoms: C_22  and  N_23
REMARK                            x       y       z     vdW  Elec       q    Type
REMARK                         _______ _______ _______ _____ _____    ______ ____
ROOT
ATOM      1  C   UNL     1      -3.792  -6.073  -1.007  0.00  0.00    +0.079 A 
ATOM      2  C   UNL     1      -2.698  -6.804  -0.537  0.00  0.00    +0.022 A 
ATOM      3  C   UNL     1      -2.685  -8.177  -0.659  0.00  0.00    -0.029 A 
ATOM      4  C   UNL     1      -3.753  -8.836  -1.245  0.00  0.00    +0.009 A 
ATOM      5  C   UNL     1      -4.841  -8.127  -1.714  0.00  0.00    +0.047 A 
ATOM      6  C   UNL     1      -4.873  -6.745  -1.595  0.00  0.00    +0.133 A 
ENDROOT
BRANCH   1   8
ATOM      7  N   UNL     1      -2.772  -3.962  -0.314  0.00  0.00    -0.310 N 
ATOM      8  C   UNL     1      -3.813  -4.604  -0.880  0.00  0.00    +0.248 C 
ATOM      9  O   UNL     1      -4.769  -3.972  -1.285  0.00  0.00    -0.270 OA
ATOM     10  H   UNL     1      -2.009  -4.466   0.009  0.00  0.00    +0.149 HD
BRANCH   7  15
ATOM     11  N   UNL     1      -1.376  -0.512   0.012  0.00  0.00    +0.381 N 
ATOM     12  C   UNL     1      -2.027  -0.132   1.272  0.00  0.00    -0.079 C 
ATOM     13  C   UNL     1      -3.487  -0.588   1.254  0.00  0.00    -0.017 C 
ATOM     14  C   UNL     1      -3.538  -2.110   1.091  0.00  0.00    +0.018 C 
ATOM     15  C   UNL     1      -2.792  -2.502  -0.187  0.00  0.00    +0.057 C 
ATOM     16  C   UNL     1      -1.358  -1.975  -0.116  0.00  0.00    -0.056 C 
ATOM     17  H   UNL     1      -1.886  -0.114  -0.762  0.00  0.00    -0.082 HD
BRANCH  11  19
ATOM     18  C   UNL     1      -0.019   1.526   0.010  0.00  0.00    -0.017 C 
ATOM     19  C   UNL     1       0.002  -0.004   0.002  0.00  0.00    -0.082 C 
ENDBRANCH  11  19
ENDBRANCH   7  15
ENDBRANCH   1   8
BRANCH   6  20
ATOM     20  O   UNL     1      -5.943  -6.047  -2.050  0.00  0.00    -0.491 OA
BRANCH  20  21
ATOM     21  C   UNL     1      -7.007  -6.799  -2.636  0.00  0.00    +0.226 C 
ATOM     22  C   UNL     1      -8.117  -5.847  -3.087  0.00  0.00    +0.048 C 
ENDBRANCH  20  21
ENDBRANCH   6  20
BRANCH   3  23
ATOM     23  C   UNL     1      -1.504  -8.963  -0.152  0.00  0.00    +0.152 C 
BRANCH  23  24
ATOM     24  N   UNL     1      -1.728  -9.333   1.247  0.00  0.00    -0.230 N 
ATOM     25  C   UNL     1      -1.362  -8.582   2.301  0.00  0.00    +0.254 C 
ATOM     26  O   UNL     1      -0.803  -7.505   2.244  0.00  0.00    -0.270 OA
ATOM     27  C   UNL     1      -1.756  -9.285   3.541  0.00  0.00    +0.049 A 
ATOM     28  C   UNL     1      -1.641  -9.002   4.892  0.00  0.00    +0.014 A 
ATOM     29  C   UNL     1      -2.129  -9.901   5.827  0.00  0.00    +0.001 A 
ATOM     30  C   UNL     1      -2.730 -11.077   5.420  0.00  0.00    +0.001 A 
ATOM     31  C   UNL     1      -2.853 -11.374   4.071  0.00  0.00    +0.014 A 
ATOM     32  C   UNL     1      -2.369 -10.484   3.125  0.00  0.00    +0.049 A 
ATOM     33  C   UNL     1      -2.331 -10.467   1.648  0.00  0.00    +0.254 C 
ATOM     34  O   UNL     1      -2.770 -11.333   0.918  0.00  0.00    -0.270 OA
ENDBRANCH  23  24
ENDBRANCH   3  23
TORSDOF 7
