REMARK  Name = ZINC12200400
REMARK  7 active torsions:
REMARK  status: ('A' for Active; 'I' for Inactive)
REMARK    1  A    between atoms: C_1  and  C_2
REMARK    2  A    between atoms: C_2  and  C_3
REMARK    3  A    between atoms: C_3  and  C_14
REMARK    4  A    between atoms: N_6  and  C_10
REMARK    5  A    between atoms: C_10  and  C_11
REMARK    6  A    between atoms: C_11  and  C_13
REMARK    7  A    between atoms: C_20  and  C_22
REMARK                            x       y       z     vdW  Elec       q    Type
REMARK                         _______ _______ _______ _____ _____    ______ ____
ROOT
ATOM      1  C   UNL     1      -0.208   9.887   1.427  0.00  0.00    +0.024 C 
ATOM      2  C   UNL     1      -1.734   9.806   1.525  0.00  0.00    +0.025 C 
ATOM      3  C   UNL     1      -2.284   9.088   0.288  0.00  0.00    +0.108 C 
ATOM      4  N   UNL     1      -1.617   7.785   0.163  0.00  0.00    -0.295 N 
ATOM      5  C   UNL     1      -0.148   7.740   0.156  0.00  0.00    +0.108 C 
ATOM      6  C   UNL     1       0.378   8.474   1.388  0.00  0.00    +0.025 C 
ATOM      7  C   UNL     1      -2.339   6.651   0.062  0.00  0.00    +0.282 C 
ATOM      8  O   UNL     1      -3.553   6.706   0.010  0.00  0.00    -0.267 OA
ENDROOT
BRANCH   7   9
ATOM      9  C   UNL     1      -1.659   5.349   0.014  0.00  0.00    +0.191 A 
ATOM     10  C   UNL     1      -2.279   4.141   0.055  0.00  0.00    +0.063 A 
ATOM     11  C   UNL     1      -1.218   3.138  -0.017  0.00  0.00    +0.021 A 
ATOM     12  C   UNL     1      -1.198   1.741  -0.025  0.00  0.00    +0.011 A 
ATOM     13  C   UNL     1      -0.003   1.082  -0.100  0.00  0.00    +0.001 A 
ATOM     14  C   UNL     1       1.188   1.791  -0.180  0.00  0.00    +0.004 A 
ATOM     15  C   UNL     1       1.189   3.169  -0.179  0.00  0.00    +0.047 A 
ATOM     16  C   UNL     1      -0.014   3.862  -0.098  0.00  0.00    +0.136 A 
ATOM     17  O   UNL     1      -0.324   5.172  -0.076  0.00  0.00    -0.450 OA
ENDBRANCH   7   9
BRANCH   1  18
ATOM     18  C   UNL     1       0.342  10.634   2.643  0.00  0.00    +0.115 C 
ATOM     19  C   UNL     1      -0.235  12.034   2.716  0.00  0.00    +0.247 C 
ATOM     20  O   UNL     1      -0.113  12.919   1.897  0.00  0.00    -0.273 OA
ATOM     21  N   UNL     1      -0.913  12.089   3.879  0.00  0.00    -0.220 N 
ATOM     22  C   UNL     1      -0.845  10.930   4.545  0.00  0.00    +0.310 C 
ATOM     23  O   UNL     1      -1.378  10.737   5.620  0.00  0.00    -0.252 OA
ATOM     24  N   UNL     1      -0.121  10.003   3.891  0.00  0.00    -0.285 N 
ATOM     25  H   UNL     1       0.060   9.097   4.185  0.00  0.00    +0.151 HD
BRANCH  18  27
ATOM     26  C   UNL     1       2.400  11.323   3.881  0.00  0.00    +0.006 C 
ATOM     27  C   UNL     1       1.870  10.683   2.596  0.00  0.00    +0.032 C 
ENDBRANCH  18  27
BRANCH  21  28
ATOM     28  C   UNL     1      -1.635  13.271   4.355  0.00  0.00    +0.148 C 
BRANCH  28  29
ATOM     29  C   UNL     1      -3.057  13.226   3.856  0.00  0.00    -0.062 C 
ATOM     30  C   UNL     1      -4.002  12.729   4.615  0.00  0.00    +0.009 C 
ATOM     31  C   UNL     1      -3.391  13.753   2.485  0.00  0.00    +0.040 C 
ENDBRANCH  28  29
ENDBRANCH  21  28
ENDBRANCH   1  18
TORSDOF 5
