REMARK  Name = ZINC09891939
REMARK  9 active torsions:
REMARK  status: ('A' for Active; 'I' for Inactive)
REMARK    1  A    between atoms: C_1  and  C_2
REMARK    2  A    between atoms: C_2  and  C_21
REMARK    3  A    between atoms: N_3  and  N_4
REMARK    4  A    between atoms: C_5  and  C_7
REMARK    5  A    between atoms: C_7  and  N_8
REMARK    6  A    between atoms: N_8  and  C_9
REMARK    7  A    between atoms: N_8  and  S_17
REMARK    8  A    between atoms: S_17  and  C_20
REMARK    9  A    between atoms: C_26  and  O_27
REMARK                            x       y       z     vdW  Elec       q    Type
REMARK                         _______ _______ _______ _____ _____    ______ ____
ROOT
ATOM      1  N   UNL     1       0.584   0.053   2.434  0.00  0.00    -0.205 N 
ATOM      2  C   UNL     1       0.358  -0.642   3.566  0.00  0.00    +0.251 C 
ATOM      3  O   UNL     1       0.361  -1.855   3.544  0.00  0.00    -0.272 OA
ATOM      4  H   UNL     1       0.582   1.023   2.451  0.00  0.00    +0.177 HD
ENDROOT
BRANCH   1   7
ATOM      5  C   UNL     1       1.036   1.551   0.168  0.00  0.00    +0.068 C 
ATOM      6  C   UNL     1       1.040   0.045   0.141  0.00  0.00    +0.067 C 
ATOM      7  N   UNL     1       0.822  -0.625   1.231  0.00  0.00    -0.184 NA
BRANCH   6   8
ATOM      8  C   UNL     1       1.290  -0.669  -1.125  0.00  0.00    +0.039 A 
ATOM      9  C   UNL     1       1.531   0.048  -2.299  0.00  0.00    +0.013 A 
ATOM     10  C   UNL     1       1.765  -0.626  -3.479  0.00  0.00    +0.001 A 
ATOM     11  C   UNL     1       1.763  -2.010  -3.505  0.00  0.00    +0.004 A 
ATOM     12  C   UNL     1       1.526  -2.731  -2.350  0.00  0.00    +0.046 A 
ATOM     13  C   UNL     1       1.294  -2.070  -1.154  0.00  0.00    +0.126 A 
BRANCH  13  14
ATOM     14  O   UNL     1       1.067  -2.777  -0.017  0.00  0.00    -0.506 OA
ATOM     15  H   UNL     1       0.135  -2.981   0.139  0.00  0.00    +0.292 HD
ENDBRANCH  13  14
ENDBRANCH   6   8
ENDBRANCH   1   7
BRANCH   2  16
ATOM     16  C   UNL     1       0.102   0.088   4.860  0.00  0.00    +0.228 C 
BRANCH  16  17
ATOM     17  N   UNL     1      -0.032  -0.882   5.949  0.00  0.00    -0.197 N 
BRANCH  17  18
ATOM     18  C   UNL     1       1.109  -1.378   6.587  0.00  0.00    +0.071 A 
ATOM     19  C   UNL     1       1.795  -2.457   6.046  0.00  0.00    +0.046 A 
ATOM     20  C   UNL     1       2.923  -2.945   6.680  0.00  0.00    +0.043 A 
ATOM     21  C   UNL     1       3.367  -2.360   7.853  0.00  0.00    +0.021 A 
ATOM     22  C   UNL     1       2.685  -1.286   8.395  0.00  0.00    +0.023 A 
ATOM     23  C   UNL     1       1.561  -0.789   7.762  0.00  0.00    +0.064 A 
ATOM     24 CL   UNL     1       0.710   0.564   8.439  0.00  0.00    -0.082 Cl
ATOM     25 CL   UNL     1       3.782  -4.293   6.004  0.00  0.00    -0.083 Cl
ENDBRANCH  17  18
BRANCH  17  26
ATOM     26  S   UNL     1      -1.534  -1.391   6.425  0.00  0.00    +0.043 S 
ATOM     27  O   UNL     1      -1.353  -1.866   7.752  0.00  0.00    -0.155 OA
ATOM     28  O   UNL     1      -2.391  -0.289   6.160  0.00  0.00    -0.155 OA
ATOM     29  C   UNL     1      -1.931  -2.771   5.316  0.00  0.00    +0.218 C 
ENDBRANCH  17  26
ENDBRANCH  16  17
ENDBRANCH   2  16
TORSDOF 7
