REMARK  Name = ZINC65976651
REMARK  15 active torsions:
REMARK  status: ('A' for Active; 'I' for Inactive)
REMARK    1  A    between atoms: C_1  and  C_2
REMARK    2  A    between atoms: C_2  and  O_3
REMARK    3  A    between atoms: O_3  and  C_4
REMARK    4  A    between atoms: C_6  and  C_14
REMARK    5  A    between atoms: C_9  and  O_10
REMARK    6  A    between atoms: O_10  and  C_11
REMARK    7  A    between atoms: C_14  and  N_15
REMARK    8  A    between atoms: N_15  and  C_16
REMARK    9  A    between atoms: C_16  and  C_17
REMARK   10  A    between atoms: C_21  and  C_23
REMARK   11  A    between atoms: C_23  and  N_24
REMARK   12  A    between atoms: N_24  and  C_25
REMARK   13  A    between atoms: N_24  and  C_26
REMARK   14  A    between atoms: C_26  and  C_27
REMARK   15  A    between atoms: C_26  and  C_28
REMARK                            x       y       z     vdW  Elec       q    Type
REMARK                         _______ _______ _______ _____ _____    ______ ____
ROOT
ATOM      1  N   UNL     1       0.787  -5.241  -1.571  0.00  0.00    +0.384 N 
ATOM      2  H   UNL     1       1.067  -4.376  -2.008  0.00  0.00    -0.085 HD
ATOM      3  H   UNL     1       1.592  -5.680  -1.149  0.00  0.00    -0.085 HD
ENDROOT
BRANCH   1   4
ATOM      4  C   UNL     1      -0.217  -4.963  -0.535  0.00  0.00    -0.046 C 
BRANCH   4   7
ATOM      5  C   UNL     1       0.802  -1.825   1.306  0.00  0.00    +0.162 A 
ATOM      6  C   UNL     1       0.261  -2.673   0.353  0.00  0.00    +0.051 A 
ATOM      7  C   UNL     1       0.372  -4.043   0.502  0.00  0.00    -0.061 A 
ATOM      8  C   UNL     1       1.024  -4.570   1.602  0.00  0.00    +0.005 A 
ATOM      9  C   UNL     1       1.566  -3.730   2.557  0.00  0.00    +0.050 A 
ATOM     10  C   UNL     1       1.462  -2.356   2.410  0.00  0.00    +0.168 A 
BRANCH   5  11
ATOM     11  O   UNL     1       0.693  -0.477   1.160  0.00  0.00    -0.489 OA
BRANCH  11  13
ATOM     12  C   UNL     1      -0.019   1.526   0.010  0.00  0.00    +0.048 C 
ATOM     13  C   UNL     1       0.002  -0.004   0.002  0.00  0.00    +0.226 C 
ENDBRANCH  11  13
ENDBRANCH   5  11
BRANCH  10  14
ATOM     14  O   UNL     1       2.000  -1.528   3.345  0.00  0.00    -0.431 OA
BRANCH  14  15
ATOM     15  C   UNL     1       2.664  -2.143   4.451  0.00  0.00    +0.541 C 
ATOM     16  F   UNL     1       1.760  -2.955   5.144  0.00  0.00    -0.166 F 
ATOM     17  F   UNL     1       3.727  -2.922   3.983  0.00  0.00    -0.166 F 
ENDBRANCH  14  15
ENDBRANCH  10  14
ENDBRANCH   4   7
ENDBRANCH   1   4
BRANCH   1  18
ATOM     18  C   UNL     1       0.213  -6.138  -2.582  0.00  0.00    -0.046 C 
BRANCH  18  19
ATOM     19  C   UNL     1       1.243  -6.423  -3.644  0.00  0.00    -0.064 A 
ATOM     20  C   UNL     1       1.338  -5.602  -4.753  0.00  0.00    +0.002 A 
ATOM     21  C   UNL     1       2.283  -5.863  -5.727  0.00  0.00    +0.000 A 
ATOM     22  C   UNL     1       3.133  -6.945  -5.593  0.00  0.00    +0.002 A 
ATOM     23  C   UNL     1       3.039  -7.765  -4.484  0.00  0.00    -0.064 A 
ATOM     24  C   UNL     1       2.097  -7.501  -3.507  0.00  0.00    +0.003 A 
BRANCH  23  25
ATOM     25  C   UNL     1       3.966  -8.944  -4.338  0.00  0.00    -0.043 C 
BRANCH  25  26
ATOM     26  N   UNL     1       5.179  -8.527  -3.622  0.00  0.00    +0.382 N 
ATOM     27  C   UNL     1       5.917  -7.552  -4.435  0.00  0.00    -0.095 C 
ATOM     28  H   UNL     1       4.922  -8.106  -2.741  0.00  0.00    -0.081 HD
BRANCH  26  29
ATOM     29  C   UNL     1       6.028  -9.700  -3.374  0.00  0.00    -0.075 C 
ATOM     30  C   UNL     1       7.292  -9.267  -2.628  0.00  0.00    -0.014 C 
ATOM     31  C   UNL     1       5.260 -10.717  -2.527  0.00  0.00    -0.014 C 
ENDBRANCH  26  29
ENDBRANCH  25  26
ENDBRANCH  23  25
ENDBRANCH  18  19
ENDBRANCH   1  18
TORSDOF 11
