REMARK  Name = ZINC39654499
REMARK  9 active torsions:
REMARK  status: ('A' for Active; 'I' for Inactive)
REMARK    1  A    between atoms: C_1  and  C_2
REMARK    2  A    between atoms: C_2  and  C_3
REMARK    3  A    between atoms: C_6  and  C_9
REMARK    4  A    between atoms: C_9  and  C_10
REMARK    5  A    between atoms: C_10  and  N_11
REMARK    6  A    between atoms: C_12  and  C_14
REMARK    7  A    between atoms: C_25  and  C_27
REMARK    8  A    between atoms: C_31  and  O_32
REMARK    9  A    between atoms: O_32  and  C_33
REMARK                            x       y       z     vdW  Elec       q    Type
REMARK                         _______ _______ _______ _____ _____    ______ ____
ROOT
ATOM      1  C   UNL     1       5.064  -0.738  -8.893  0.00  0.00    +0.100 C 
ATOM      2  C   UNL     1       6.402  -1.419  -8.526  0.00  0.00    +0.121 C 
ATOM      3  N   UNL     1       7.331  -1.027  -9.613  0.00  0.00    -0.296 N 
ATOM      4  C   UNL     1       6.994   0.389  -9.893  0.00  0.00    +0.115 C 
ATOM      5  C   UNL     1       5.457   0.448  -9.789  0.00  0.00    -0.004 C 
ATOM      6  C   UNL     1       5.022   1.762  -9.147  0.00  0.00    -0.010 C 
ATOM      7  C   UNL     1       5.371   2.922 -10.083  0.00  0.00    -0.082 C 
ATOM      8  N   UNL     1       4.691   2.736 -11.371  0.00  0.00    +0.379 N 
ATOM      9  C   UNL     1       5.184   1.517 -12.025  0.00  0.00    -0.082 C 
ATOM     10  C   UNL     1       4.828   0.297 -11.171  0.00  0.00    -0.010 C 
ATOM     11  C   UNL     1       8.270  -1.787 -10.210  0.00  0.00    +0.251 C 
ATOM     12  O   UNL     1       8.362  -2.968  -9.936  0.00  0.00    -0.270 OA
ATOM     13  H   UNL     1       3.697   2.655 -11.217  0.00  0.00    -0.086 HD
ATOM     14  H   UNL     1       4.873   3.531 -11.964  0.00  0.00    -0.086 HD
ENDROOT
BRANCH  11  15
ATOM     15  C   UNL     1       9.184  -1.187 -11.194  0.00  0.00    +0.087 A 
ATOM     16  C   UNL     1       9.633   0.109 -11.066  0.00  0.00    +0.063 A 
ATOM     17  S   UNL     1      10.628   0.337 -12.397  0.00  0.00    -0.081 S 
ATOM     18  C   UNL     1      10.490  -1.261 -13.168  0.00  0.00    +0.120 A 
ATOM     19  C   UNL     1       9.659  -1.931 -12.338  0.00  0.00    +0.158 A 
ATOM     20 CL   UNL     1      11.243  -1.825 -14.627  0.00  0.00    -0.072 Cl
BRANCH  19  21
ATOM     21  O   UNL     1       9.289  -3.222 -12.568  0.00  0.00    -0.492 OA
ATOM     22  C   UNL     1       8.116  -3.430 -13.356  0.00  0.00    +0.277 C 
ENDBRANCH  19  21
ENDBRANCH  11  15
BRANCH   1  24
ATOM     23  N   UNL     1       3.040  -0.011  -7.670  0.00  0.00    -0.315 N 
ATOM     24  C   UNL     1       4.367  -0.249  -7.650  0.00  0.00    +0.218 C 
ATOM     25  O   UNL     1       4.999  -0.069  -6.631  0.00  0.00    -0.275 OA
ATOM     26  H   UNL     1       2.535  -0.155  -8.485  0.00  0.00    +0.149 HD
BRANCH  23  27
ATOM     27  C   UNL     1       2.363   0.465  -6.462  0.00  0.00    +0.109 C 
BRANCH  27  28
ATOM     28  C   UNL     1       0.873   0.654  -6.754  0.00  0.00    +0.054 C 
BRANCH  28  32
ATOM     29  C   UNL     1      -1.106   2.042  -3.231  0.00  0.00    -0.048 A 
ATOM     30  C   UNL     1      -0.577   2.949  -4.130  0.00  0.00    +0.004 A 
ATOM     31  C   UNL     1       0.064   2.500  -5.270  0.00  0.00    +0.004 A 
ATOM     32  C   UNL     1       0.175   1.143  -5.511  0.00  0.00    -0.046 A 
ATOM     33  C   UNL     1      -0.353   0.236  -4.612  0.00  0.00    +0.004 A 
ATOM     34  C   UNL     1      -0.989   0.685  -3.470  0.00  0.00    +0.004 A 
BRANCH  29  36
ATOM     35  C   UNL     1      -0.786   2.680  -0.857  0.00  0.00    +0.009 C 
ATOM     36  C   UNL     1      -1.804   2.531  -1.989  0.00  0.00    +0.032 C 
ENDBRANCH  29  36
ENDBRANCH  28  32
ENDBRANCH  27  28
ENDBRANCH  23  27
ENDBRANCH   1  24
TORSDOF 7
