REMARK  Name = ZINC63855256
REMARK  8 active torsions:
REMARK  status: ('A' for Active; 'I' for Inactive)
REMARK    1  A    between atoms: C_1  and  C_2
REMARK    2  A    between atoms: C_2  and  N_3
REMARK    3  A    between atoms: N_3  and  C_4
REMARK    4  A    between atoms: C_4  and  C_5
REMARK    5  A    between atoms: C_16  and  C_18
REMARK    6  A    between atoms: C_18  and  N_19
REMARK    7  A    between atoms: C_22  and  C_27
REMARK    8  A    between atoms: C_27  and  C_28
REMARK                            x       y       z     vdW  Elec       q    Type
REMARK                         _______ _______ _______ _____ _____    ______ ____
ROOT
ATOM      1  N   UNL     1      -2.156  -0.832   3.604  0.00  0.00    -0.216 N 
ATOM      2  C   UNL     1      -3.002   0.039   4.189  0.00  0.00    +0.244 C 
ATOM      3  O   UNL     1      -3.170   1.204   3.898  0.00  0.00    -0.273 OA
ATOM      4  C   UNL     1      -3.701  -0.741   5.285  0.00  0.00    +0.165 C 
ATOM      5  N   UNL     1      -3.112  -2.087   5.181  0.00  0.00    -0.287 N 
ATOM      6  C   UNL     1      -2.227  -2.043   4.169  0.00  0.00    +0.310 C 
ATOM      7  O   UNL     1      -1.562  -2.995   3.811  0.00  0.00    -0.252 OA
ATOM      8  H   UNL     1      -3.325  -2.857   5.732  0.00  0.00    +0.151 HD
ENDROOT
BRANCH   1   9
ATOM      9  C   UNL     1      -1.274  -0.497   2.484  0.00  0.00    +0.213 C 
BRANCH   9  11
ATOM     10  N   UNL     1      -1.372  -0.511   0.012  0.00  0.00    -0.297 N 
ATOM     11  C   UNL     1      -1.993  -0.751   1.184  0.00  0.00    +0.234 C 
ATOM     12  O   UNL     1      -3.131  -1.171   1.193  0.00  0.00    -0.274 OA
BRANCH  10  14
ATOM     13  C   UNL     1      -0.019   1.526   0.010  0.00  0.00    +0.024 C 
ATOM     14  C   UNL     1       0.002  -0.004   0.002  0.00  0.00    +0.104 C 
ENDBRANCH  10  14
BRANCH  10  15
ATOM     15  C   UNL     1      -2.072  -0.758  -1.251  0.00  0.00    +0.155 C 
BRANCH  15  16
ATOM     16  C   UNL     1      -1.816  -2.197  -1.703  0.00  0.00    +0.228 C 
ATOM     17  C   UNL     1      -2.534  -2.457  -3.034  0.00  0.00    +0.275 C 
ATOM     18  O   UNL     1      -2.263  -3.805  -3.434  0.00  0.00    -0.485 OA
ATOM     19  C   UNL     1      -0.969  -4.218  -3.352  0.00  0.00    +0.162 A 
ATOM     20  C   UNL     1      -0.572  -5.352  -4.044  0.00  0.00    +0.049 A 
ATOM     21  C   UNL     1       0.738  -5.787  -3.968  0.00  0.00    +0.004 A 
ATOM     22  C   UNL     1       1.656  -5.092  -3.202  0.00  0.00    +0.004 A 
ATOM     23  C   UNL     1       1.267  -3.961  -2.511  0.00  0.00    +0.049 A 
ATOM     24  C   UNL     1      -0.046  -3.519  -2.584  0.00  0.00    +0.163 A 
ATOM     25  O   UNL     1      -0.412  -2.398  -1.903  0.00  0.00    -0.480 OA
ENDBRANCH  15  16
ENDBRANCH  10  15
ENDBRANCH   9  11
ENDBRANCH   1   9
BRANCH   4  26
ATOM     26  C   UNL     1      -3.407  -0.126   6.655  0.00  0.00    +0.065 C 
BRANCH  26  27
ATOM     27  C   UNL     1      -4.209  -0.843   7.710  0.00  0.00    -0.039 C 
ATOM     28  C   UNL     1      -3.795  -1.868   8.489  0.00  0.00    -0.001 A 
ATOM     29  C   UNL     1      -2.523  -2.595   8.583  0.00  0.00    +0.010 A 
ATOM     30  C   UNL     1      -2.407  -3.600   9.481  0.00  0.00    +0.001 A 
ATOM     31  C   UNL     1      -3.467  -3.963  10.322  0.00  0.00    +0.002 A 
ATOM     32  C   UNL     1      -4.666  -3.342  10.295  0.00  0.00    +0.026 A 
ATOM     33  C   UNL     1      -4.899  -2.271   9.389  0.00  0.00    +0.043 A 
ATOM     34  N   UNL     1      -5.955  -1.524   9.174  0.00  0.00    -0.380 N 
ATOM     35  C   UNL     1      -5.637  -0.557   8.117  0.00  0.00    +0.144 C 
ATOM     36  H   UNL     1      -6.803  -1.595   9.639  0.00  0.00    +0.160 HD
ENDBRANCH  26  27
ENDBRANCH   4  26
TORSDOF 7
