REMARK  Name = ZINC32825461
REMARK  5 active torsions:
REMARK  status: ('A' for Active; 'I' for Inactive)
REMARK    1  A    between atoms: C_3  and  N_9
REMARK    2  A    between atoms: C_10  and  C_12
REMARK    3  A    between atoms: N_17  and  C_18
REMARK    4  A    between atoms: C_18  and  C_19
REMARK    5  A    between atoms: N_21  and  C_22
REMARK                            x       y       z     vdW  Elec       q    Type
REMARK                         _______ _______ _______ _____ _____    ______ ____
ROOT
ATOM      1  C   UNL     1       2.296   5.676   0.225  0.00  0.00    +0.020 C 
ATOM      2  C   UNL     1       1.562   6.087   1.515  0.00  0.00    -0.008 C 
ATOM      3  C   UNL     1       2.599   6.891   2.331  0.00  0.00    -0.020 C 
ATOM      4  C   UNL     1       3.606   7.357   1.249  0.00  0.00    -0.077 C 
ATOM      5  N   UNL     1       3.677   6.194   0.323  0.00  0.00    +0.393 N 
ATOM      6  H   UNL     1       4.375   5.424   0.684  0.00  0.00    -0.080 HD
ENDROOT
BRANCH   1   8
ATOM      7  N   UNL     1       1.163   3.487   0.009  0.00  0.00    -0.286 N 
ATOM      8  C   UNL     1       2.319   4.174   0.104  0.00  0.00    +0.204 C 
ATOM      9  O   UNL     1       3.378   3.583   0.091  0.00  0.00    -0.277 OA
ATOM     10  H   UNL     1       0.206   4.027  -0.054  0.00  0.00    +0.155 HD
BRANCH   7  13
ATOM     11  C   UNL     1       2.236   0.031  -0.644  0.00  0.00    +0.022 A 
ATOM     12  C   UNL     1       2.223   1.412  -0.627  0.00  0.00    +0.026 A 
ATOM     13  C   UNL     1       1.179   2.087  -0.009  0.00  0.00    +0.052 A 
ATOM     14  C   UNL     1       0.150   1.371   0.591  0.00  0.00    +0.064 A 
ATOM     15  C   UNL     1       0.169  -0.010   0.571  0.00  0.00    +0.041 A 
ATOM     16  C   UNL     1       1.211  -0.680  -0.045  0.00  0.00    +0.042 A 
ATOM     17 CL   UNL     1       1.232  -2.416  -0.069  0.00  0.00    -0.083 Cl
ATOM     18 CL   UNL     1      -1.161   2.211   1.359  0.00  0.00    -0.082 Cl
ENDBRANCH   7  13
ENDBRANCH   1   8
BRANCH   5  19
ATOM     19  C   UNL     1       4.183   6.597  -0.996  0.00  0.00    +0.020 C 
BRANCH  19  20
ATOM     20  C   UNL     1       5.483   7.341  -0.830  0.00  0.00    +0.197 C 
ATOM     21  O   UNL     1       5.943   7.518   0.279  0.00  0.00    -0.278 OA
ATOM     22  N   UNL     1       6.135   7.809  -1.912  0.00  0.00    -0.314 N 
ATOM     23  H   UNL     1       5.718   7.648  -2.917  0.00  0.00    +0.149 HD
BRANCH  22  24
ATOM     24  C   UNL     1       7.399   8.532  -1.751  0.00  0.00    +0.073 C 
ATOM     25  C   UNL     1       7.123  10.032  -1.518  0.00  0.00    +0.022 C 
ATOM     26  C   UNL     1       8.265  10.751  -2.280  0.00  0.00    +0.002 C 
ATOM     27  C   UNL     1       8.434   9.876  -3.547  0.00  0.00    +0.002 C 
ATOM     28  C   UNL     1       8.232   8.433  -3.041  0.00  0.00    +0.022 C 
ENDBRANCH  22  24
ENDBRANCH  19  20
ENDBRANCH   5  19
TORSDOF 5
