REMARK  Name = ZINC09638174
REMARK  4 active torsions:
REMARK  status: ('A' for Active; 'I' for Inactive)
REMARK    1  A    between atoms: C_1  and  C_2
REMARK    2  A    between atoms: C_3  and  C_14
REMARK    3  A    between atoms: N_6  and  C_7
REMARK    4  A    between atoms: C_20  and  C_22
REMARK                            x       y       z     vdW  Elec       q    Type
REMARK                         _______ _______ _______ _____ _____    ______ ____
ROOT
ATOM      1  C   UNL     1       2.750  -5.377  -0.159  0.00  0.00    +0.192 A 
ATOM      2  N   UNL     1       2.208  -6.577  -0.098  0.00  0.00    -0.202 NA
ATOM      3  C   UNL     1       2.998  -7.636  -0.174  0.00  0.00    +0.185 A 
ATOM      4  S   UNL     1       4.561  -6.898  -0.325  0.00  0.00    +0.050 S 
ATOM      5  N   UNL     1       4.058  -5.263  -0.283  0.00  0.00    -0.186 NA
ATOM      6  N   UNL     1       2.666  -8.982  -0.138  0.00  0.00    -0.259 N 
ATOM      7  C   UNL     1       3.631  -9.918  -0.226  0.00  0.00    +0.250 C 
ATOM      8  O   UNL     1       4.794  -9.582  -0.338  0.00  0.00    -0.270 OA
ATOM      9  H   UNL     1       1.737  -9.250  -0.049  0.00  0.00    +0.157 HD
ENDROOT
BRANCH   7  10
ATOM     10  C   UNL     1       3.277 -11.351  -0.187  0.00  0.00    +0.037 A 
ATOM     11  C   UNL     1       1.942 -11.740  -0.053  0.00  0.00    +0.014 A 
ATOM     12  C   UNL     1       1.617 -13.080  -0.024  0.00  0.00    +0.021 A 
ATOM     13  C   UNL     1       2.612 -14.039  -0.114  0.00  0.00    +0.041 A 
ATOM     14  C   UNL     1       3.938 -13.660  -0.241  0.00  0.00    +0.021 A 
ATOM     15  C   UNL     1       4.275 -12.323  -0.279  0.00  0.00    +0.014 A 
ATOM     16 CL   UNL     1       2.196 -15.724  -0.068  0.00  0.00    -0.084 Cl
ENDBRANCH   7  10
BRANCH   1  19
ATOM     17  C   UNL     1       3.769  -2.423  -0.268  0.00  0.00    +0.068 C 
ATOM     18  C   UNL     1       2.339  -2.878  -0.130  0.00  0.00    +0.073 A 
ATOM     19  C   UNL     1       1.897  -4.165  -0.083  0.00  0.00    +0.153 A 
ATOM     20  N   UNL     1       0.562  -4.155   0.043  0.00  0.00    -0.126 NA
ATOM     21  N   UNL     1       0.136  -2.941   0.085  0.00  0.00    -0.060 NA
ATOM     22  N   UNL     1       1.239  -2.083  -0.029  0.00  0.00    -0.214 N 
BRANCH  22  23
ATOM     23  C   UNL     1       1.215  -0.680  -0.032  0.00  0.00    +0.102 A 
ATOM     24  C   UNL     1       2.093   0.033   0.772  0.00  0.00    +0.031 A 
ATOM     25  C   UNL     1       2.066   1.414   0.767  0.00  0.00    +0.002 A 
ATOM     26  C   UNL     1       1.166   2.087  -0.038  0.00  0.00    +0.003 A 
ATOM     27  C   UNL     1       0.289   1.382  -0.841  0.00  0.00    +0.040 A 
ATOM     28  C   UNL     1       0.310  -0.001  -0.841  0.00  0.00    +0.149 A 
ATOM     29  F   UNL     1      -0.546  -0.691  -1.625  0.00  0.00    -0.203 F 
ENDBRANCH  22  23
ENDBRANCH   1  19
TORSDOF 3
