REMARK  Name = ZINC05569059
REMARK  5 active torsions:
REMARK  status: ('A' for Active; 'I' for Inactive)
REMARK    1  A    between atoms: C_3  and  C_10
REMARK    2  A    between atoms: C_5  and  N_7
REMARK    3  A    between atoms: N_12  and  N_13
REMARK    4  A    between atoms: C_14  and  C_15
REMARK    5  A    between atoms: C_18  and  O_22
REMARK                            x       y       z     vdW  Elec       q    Type
REMARK                         _______ _______ _______ _____ _____    ______ ____
ROOT
ATOM      1  C   UNL     1      -4.981   1.161   0.033  0.00  0.00    +0.263 C 
ATOM      2  O   UNL     1      -4.969  -0.055   0.026  0.00  0.00    -0.268 OA
ATOM      3  N   UNL     1      -6.154   1.823   0.043  0.00  0.00    -0.203 N 
ATOM      4  H   UNL     1      -6.164   2.793   0.048  0.00  0.00    +0.178 HD
ENDROOT
BRANCH   1   7
ATOM      5  C   UNL     1      -2.526   4.003   0.037  0.00  0.00    +0.003 A 
ATOM      6  C   UNL     1      -3.718   3.308   0.039  0.00  0.00    +0.013 A 
ATOM      7  C   UNL     1      -3.708   1.912   0.030  0.00  0.00    +0.041 A 
ATOM      8  C   UNL     1      -2.490   1.229   0.021  0.00  0.00    +0.045 A 
ATOM      9  C   UNL     1      -1.306   1.936   0.019  0.00  0.00    +0.127 A 
ATOM     10  C   UNL     1      -1.323   3.320   0.032  0.00  0.00    +0.033 A 
BRANCH   9  11
ATOM     11  N   UNL     1      -0.014   1.214   0.009  0.00  0.00    +0.056 N 
ATOM     12  O   UNL     1       0.002  -0.004   0.002  0.00  0.00    -0.126 OA
ATOM     13  O   UNL     1       1.032   1.837   0.002  0.00  0.00    -0.126 OA
ENDBRANCH   9  11
ENDBRANCH   1   7
BRANCH   3  14
ATOM     14  N   UNL     1      -7.361   1.111   0.045  0.00  0.00    -0.187 NA
ATOM     15  C   UNL     1      -8.491   1.749   0.054  0.00  0.00    +0.138 C 
BRANCH  15  16
ATOM     16  C   UNL     1      -9.761   1.000   0.057  0.00  0.00    -0.004 A 
ATOM     17  C   UNL     1      -9.749  -0.398   0.043  0.00  0.00    +0.013 A 
ATOM     18  C   UNL     1     -10.938  -1.094   0.050  0.00  0.00    +0.047 A 
ATOM     19  C   UNL     1     -12.147  -0.410   0.060  0.00  0.00    +0.131 A 
ATOM     20  C   UNL     1     -12.163   0.979   0.068  0.00  0.00    +0.060 A 
ATOM     21  C   UNL     1     -10.979   1.685   0.067  0.00  0.00    +0.028 A 
ATOM     22 BR   UNL     1     -13.813   1.904   0.081  0.00  0.00    -0.047 Br
BRANCH  19  23
ATOM     23  O   UNL     1     -13.316  -1.101   0.062  0.00  0.00    -0.506 OA
ATOM     24  H   UNL     1     -13.659  -1.296  -0.821  0.00  0.00    +0.292 HD
ENDBRANCH  19  23
ENDBRANCH  15  16
ENDBRANCH   3  14
TORSDOF 5
