REMARK  Name = ZINC63069763
REMARK  6 active torsions:
REMARK  status: ('A' for Active; 'I' for Inactive)
REMARK    1  A    between atoms: C_3  and  C_10
REMARK    2  A    between atoms: C_5  and  N_7
REMARK    3  A    between atoms: C_10  and  N_11
REMARK    4  A    between atoms: N_14  and  C_15
REMARK    5  A    between atoms: C_15  and  C_16
REMARK    6  A    between atoms: N_18  and  C_19
REMARK                            x       y       z     vdW  Elec       q    Type
REMARK                         _______ _______ _______ _____ _____    ______ ____
ROOT
ATOM      1  N   UNL     1       4.126   2.388   1.358  0.00  0.00    -0.295 N 
ATOM      2  C   UNL     1       5.264   3.070   1.595  0.00  0.00    +0.300 C 
ATOM      3  O   UNL     1       5.936   3.474   0.666  0.00  0.00    -0.253 OA
ATOM      4  N   UNL     1       5.657   3.304   2.863  0.00  0.00    -0.291 N 
ATOM      5  H   UNL     1       3.590   2.066   2.099  0.00  0.00    +0.151 HD
ATOM      6  H   UNL     1       5.121   2.981   3.604  0.00  0.00    +0.151 HD
ENDROOT
BRANCH   1   7
ATOM      7  C   UNL     1       3.698   2.134  -0.020  0.00  0.00    +0.141 C 
BRANCH   7  10
ATOM      8  C   UNL     1       0.012   1.319   0.004  0.00  0.00    +0.003 A 
ATOM      9  C   UNL     1       1.198   2.030  -0.004  0.00  0.00    +0.005 A 
ATOM     10  C   UNL     1       2.406   1.359  -0.010  0.00  0.00    -0.028 A 
ATOM     11  C   UNL     1       2.428  -0.024  -0.008  0.00  0.00    +0.038 A 
ATOM     12  C   UNL     1       1.243  -0.734   0.001  0.00  0.00    +0.127 A 
ATOM     13  C   UNL     1       0.034  -0.062   0.006  0.00  0.00    +0.033 A 
BRANCH  12  14
ATOM     14  N   UNL     1       1.267  -2.214   0.003  0.00  0.00    +0.056 N 
ATOM     15  O   UNL     1       2.324  -2.801  -0.003  0.00  0.00    -0.126 OA
ATOM     16  O   UNL     1       0.230  -2.836   0.011  0.00  0.00    -0.126 OA
ENDBRANCH  12  14
ENDBRANCH   7  10
ENDBRANCH   1   7
BRANCH   4  17
ATOM     17  C   UNL     1       6.894   4.045   3.121  0.00  0.00    +0.202 C 
BRANCH  17  18
ATOM     18  C   UNL     1       7.104   4.169   4.609  0.00  0.00    +0.234 C 
ATOM     19  O   UNL     1       6.300   3.685   5.377  0.00  0.00    -0.274 OA
ATOM     20  N   UNL     1       8.186   4.816   5.085  0.00  0.00    -0.282 N 
ATOM     21  H   UNL     1       8.862   5.146   4.472  0.00  0.00    +0.155 HD
BRANCH  20  22
ATOM     22  C   UNL     1       8.334   5.013   6.464  0.00  0.00    +0.072 A 
ATOM     23  C   UNL     1       7.886   4.048   7.356  0.00  0.00    +0.029 A 
ATOM     24  C   UNL     1       8.031   4.243   8.716  0.00  0.00    +0.043 A 
ATOM     25  C   UNL     1       8.625   5.400   9.192  0.00  0.00    +0.161 A 
ATOM     26  C   UNL     1       9.075   6.366   8.305  0.00  0.00    +0.195 A 
ATOM     27  C   UNL     1       8.935   6.172   6.941  0.00  0.00    +0.182 A 
ATOM     28  F   UNL     1       9.378   7.110   6.076  0.00  0.00    -0.200 F 
ATOM     29  F   UNL     1       9.653   7.494   8.772  0.00  0.00    -0.199 F 
ATOM     30  F   UNL     1       8.766   5.587  10.522  0.00  0.00    -0.202 F 
ENDBRANCH  20  22
ENDBRANCH  17  18
ENDBRANCH   4  17
TORSDOF 6
