REMARK  Name = ZINC39751898
REMARK  9 active torsions:
REMARK  status: ('A' for Active; 'I' for Inactive)
REMARK    1  A    between atoms: C_1  and  N_2
REMARK    2  A    between atoms: N_2  and  C_3
REMARK    3  A    between atoms: N_2  and  S_14
REMARK    4  A    between atoms: C_3  and  C_4
REMARK    5  A    between atoms: C_4  and  O_5
REMARK    6  A    between atoms: O_5  and  C_6
REMARK    7  A    between atoms: C_9  and  O_12
REMARK    8  A    between atoms: O_12  and  C_13
REMARK    9  A    between atoms: S_14  and  C_17
REMARK                            x       y       z     vdW  Elec       q    Type
REMARK                         _______ _______ _______ _____ _____    ______ ____
ROOT
ATOM      1  S   UNL     1      -0.000  -0.824  -1.437  0.00  0.00    +0.061 S 
ATOM      2  O   UNL     1      -0.531  -2.115  -1.167  0.00  0.00    -0.153 OA
ATOM      3  O   UNL     1      -0.572   0.049  -2.401  0.00  0.00    -0.153 OA
ENDROOT
BRANCH   1   4
ATOM      4  C   UNL     1       1.682  -1.059  -1.905  0.00  0.00    +0.107 A 
ATOM      5  C   UNL     1       2.337  -0.043  -2.720  0.00  0.00    +0.030 A 
ATOM      6  C   UNL     1       3.624  -0.162  -3.113  0.00  0.00    +0.027 A 
ATOM      7  C   UNL     1       4.394  -1.339  -2.716  0.00  0.00    +0.056 A 
ATOM      8  N   UNL     1       5.620  -1.752  -2.919  0.00  0.00    -0.268 N 
ATOM      9  C   UNL     1       5.780  -2.962  -2.286  0.00  0.00    +0.308 C 
ATOM     10  O   UNL     1       6.801  -3.616  -2.279  0.00  0.00    -0.252 OA
ATOM     11  N   UNL     1       4.608  -3.321  -1.662  0.00  0.00    -0.267 N 
ATOM     12  C   UNL     1       3.721  -2.383  -1.880  0.00  0.00    +0.058 A 
ATOM     13  C   UNL     1       2.326  -2.173  -1.494  0.00  0.00    +0.053 A 
ATOM     14  H   UNL     1       4.463  -4.130  -1.149  0.00  0.00    +0.156 HD
ATOM     15  H   UNL     1       6.299  -1.285  -3.430  0.00  0.00    +0.156 HD
ENDBRANCH   1   4
BRANCH   1  17
ATOM     16  C   UNL     1      -0.018   1.461   0.010  0.00  0.00    +0.131 C 
ATOM     17  N   UNL     1       0.002  -0.004   0.002  0.00  0.00    -0.176 NA
BRANCH  17  18
ATOM     18  C   UNL     1       0.024  -0.743   1.267  0.00  0.00    +0.150 C 
BRANCH  18  19
ATOM     19  C   UNL     1      -1.406  -0.912   1.784  0.00  0.00    +0.246 C 
BRANCH  19  20
ATOM     20  O   UNL     1      -2.146  -1.733   0.879  0.00  0.00    -0.491 OA
BRANCH  20  21
ATOM     21  C   UNL     1      -3.445  -1.983   1.194  0.00  0.00    +0.121 A 
ATOM     22  C   UNL     1      -3.996  -1.444   2.347  0.00  0.00    +0.049 A 
ATOM     23  C   UNL     1      -5.315  -1.698   2.667  0.00  0.00    +0.049 A 
ATOM     24  C   UNL     1      -6.090  -2.492   1.834  0.00  0.00    +0.120 A 
ATOM     25  C   UNL     1      -5.540  -3.030   0.681  0.00  0.00    +0.049 A 
ATOM     26  C   UNL     1      -4.222  -2.773   0.359  0.00  0.00    +0.049 A 
BRANCH  24  27
ATOM     27  O   UNL     1      -7.389  -2.743   2.150  0.00  0.00    -0.495 OA
ATOM     28  C   UNL     1      -8.128  -3.568   1.247  0.00  0.00    +0.277 C 
ENDBRANCH  24  27
ENDBRANCH  20  21
ENDBRANCH  19  20
ENDBRANCH  18  19
ENDBRANCH  17  18
ENDBRANCH   1  17
TORSDOF 7
