REMARK  Name = ZINC39457602
REMARK  9 active torsions:
REMARK  status: ('A' for Active; 'I' for Inactive)
REMARK    1  A    between atoms: C_1  and  C_2
REMARK    2  A    between atoms: C_2  and  O_3
REMARK    3  A    between atoms: O_3  and  C_4
REMARK    4  A    between atoms: N_20  and  O_34
REMARK    5  A    between atoms: C_21  and  C_33
REMARK    6  A    between atoms: C_22  and  S_23
REMARK    7  A    between atoms: S_23  and  O_26
REMARK    8  A    between atoms: O_26  and  C_27
REMARK    9  A    between atoms: O_34  and  C_35
REMARK                            x       y       z     vdW  Elec       q    Type
REMARK                         _______ _______ _______ _____ _____    ______ ____
ROOT
ATOM      1  C   UNL     1      -0.141  -0.989  -1.071  0.00  0.00    +0.142 A 
ATOM      2  C   UNL     1       1.076  -1.459  -0.518  0.00  0.00    +0.043 A 
ATOM      3  C   UNL     1       1.901  -0.595   0.219  0.00  0.00    +0.013 A 
ATOM      4  C   UNL     1       3.060  -1.065   0.760  0.00  0.00    +0.001 A 
ATOM      5  C   UNL     1       3.440  -2.393   0.587  0.00  0.00    +0.002 A 
ATOM      6  C   UNL     1       2.667  -3.255  -0.129  0.00  0.00    +0.028 A 
ATOM      7  C   UNL     1       1.466  -2.806  -0.707  0.00  0.00    +0.075 A 
ATOM      8  N   UNL     1       0.714  -3.652  -1.427  0.00  0.00    -0.244 NA
ATOM      9  C   UNL     1      -0.416  -3.268  -1.974  0.00  0.00    +0.106 A 
ATOM     10  C   UNL     1      -0.914  -1.897  -1.794  0.00  0.00    +0.087 A 
ATOM     11  C   UNL     1      -2.208  -1.550  -2.365  0.00  0.00    +0.169 C 
ATOM     12  O   UNL     1      -3.169  -1.427  -1.634  0.00  0.00    -0.292 OA
ATOM     13  C   UNL     1      -2.376  -1.339  -3.852  0.00  0.00    +0.084 C 
ATOM     14  C   UNL     1      -1.609  -2.429  -4.612  0.00  0.00    +0.047 C 
ATOM     15  C   UNL     1      -1.813  -3.777  -3.979  0.00  0.00    +0.012 A 
ATOM     16  C   UNL     1      -1.250  -4.164  -2.796  0.00  0.00    +0.112 A 
ATOM     17  N   UNL     1      -1.625  -5.454  -2.558  0.00  0.00    -0.183 N 
ATOM     18  C   UNL     1      -2.432  -5.862  -3.578  0.00  0.00    +0.084 A 
ATOM     19  C   UNL     1      -2.567  -4.852  -4.451  0.00  0.00    +0.156 A 
ATOM     20  C   UNL     1      -3.080  -7.217  -3.697  0.00  0.00    +0.069 C 
ENDROOT
BRANCH  19  21
ATOM     21  S   UNL     1      -3.513  -4.886  -5.937  0.00  0.00    +0.153 S 
ATOM     22  O   UNL     1      -3.214  -6.117  -6.581  0.00  0.00    -0.131 OA
ATOM     23  O   UNL     1      -4.838  -4.513  -5.583  0.00  0.00    -0.131 OA
BRANCH  21  24
ATOM     24  O   UNL     1      -2.976  -3.783  -6.837  0.00  0.00    -0.342 OA
BRANCH  24  25
ATOM     25  C   UNL     1      -1.892  -4.147  -7.571  0.00  0.00    +0.157 A 
ATOM     26  C   UNL     1      -0.614  -3.946  -7.070  0.00  0.00    +0.048 A 
ATOM     27  C   UNL     1       0.487  -4.318  -7.818  0.00  0.00    +0.004 A 
ATOM     28  C   UNL     1       0.315  -4.889  -9.066  0.00  0.00    +0.000 A 
ATOM     29  C   UNL     1      -0.958  -5.090  -9.568  0.00  0.00    +0.004 A 
ATOM     30  C   UNL     1      -2.061  -4.725  -8.821  0.00  0.00    +0.048 A 
ENDBRANCH  24  25
ENDBRANCH  21  24
ENDBRANCH  19  21
BRANCH  17  31
ATOM     31  O   UNL     1      -1.240  -6.237  -1.443  0.00  0.00    -0.414 OA
ATOM     32  C   UNL     1      -2.126  -6.134  -0.327  0.00  0.00    +0.311 C 
ENDBRANCH  17  31
BRANCH   1  33
ATOM     33  O   UNL     1      -0.541   0.291  -0.901  0.00  0.00    -0.491 OA
BRANCH  33  35
ATOM     34  C   UNL     1      -1.694   2.061   0.273  0.00  0.00    +0.048 C 
ATOM     35  C   UNL     1      -1.341   0.572   0.250  0.00  0.00    +0.226 C 
ENDBRANCH  33  35
ENDBRANCH   1  33
TORSDOF 6
