REMARK  Name = ZINC35445403
REMARK  9 active torsions:
REMARK  status: ('A' for Active; 'I' for Inactive)
REMARK    1  A    between atoms: C_1  and  N_2
REMARK    2  A    between atoms: N_2  and  C_3
REMARK    3  A    between atoms: N_2  and  S_4
REMARK    4  A    between atoms: S_4  and  C_7
REMARK    5  A    between atoms: N_13  and  C_23
REMARK    6  A    between atoms: C_23  and  C_24
REMARK    7  A    between atoms: N_26  and  C_27
REMARK    8  A    between atoms: C_27  and  C_28
REMARK    9  A    between atoms: C_28  and  N_29
REMARK                            x       y       z     vdW  Elec       q    Type
REMARK                         _______ _______ _______ _____ _____    ______ ____
ROOT
ATOM      1  C   UNL     1       1.957  -1.184  -2.187  0.00  0.00    +0.107 A 
ATOM      2  C   UNL     1       2.655  -0.282  -2.968  0.00  0.00    +0.030 A 
ATOM      3  C   UNL     1       3.986  -0.507  -3.272  0.00  0.00    +0.027 A 
ATOM      4  C   UNL     1       4.620  -1.640  -2.788  0.00  0.00    +0.052 A 
ATOM      5  C   UNL     1       3.920  -2.543  -1.992  0.00  0.00    +0.060 A 
ATOM      6  C   UNL     1       2.587  -2.312  -1.693  0.00  0.00    +0.054 A 
ATOM      7  N   UNL     1       4.579  -3.668  -1.481  0.00  0.00    -0.259 N 
ATOM      8  C   UNL     1       5.781  -4.026  -1.958  0.00  0.00    +0.241 C 
ATOM      9  O   UNL     1       6.322  -5.014  -1.508  0.00  0.00    -0.273 OA
ATOM     10  C   UNL     1       6.481  -3.239  -3.036  0.00  0.00    +0.160 C 
ATOM     11  N   UNL     1       5.970  -1.881  -3.107  0.00  0.00    -0.317 N 
ATOM     12  C   UNL     1       6.769  -0.736  -3.539  0.00  0.00    +0.106 C 
ATOM     13  C   UNL     1       8.222  -0.877  -3.095  0.00  0.00    +0.019 C 
ATOM     14  C   UNL     1       8.736  -2.242  -3.566  0.00  0.00    +0.004 C 
ATOM     15  C   UNL     1       7.981  -3.329  -2.811  0.00  0.00    +0.032 C 
ENDROOT
BRANCH   1  16
ATOM     16  S   UNL     1       0.261  -0.891  -1.812  0.00  0.00    +0.060 S 
ATOM     17  O   UNL     1      -0.313  -2.156  -1.512  0.00  0.00    -0.153 OA
ATOM     18  O   UNL     1      -0.243  -0.051  -2.841  0.00  0.00    -0.153 OA
BRANCH  16  20
ATOM     19  C   UNL     1       0.228   1.458  -0.471  0.00  0.00    +0.131 C 
ATOM     20  N   UNL     1       0.214  -0.006  -0.413  0.00  0.00    -0.183 NA
ATOM     21  C   UNL     1       0.157  -0.687   0.883  0.00  0.00    +0.131 C 
ENDBRANCH  16  20
ENDBRANCH   1  16
BRANCH   7  22
ATOM     22  C   UNL     1       3.952  -4.459  -0.419  0.00  0.00    +0.209 C 
BRANCH  22  23
ATOM     23  C   UNL     1       3.106  -5.544  -1.033  0.00  0.00    +0.231 C 
ATOM     24  O   UNL     1       3.034  -5.647  -2.240  0.00  0.00    -0.274 OA
ATOM     25  N   UNL     1       2.430  -6.401  -0.242  0.00  0.00    -0.316 N 
ATOM     26  H   UNL     1       2.488  -6.318   0.723  0.00  0.00    +0.149 HD
BRANCH  25  27
ATOM     27  C   UNL     1       1.607  -7.455  -0.840  0.00  0.00    +0.086 C 
BRANCH  27  28
ATOM     28  C   UNL     1       0.953  -8.281   0.270  0.00  0.00    -0.060 C 
BRANCH  28  29
ATOM     29  N   UNL     1       0.029  -9.256  -0.326  0.00  0.00    +0.381 N 
ATOM     30  C   UNL     1      -0.767  -9.874   0.753  0.00  0.00    -0.079 C 
ATOM     31  C   UNL     1      -2.060 -10.375   0.160  0.00  0.00    -0.019 C 
ATOM     32  C   UNL     1      -1.974 -11.870  -0.199  0.00  0.00    -0.002 C 
ATOM     33  C   UNL     1      -0.613 -12.230  -0.828  0.00  0.00    -0.002 C 
ATOM     34  C   UNL     1      -0.138 -11.186  -1.806  0.00  0.00    -0.019 C 
ATOM     35  C   UNL     1       0.768 -10.179  -1.067  0.00  0.00    -0.079 C 
ATOM     36  H   UNL     1      -0.598  -8.768  -0.949  0.00  0.00    -0.082 HD
ENDBRANCH  28  29
ENDBRANCH  27  28
ENDBRANCH  25  27
ENDBRANCH  22  23
ENDBRANCH   7  22
TORSDOF 7
