REMARK  Name = ZINC36128805
REMARK  7 active torsions:
REMARK  status: ('A' for Active; 'I' for Inactive)
REMARK    1  A    between atoms: C_1  and  C_2
REMARK    2  A    between atoms: C_2  and  C_3
REMARK    3  A    between atoms: C_7  and  C_22
REMARK    4  A    between atoms: N_10  and  S_11
REMARK    5  A    between atoms: S_11  and  C_14
REMARK    6  A    between atoms: C_15  and  C_21
REMARK    7  A    between atoms: C_19  and  N_20
REMARK                            x       y       z     vdW  Elec       q    Type
REMARK                         _______ _______ _______ _____ _____    ______ ____
ROOT
ATOM      1  S   UNL     1      -0.795   0.459  -1.285  0.00  0.00    +0.063 S 
ATOM      2  O   UNL     1      -2.050   0.266  -1.923  0.00  0.00    -0.153 OA
ATOM      3  O   UNL     1      -0.373   1.727  -0.803  0.00  0.00    -0.153 OA
ENDROOT
BRANCH   1   9
ATOM      4  C   UNL     1       0.402  -0.614   0.913  0.00  0.00    +0.105 C 
ATOM      5  C   UNL     1       0.848  -2.073   1.067  0.00  0.00    +0.180 C 
ATOM      6  O   UNL     1      -0.277  -2.872   1.442  0.00  0.00    -0.374 OA
ATOM      7  C   UNL     1      -1.324  -2.901   0.468  0.00  0.00    +0.131 C 
ATOM      8  C   UNL     1      -1.881  -1.485   0.283  0.00  0.00    +0.141 C 
ATOM      9  N   UNL     1      -0.757  -0.576   0.007  0.00  0.00    -0.169 NA
ATOM     10  C   UNL     1      -2.440  -3.832   0.947  0.00  0.00    +0.039 C 
BRANCH   4  12
ATOM     11  C   UNL     1       2.794   0.053   1.192  0.00  0.00    +0.005 C 
ATOM     12  C   UNL     1       1.545   0.214   0.322  0.00  0.00    +0.019 C 
ENDBRANCH   4  12
ENDBRANCH   1   9
BRANCH   1  13
ATOM     13  C   UNL     1       0.437  -0.082  -2.423  0.00  0.00    +0.129 A 
ATOM     14  C   UNL     1       1.516   0.730  -2.711  0.00  0.00    -0.022 A 
ATOM     15  C   UNL     1       2.483   0.306  -3.604  0.00  0.00    +0.005 A 
ATOM     16  C   UNL     1       2.374  -0.932  -4.211  0.00  0.00    +0.002 A 
ATOM     17  C   UNL     1       1.298  -1.749  -3.926  0.00  0.00    +0.025 A 
ATOM     18  C   UNL     1       0.327  -1.329  -3.026  0.00  0.00    +0.051 A 
ATOM     19  C   UNL     1       1.640   2.080  -2.052  0.00  0.00    +0.046 C 
BRANCH  18  20
ATOM     20  N   UNL     1      -0.760  -2.155  -2.732  0.00  0.00    -0.356 N 
ATOM     21  H   UNL     1      -1.524  -1.799  -2.251  0.00  0.00    +0.142 HD
ATOM     22  H   UNL     1      -0.752  -3.084  -3.009  0.00  0.00    +0.142 HD
ENDBRANCH  18  20
ENDBRANCH   1  13
TORSDOF 4
