REMARK  Name = ZINC63089220
REMARK  11 active torsions:
REMARK  status: ('A' for Active; 'I' for Inactive)
REMARK    1  A    between atoms: C_1  and  C_2
REMARK    2  A    between atoms: C_4  and  N_10
REMARK    3  A    between atoms: C_8  and  C_9
REMARK    4  A    between atoms: N_10  and  S_11
REMARK    5  A    between atoms: S_11  and  C_14
REMARK    6  A    between atoms: C_17  and  N_20
REMARK    7  A    between atoms: C_21  and  C_23
REMARK    8  A    between atoms: C_23  and  S_24
REMARK    9  A    between atoms: S_24  and  C_25
REMARK   10  A    between atoms: C_31  and  O_35
REMARK   11  A    between atoms: O_35  and  C_36
REMARK                            x       y       z     vdW  Elec       q    Type
REMARK                         _______ _______ _______ _____ _____    ______ ____
ROOT
ATOM      1  N   UNL     1      -4.098   1.690  -5.625  0.00  0.00    -0.285 N 
ATOM      2  C   UNL     1      -4.324   2.979  -5.305  0.00  0.00    +0.227 C 
ATOM      3  O   UNL     1      -4.209   3.348  -4.155  0.00  0.00    -0.275 OA
ATOM      4  H   UNL     1      -4.114   1.410  -6.553  0.00  0.00    +0.155 HD
ENDROOT
BRANCH   1   8
ATOM      5  C   UNL     1      -3.325  -1.096  -2.625  0.00  0.00    +0.105 A 
ATOM      6  C   UNL     1      -4.184  -0.040  -2.381  0.00  0.00    +0.030 A 
ATOM      7  C   UNL     1      -4.442   0.885  -3.373  0.00  0.00    +0.025 A 
ATOM      8  C   UNL     1      -3.838   0.754  -4.617  0.00  0.00    +0.034 A 
ATOM      9  C   UNL     1      -2.976  -0.307  -4.859  0.00  0.00    +0.025 A 
ATOM     10  C   UNL     1      -2.718  -1.227  -3.861  0.00  0.00    +0.030 A 
BRANCH   5  11
ATOM     11  S   UNL     1      -2.999  -2.274  -1.356  0.00  0.00    +0.061 S 
ATOM     12  O   UNL     1      -2.583  -3.467  -2.007  0.00  0.00    -0.153 OA
ATOM     13  O   UNL     1      -4.110  -2.237  -0.472  0.00  0.00    -0.153 OA
BRANCH  11  14
ATOM     14  N   UNL     1      -1.693  -1.722  -0.500  0.00  0.00    -0.149 NA
ATOM     15  H   UNL     1      -0.862  -2.222  -0.507  0.00  0.00    +0.152 HD
BRANCH  14  18
ATOM     16  C   UNL     1      -0.604   1.753   0.393  0.00  0.00    +0.019 C 
ATOM     17  C   UNL     1      -0.424   0.235   0.352  0.00  0.00    +0.093 C 
ATOM     18  C   UNL     1      -1.794  -0.480   0.270  0.00  0.00    +0.301 C 
ATOM     19  O   UNL     1      -2.062  -0.752   1.661  0.00  0.00    -0.373 OA
ATOM     20  N   UNL     1      -0.818  -0.809   2.330  0.00  0.00    -0.092 NA
ATOM     21  C   UNL     1       0.139  -0.277   1.665  0.00  0.00    +0.062 C 
ATOM     22  C   UNL     1       1.576  -0.175   2.106  0.00  0.00    +0.064 C 
ENDBRANCH  14  18
ENDBRANCH  11  14
ENDBRANCH   5  11
ENDBRANCH   1   8
BRANCH   2  23
ATOM     23  C   UNL     1      -4.721   3.963  -6.376  0.00  0.00    +0.169 C 
BRANCH  23  24
ATOM     24  S   UNL     1      -4.952   5.602  -5.635  0.00  0.00    -0.106 S 
BRANCH  24  25
ATOM     25  C   UNL     1      -5.420   6.655  -7.037  0.00  0.00    +0.236 C 
ATOM     26  N   UNL     1      -6.625   6.124  -7.685  0.00  0.00    -0.355 N 
ATOM     27  C   UNL     1      -6.314   5.836  -8.916  0.00  0.00    +0.061 A 
ATOM     28  C   UNL     1      -7.097   5.281 -10.030  0.00  0.00    +0.031 A 
ATOM     29  C   UNL     1      -6.510   5.080 -11.225  0.00  0.00    +0.048 A 
ATOM     30  C   UNL     1      -5.107   5.398 -11.457  0.00  0.00    +0.122 A 
ATOM     31  C   UNL     1      -4.320   5.913 -10.481  0.00  0.00    +0.073 A 
ATOM     32  C   UNL     1      -4.881   6.162  -9.152  0.00  0.00    +0.064 A 
ATOM     33  N   UNL     1      -4.361   6.641  -8.053  0.00  0.00    -0.355 N 
ATOM     34  H   UNL     1      -7.495   6.008  -7.272  0.00  0.00    +0.162 HD
ATOM     35  H   UNL     1      -3.444   6.933  -7.931  0.00  0.00    +0.162 HD
BRANCH  30  36
ATOM     36  O   UNL     1      -4.574   5.172 -12.684  0.00  0.00    -0.495 OA
ATOM     37  C   UNL     1      -5.443   4.628 -13.679  0.00  0.00    +0.277 C 
ENDBRANCH  30  36
ENDBRANCH  24  25
ENDBRANCH  23  24
ENDBRANCH   2  23
TORSDOF 8
