REMARK  Name = ZINC63527315
REMARK  5 active torsions:
REMARK  status: ('A' for Active; 'I' for Inactive)
REMARK    1  A    between atoms: C_1  and  C_2
REMARK    2  A    between atoms: C_5  and  C_8
REMARK    3  A    between atoms: C_22  and  C_24
REMARK    4  A    between atoms: N_33  and  C_40
REMARK    5  A    between atoms: N_36  and  C_39
REMARK                            x       y       z     vdW  Elec       q    Type
REMARK                         _______ _______ _______ _____ _____    ______ ____
ROOT
ATOM      1  C   UNL     1       0.068  -4.169   0.162  0.00  0.00    +0.052 C 
ATOM      2  C   UNL     1       0.027  -4.894  -0.973  0.00  0.00    +0.059 C 
ATOM      3  C   UNL     1       0.475  -6.311  -0.603  0.00  0.00    +0.139 C 
ATOM      4  C   UNL     1       0.243  -6.383   0.884  0.00  0.00    +0.148 C 
ATOM      5  N   UNL     1       0.112  -4.949   1.270  0.00  0.00    -0.287 N 
ATOM      6  C   UNL     1      -0.007  -4.660   2.629  0.00  0.00    +0.077 A 
ATOM      7  C   UNL     1       0.662  -3.719   3.355  0.00  0.00    +0.027 A 
ATOM      8  C   UNL     1       0.402  -3.594   4.714  0.00  0.00    +0.002 A 
ATOM      9  C   UNL     1      -0.535  -4.414   5.314  0.00  0.00    +0.004 A 
ATOM     10  C   UNL     1      -1.232  -5.356   4.575  0.00  0.00    +0.047 A 
ATOM     11  C   UNL     1      -0.985  -5.486   3.225  0.00  0.00    +0.142 A 
ATOM     12  O   UNL     1      -1.650  -6.351   2.425  0.00  0.00    -0.481 OA
ATOM     13  C   UNL     1      -0.997  -7.097   1.392  0.00  0.00    +0.239 C 
ATOM     14  N   UNL     1      -0.158  -7.253  -1.491  0.00  0.00    -0.279 N 
ATOM     15  C   UNL     1      -0.827  -6.832  -2.585  0.00  0.00    +0.311 C 
ATOM     16  O   UNL     1      -1.492  -7.647  -3.193  0.00  0.00    -0.252 OA
ATOM     17  N   UNL     1      -0.777  -5.579  -3.056  0.00  0.00    -0.225 N 
ATOM     18  C   UNL     1      -0.267  -4.570  -2.307  0.00  0.00    +0.253 C 
ATOM     19  O   UNL     1      -0.072  -3.460  -2.775  0.00  0.00    -0.270 OA
ATOM     20  C   UNL     1      -1.281  -5.292  -4.402  0.00  0.00    +0.143 C 
ATOM     21  C   UNL     1      -0.037  -8.702  -1.276  0.00  0.00    +0.134 C 
ENDROOT
BRANCH  13  22
ATOM     22  C   UNL     1      -0.600  -8.452   1.982  0.00  0.00    +0.218 C 
ATOM     23  N   UNL     1      -1.794  -9.162   2.459  0.00  0.00    -0.360 N 
ATOM     24  C   UNL     1      -1.647  -9.357   3.738  0.00  0.00    +0.060 A 
ATOM     25  C   UNL     1      -2.490 -10.002   4.753  0.00  0.00    +0.027 A 
ATOM     26  C   UNL     1      -2.068 -10.056   6.032  0.00  0.00    +0.002 A 
ATOM     27  C   UNL     1      -0.838  -9.515   6.448  0.00  0.00    +0.002 A 
ATOM     28  C   UNL     1       0.010  -8.902   5.598  0.00  0.00    +0.027 A 
ATOM     29  C   UNL     1      -0.345  -8.784   4.177  0.00  0.00    +0.060 A 
ATOM     30  N   UNL     1       0.263  -8.258   3.154  0.00  0.00    -0.360 N 
ATOM     31  H   UNL     1      -2.552  -9.436   1.920  0.00  0.00    +0.162 HD
ATOM     32  H   UNL     1       1.127  -7.819   3.163  0.00  0.00    +0.162 HD
ENDBRANCH  13  22
BRANCH   1  37
ATOM     33  C   UNL     1      -0.253   1.574   0.330  0.00  0.00    +0.044 C 
ATOM     34  C   UNL     1      -0.169   0.070   0.286  0.00  0.00    -0.050 A 
ATOM     35  C   UNL     1      -0.973  -0.689   1.117  0.00  0.00    +0.004 A 
ATOM     36  C   UNL     1      -0.902  -2.066   1.082  0.00  0.00    +0.010 A 
ATOM     37  C   UNL     1      -0.015  -2.694   0.205  0.00  0.00    -0.003 A 
ATOM     38  C   UNL     1       0.794  -1.922  -0.631  0.00  0.00    +0.010 A 
ATOM     39  C   UNL     1       0.708  -0.545  -0.590  0.00  0.00    +0.004 A 
ENDBRANCH   1  37
TORSDOF 2
