REMARK  Name = ZINC63731249
REMARK  10 active torsions:
REMARK  status: ('A' for Active; 'I' for Inactive)
REMARK    1  A    between atoms: C_1  and  C_2
REMARK    2  A    between atoms: C_2  and  O_3
REMARK    3  A    between atoms: O_3  and  C_4
REMARK    4  A    between atoms: C_9  and  N_10
REMARK    5  A    between atoms: C_11  and  S_22
REMARK    6  A    between atoms: C_16  and  C_19
REMARK    7  A    between atoms: S_22  and  C_23
REMARK    8  A    between atoms: C_23  and  C_24
REMARK    9  A    between atoms: N_26  and  C_27
REMARK   10  A    between atoms: C_30  and  C_33
REMARK                            x       y       z     vdW  Elec       q    Type
REMARK                         _______ _______ _______ _____ _____    ______ ____
ROOT
ATOM      1  N   UNL     1      -3.923  -1.571   0.028  0.00  0.00    -0.250 N 
ATOM      2  C   UNL     1      -4.534  -1.114  -1.224  0.00  0.00    +0.260 C 
ATOM      3  N   UNL     1      -5.989  -1.297  -1.240  0.00  0.00    -0.230 NA
ATOM      4  C   UNL     1      -6.662  -1.274  -0.136  0.00  0.00    +0.185 C 
ATOM      5  C   UNL     1      -5.969  -1.180   1.194  0.00  0.00    +0.083 C 
ATOM      6  C   UNL     1      -6.947  -1.171   2.104  0.00  0.00    +0.075 C 
ATOM      7  N   UNL     1      -8.126  -1.276   1.454  0.00  0.00    -0.152 NA
ATOM      8  N   UNL     1      -7.980  -1.349   0.174  0.00  0.00    -0.129 NA
ATOM      9  C   UNL     1      -6.767  -1.063   3.597  0.00  0.00    +0.068 C 
ATOM     10  C   UNL     1      -4.495  -1.147   1.240  0.00  0.00    +0.133 C 
ATOM     11  N   UNL     1      -3.807  -0.767   2.282  0.00  0.00    -0.285 NA
ATOM     12  H   UNL     1      -2.838  -0.766   2.249  0.00  0.00    +0.188 HD
ENDROOT
BRANCH   1  18
ATOM     13  C   UNL     1      -1.520  -1.865   0.015  0.00  0.00    +0.142 A 
ATOM     14  C   UNL     1      -0.415  -2.700   0.010  0.00  0.00    +0.047 A 
ATOM     15  C   UNL     1      -0.586  -4.072   0.001  0.00  0.00    +0.004 A 
ATOM     16  C   UNL     1      -1.858  -4.615  -0.004  0.00  0.00    +0.002 A 
ATOM     17  C   UNL     1      -2.965  -3.788   0.001  0.00  0.00    +0.027 A 
ATOM     18  C   UNL     1      -2.802  -2.410   0.017  0.00  0.00    +0.080 A 
BRANCH  13  19
ATOM     19  O   UNL     1      -1.354  -0.515   0.024  0.00  0.00    -0.490 OA
BRANCH  19  21
ATOM     20  C   UNL     1      -0.024   1.503   0.034  0.00  0.00    +0.048 C 
ATOM     21  C   UNL     1      -0.011  -0.027   0.022  0.00  0.00    +0.226 C 
ENDBRANCH  19  21
ENDBRANCH  13  19
ENDBRANCH   1  18
BRANCH   2  22
ATOM     22  S   UNL     1      -4.164   0.647  -1.449  0.00  0.00    -0.106 S 
BRANCH  22  23
ATOM     23  C   UNL     1      -4.899   1.439   0.008  0.00  0.00    +0.168 C 
BRANCH  23  24
ATOM     24  C   UNL     1      -4.660   2.926  -0.054  0.00  0.00    +0.227 C 
ATOM     25  O   UNL     1      -4.054   3.404  -0.990  0.00  0.00    -0.275 OA
ATOM     26  N   UNL     1      -5.121   3.724   0.929  0.00  0.00    -0.285 N 
ATOM     27  H   UNL     1      -5.662   3.352   1.643  0.00  0.00    +0.155 HD
BRANCH  26  28
ATOM     28  C   UNL     1      -4.817   5.090   0.922  0.00  0.00    +0.033 A 
ATOM     29  C   UNL     1      -4.600   5.762   2.118  0.00  0.00    +0.023 A 
ATOM     30  C   UNL     1      -4.300   7.110   2.107  0.00  0.00    +0.005 A 
ATOM     31  C   UNL     1      -4.216   7.791   0.906  0.00  0.00    -0.050 A 
ATOM     32  C   UNL     1      -4.431   7.125  -0.286  0.00  0.00    +0.005 A 
ATOM     33  C   UNL     1      -4.725   5.776  -0.283  0.00  0.00    +0.023 A 
ATOM     34  C   UNL     1      -3.888   9.262   0.898  0.00  0.00    +0.044 C 
ENDBRANCH  26  28
ENDBRANCH  23  24
ENDBRANCH  22  23
ENDBRANCH   2  22
TORSDOF 7
