REMARK  Name = ZINC62271993
REMARK  7 active torsions:
REMARK  status: ('A' for Active; 'I' for Inactive)
REMARK    1  A    between atoms: C_1  and  C_2
REMARK    2  A    between atoms: C_7  and  N_8
REMARK    3  A    between atoms: C_9  and  C_11
REMARK    4  A    between atoms: C_11  and  C_13
REMARK    5  A    between atoms: C_11  and  N_14
REMARK    6  A    between atoms: C_15  and  C_22
REMARK    7  A    between atoms: C_16  and  C_19
REMARK                            x       y       z     vdW  Elec       q    Type
REMARK                         _______ _______ _______ _____ _____    ______ ____
ROOT
ATOM      1  C   UNL     1      -0.168   0.052   4.882  0.00  0.00    +0.192 C 
ATOM      2  C   UNL     1      -1.431   0.915   4.870  0.00  0.00    +0.042 C 
ENDROOT
BRANCH   1   3
ATOM      3  N   UNL     1      -0.241  -0.905   5.988  0.00  0.00    -0.236 N 
ATOM      4  C   UNL     1       0.617  -1.005   7.023  0.00  0.00    +0.069 A 
ATOM      5  C   UNL     1       0.169  -2.027   7.812  0.00  0.00    +0.169 A 
ATOM      6  N   UNL     1      -0.945  -2.534   7.258  0.00  0.00    -0.125 NA
ATOM      7  N   UNL     1      -1.221  -1.890   6.178  0.00  0.00    -0.064 NA
ATOM      8  C   UNL     1       1.837  -0.153   7.264  0.00  0.00    +0.068 C 
BRANCH   5   9
ATOM      9  C   UNL     1       0.801  -2.494   9.060  0.00  0.00    +0.263 C 
ATOM     10  O   UNL     1       1.813  -1.956   9.467  0.00  0.00    -0.269 OA
ATOM     11  N   UNL     1       0.258  -3.516   9.749  0.00  0.00    -0.324 N 
ATOM     12  H   UNL     1      -0.549  -3.945   9.424  0.00  0.00    +0.145 HD
ATOM     13  H   UNL     1       0.673  -3.823  10.570  0.00  0.00    +0.145 HD
ENDBRANCH   5   9
ENDBRANCH   1   3
BRANCH   1  15
ATOM     14  N   UNL     1       0.025  -0.015   2.417  0.00  0.00    -0.284 N 
ATOM     15  C   UNL     1      -0.056  -0.694   3.578  0.00  0.00    +0.242 C 
ATOM     16  O   UNL     1      -0.040  -1.907   3.573  0.00  0.00    -0.273 OA
ATOM     17  H   UNL     1       0.078   0.954   2.425  0.00  0.00    +0.155 HD
BRANCH  14  24
ATOM     18  C   UNL     1      -1.264   1.184   0.181  0.00  0.00    +0.045 C 
ATOM     19  C   UNL     1      -0.584  -0.158   0.084  0.00  0.00    -0.029 A 
ATOM     20  C   UNL     1      -0.569  -0.840  -1.117  0.00  0.00    +0.005 A 
ATOM     21  C   UNL     1       0.055  -2.071  -1.206  0.00  0.00    +0.000 A 
ATOM     22  C   UNL     1       0.666  -2.622  -0.095  0.00  0.00    +0.002 A 
ATOM     23  C   UNL     1       0.655  -1.945   1.108  0.00  0.00    +0.023 A 
ATOM     24  C   UNL     1       0.034  -0.706   1.201  0.00  0.00    +0.036 A 
ENDBRANCH  14  24
ENDBRANCH   1  15
TORSDOF 4
