REMARK  Name = ZINC39480664
REMARK  11 active torsions:
REMARK  status: ('A' for Active; 'I' for Inactive)
REMARK    1  A    between atoms: C_1  and  C_2
REMARK    2  A    between atoms: C_2  and  C_3
REMARK    3  A    between atoms: C_2  and  S_4
REMARK    4  A    between atoms: S_4  and  C_7
REMARK    5  A    between atoms: C_11  and  S_13
REMARK    6  A    between atoms: S_13  and  C_14
REMARK    7  A    between atoms: N_15  and  C_32
REMARK    8  A    between atoms: C_24  and  S_26
REMARK    9  A    between atoms: S_26  and  C_29
REMARK   10  A    between atoms: C_29  and  C_30
REMARK   11  A    between atoms: C_29  and  C_31
REMARK                            x       y       z     vdW  Elec       q    Type
REMARK                         _______ _______ _______ _____ _____    ______ ____
ROOT
ATOM      1  C   UNL     1      -2.659  -2.800   1.177  0.00  0.00    +0.090 A 
ATOM      2  C   UNL     1      -2.395  -3.218  -0.126  0.00  0.00    +0.033 A 
ATOM      3  C   UNL     1      -1.977  -4.487  -0.310  0.00  0.00    -0.016 A 
ATOM      4  C   UNL     1      -1.974  -5.420   0.716  0.00  0.00    +0.052 A 
ATOM      5  C   UNL     1      -2.056  -4.986   2.025  0.00  0.00    +0.031 A 
ATOM      6  C   UNL     1      -2.417  -3.655   2.240  0.00  0.00    +0.043 A 
ATOM      7  N   UNL     1      -2.368  -6.688   0.307  0.00  0.00    -0.285 N 
ATOM      8  C   UNL     1      -2.055  -7.924   0.792  0.00  0.00    +0.156 A 
ATOM      9  C   UNL     1      -1.304  -8.490  -0.349  0.00  0.00    +0.142 A 
ATOM     10  C   UNL     1      -0.805  -9.741  -0.216  0.00  0.00    +0.160 A 
ATOM     11  N   UNL     1      -1.019 -10.400   0.925  0.00  0.00    -0.222 NA
ATOM     12  C   UNL     1      -1.704  -9.860   1.916  0.00  0.00    +0.225 A 
ATOM     13  N   UNL     1      -2.214  -8.635   1.843  0.00  0.00    -0.218 NA
ATOM     14 CL   UNL     1       0.097 -10.475  -1.505  0.00  0.00    -0.060 Cl
ATOM     15  N   UNL     1      -1.319  -7.542  -1.321  0.00  0.00    -0.227 NA
ATOM     16  C   UNL     1      -0.832  -6.399  -1.003  0.00  0.00    +0.159 C 
ATOM     17  C   UNL     1      -1.238  -5.037  -1.558  0.00  0.00    +0.112 C 
ATOM     18  C   UNL     1      -3.276  -6.701  -0.843  0.00  0.00    +0.137 C 
ENDROOT
BRANCH   1  19
ATOM     19  S   UNL     1      -3.293  -1.183   1.472  0.00  0.00    -0.001 S 
ATOM     20  O   UNL     1      -3.994  -1.288   2.704  0.00  0.00    -0.169 OA
ATOM     21  O   UNL     1      -3.978  -0.839   0.276  0.00  0.00    -0.169 OA
BRANCH  19  23
ATOM     22  C   UNL     1      -2.258   1.279   2.062  0.00  0.00    +0.032 C 
ATOM     23  C   UNL     1      -1.825  -0.137   1.675  0.00  0.00    +0.130 C 
ATOM     24  C   UNL     1      -0.934  -0.716   2.775  0.00  0.00    +0.032 C 
ENDBRANCH  19  23
ENDBRANCH   1  19
BRANCH  16  25
ATOM     25  S   UNL     1       0.447  -6.402   0.209  0.00  0.00    +0.013 S 
ATOM     26  O   UNL     1       0.396  -5.107   0.792  0.00  0.00    -0.168 OA
ATOM     27  O   UNL     1       0.200  -7.560   0.994  0.00  0.00    -0.168 OA
BRANCH  25  28
ATOM     28  C   UNL     1       1.983  -6.602  -0.735  0.00  0.00    +0.131 C 
ATOM     29  C   UNL     1       3.161  -6.743   0.231  0.00  0.00    +0.032 C 
ATOM     30  C   UNL     1       1.886  -7.855  -1.608  0.00  0.00    +0.032 C 
ENDBRANCH  25  28
ENDBRANCH  16  25
BRANCH   5  31
ATOM     31  S   UNL     1      -1.711  -6.069   3.371  0.00  0.00    -0.127 S 
ATOM     32  C   UNL     1      -1.956  -5.035   4.841  0.00  0.00    +0.090 C 
ENDBRANCH   5  31
TORSDOF 5
