REMARK  Name = ZINC44863640
REMARK  6 active torsions:
REMARK  status: ('A' for Active; 'I' for Inactive)
REMARK    1  A    between atoms: C_1  and  C_2
REMARK    2  A    between atoms: C_2  and  C_3
REMARK    3  A    between atoms: C_2  and  C_4
REMARK    4  A    between atoms: C_4  and  C_6
REMARK    5  A    between atoms: C_4  and  C_10
REMARK    6  A    between atoms: N_7  and  O_8
REMARK                            x       y       z     vdW  Elec       q    Type
REMARK                         _______ _______ _______ _____ _____    ______ ____
ROOT
ATOM      1  C   UNL     1      -1.142  -2.026  -0.017  0.00  0.00    +0.226 C 
ATOM      2  O   UNL     1      -1.539  -2.676  -0.961  0.00  0.00    -0.275 OA
ATOM      3  N   UNL     1      -0.530  -2.641   1.014  0.00  0.00    -0.298 N 
ATOM      4  C   UNL     1       0.041  -1.858   2.119  0.00  0.00    +0.126 C 
ATOM      5  C   UNL     1      -0.562  -2.358   3.438  0.00  0.00    +0.126 C 
ATOM      6  N   UNL     1      -0.454  -3.823   3.477  0.00  0.00    -0.307 N 
ATOM      7  C   UNL     1      -1.024  -4.606   2.372  0.00  0.00    +0.126 C 
ATOM      8  C   UNL     1      -0.426  -4.106   1.057  0.00  0.00    +0.126 C 
ATOM      9  C   UNL     1       0.176  -4.455   4.538  0.00  0.00    +0.161 A 
ATOM     10  N   UNL     1       0.732  -3.913   5.601  0.00  0.00    -0.233 NA
ATOM     11  C   UNL     1       1.297  -4.660   6.532  0.00  0.00    +0.120 A 
ATOM     12  C   UNL     1       1.277  -6.001   6.341  0.00  0.00    +0.068 A 
ATOM     13  S   UNL     1       0.411  -6.104   4.783  0.00  0.00    -0.061 S 
ENDROOT
BRANCH   1  14
ATOM     14  C   UNL     1      -1.334  -0.531   0.003  0.00  0.00    +0.144 C 
BRANCH  14  15
ATOM     15  C   UNL     1      -2.657  -0.203   0.646  0.00  0.00    +0.144 C 
ATOM     16  N   UNL     1      -3.704  -0.018  -0.088  0.00  0.00    -0.076 NA
ATOM     17  N   UNL     1      -2.749  -0.101   2.017  0.00  0.00    -0.343 N 
ATOM     18  H   UNL     1      -1.963  -0.240   2.568  0.00  0.00    +0.144 HD
ATOM     19  H   UNL     1      -3.601   0.111   2.430  0.00  0.00    +0.144 HD
BRANCH  16  20
ATOM     20  O   UNL     1      -4.946   0.291   0.517  0.00  0.00    -0.408 OA
ATOM     21  H   UNL     1      -5.670   0.411  -0.113  0.00  0.00    +0.328 HD
ENDBRANCH  16  20
ENDBRANCH  14  15
BRANCH  14  23
ATOM     22  C   UNL     1      -1.496   1.524  -1.409  0.00  0.00    +0.008 C 
ATOM     23  C   UNL     1      -1.317   0.004  -1.430  0.00  0.00    +0.002 C 
ATOM     24  C   UNL     1       0.020  -0.343  -2.088  0.00  0.00    +0.008 C 
ENDBRANCH  14  23
ENDBRANCH   1  14
TORSDOF 4
