REMARK  Name = ZINC63775681
REMARK  5 active torsions:
REMARK  status: ('A' for Active; 'I' for Inactive)
REMARK    1  A    between atoms: C_7  and  C_10
REMARK    2  A    between atoms: N_13  and  C_24
REMARK    3  A    between atoms: N_16  and  C_17
REMARK    4  A    between atoms: C_17  and  C_18
REMARK    5  A    between atoms: C_24  and  N_25
REMARK                            x       y       z     vdW  Elec       q    Type
REMARK                         _______ _______ _______ _____ _____    ______ ____
ROOT
ATOM      1  C   UNL     1       0.691  -3.186  -0.024  0.00  0.00    +0.189 C 
ATOM      2  N   UNL     1       0.949  -4.055  -1.189  0.00  0.00    -0.216 NA
ATOM      3  N   UNL     1       1.312  -5.270  -0.683  0.00  0.00    -0.263 N 
ATOM      4  C   UNL     1       1.309  -5.254   0.656  0.00  0.00    +0.149 C 
ATOM      5  S   UNL     1       1.712  -6.600   1.634  0.00  0.00    -0.017 S 
ATOM      6  N   UNL     1       0.948  -4.049   1.140  0.00  0.00    -0.288 N 
ATOM      7  H   UNL     1       1.679  -3.672  -1.771  0.00  0.00    +0.147 HD
ENDROOT
BRANCH   1  14
ATOM      8  C   UNL     1      -0.016   1.348   0.009  0.00  0.00    +0.001 A 
ATOM      9  C   UNL     1       1.166   2.101   0.002  0.00  0.00    +0.002 A 
ATOM     10  C   UNL     1       2.391   1.535  -0.013  0.00  0.00    +0.026 A 
ATOM     11  C   UNL     1       2.529   0.120  -0.022  0.00  0.00    +0.043 A 
ATOM     12  N   UNL     1       3.587  -0.654  -0.037  0.00  0.00    -0.380 N 
ATOM     13  C   UNL     1       3.143  -2.053  -0.041  0.00  0.00    +0.148 C 
ATOM     14  C   UNL     1       1.631  -2.008  -0.025  0.00  0.00    -0.006 C 
ATOM     15  C   UNL     1       1.295  -0.698  -0.014  0.00  0.00    +0.002 A 
ATOM     16  C   UNL     1       0.002  -0.004   0.002  0.00  0.00    +0.010 A 
ATOM     17  H   UNL     1       4.509  -0.353  -0.045  0.00  0.00    +0.160 HD
ENDBRANCH   1  14
BRANCH   6  18
ATOM     18  C   UNL     1       0.835  -3.669   2.550  0.00  0.00    +0.140 C 
BRANCH  18  19
ATOM     19  C   UNL     1      -0.587  -3.949   3.041  0.00  0.00    +0.136 C 
ATOM     20  C   UNL     1      -0.739  -3.522   4.523  0.00  0.00    +0.035 C 
ATOM     21  C   UNL     1      -2.269  -3.272   4.603  0.00  0.00    +0.031 C 
ATOM     22  C   UNL     1      -2.585  -2.723   3.195  0.00  0.00    +0.160 C 
ATOM     23  O   UNL     1      -1.532  -3.144   2.318  0.00  0.00    -0.375 OA
ENDBRANCH  18  19
ENDBRANCH   6  18
BRANCH   3  24
ATOM     24  C   UNL     1       1.659  -6.437  -1.498  0.00  0.00    +0.051 C 
BRANCH  24  25
ATOM     25  N   UNL     1       3.000  -6.254  -2.070  0.00  0.00    +0.391 N 
ATOM     26  C   UNL     1       4.026  -6.309  -0.998  0.00  0.00    -0.077 C 
ATOM     27  C   UNL     1       5.322  -6.669  -1.767  0.00  0.00    -0.020 C 
ATOM     28  C   UNL     1       4.822  -7.658  -2.845  0.00  0.00    -0.020 C 
ATOM     29  C   UNL     1       3.318  -7.366  -2.991  0.00  0.00    -0.077 C 
ATOM     30  H   UNL     1       3.053  -5.372  -2.558  0.00  0.00    -0.079 HD
ENDBRANCH  24  25
ENDBRANCH   3  24
TORSDOF 5
