REMARK  Name = ZINC38610189
REMARK  7 active torsions:
REMARK  status: ('A' for Active; 'I' for Inactive)
REMARK    1  A    between atoms: C_1  and  C_2
REMARK    2  A    between atoms: C_2  and  C_4
REMARK    3  A    between atoms: C_2  and  N_22
REMARK    4  A    between atoms: N_6  and  C_7
REMARK    5  A    between atoms: C_15  and  C_17
REMARK    6  A    between atoms: C_17  and  O_19
REMARK    7  A    between atoms: O_19  and  C_20
REMARK                            x       y       z     vdW  Elec       q    Type
REMARK                         _______ _______ _______ _____ _____    ______ ____
ROOT
ATOM      1  C   UNL     1       3.107  -0.995  -2.633  0.00  0.00    +0.053 C 
ATOM      2  C   UNL     1       4.305  -1.605  -2.963  0.00  0.00    +0.019 A 
ATOM      3  C   UNL     1       5.655  -1.246  -2.733  0.00  0.00    +0.031 A 
ATOM      4  C   UNL     1       6.650  -2.052  -3.179  0.00  0.00    +0.042 A 
ATOM      5  C   UNL     1       6.379  -3.239  -3.868  0.00  0.00    +0.022 A 
ATOM      6  C   UNL     1       5.112  -3.644  -4.124  0.00  0.00    +0.027 A 
ATOM      7  C   UNL     1       4.016  -2.855  -3.688  0.00  0.00    +0.045 A 
ATOM      8  N   UNL     1       2.715  -3.026  -3.809  0.00  0.00    -0.367 N 
ATOM      9  C   UNL     1       2.022  -1.903  -3.169  0.00  0.00    +0.234 C 
ATOM     10 CL   UNL     1       8.301  -1.599  -2.890  0.00  0.00    -0.084 Cl
ATOM     11  H   UNL     1       2.285  -3.776  -4.249  0.00  0.00    +0.161 HD
ENDROOT
BRANCH   1  14
ATOM     12  C   UNL     1       1.710   0.552  -1.554  0.00  0.00    +0.203 C 
ATOM     13  O   UNL     1       0.749  -0.141  -1.813  0.00  0.00    -0.277 OA
ATOM     14  N   UNL     1       2.939   0.178  -1.960  0.00  0.00    -0.288 N 
ATOM     15  H   UNL     1       3.705   0.744  -1.774  0.00  0.00    +0.155 HD
BRANCH  12  17
ATOM     16  C   UNL     1       1.221   2.975  -1.743  0.00  0.00    -0.004 C 
ATOM     17  C   UNL     1       1.530   1.830  -0.776  0.00  0.00    +0.016 C 
BRANCH  17  18
ATOM     18  N   UNL     1       0.418   1.675   0.170  0.00  0.00    +0.388 N 
ATOM     19  C   UNL     1       0.278   2.906   0.952  0.00  0.00    -0.067 C 
ATOM     20  C   UNL     1      -1.078   2.917   1.667  0.00  0.00    +0.050 C 
ATOM     21  S   UNL     1      -1.128   1.507   2.818  0.00  0.00    -0.164 S 
ATOM     22  C   UNL     1      -0.603   0.117   1.767  0.00  0.00    +0.050 C 
ATOM     23  C   UNL     1       0.682   0.524   1.036  0.00  0.00    -0.067 C 
ATOM     24  H   UNL     1      -0.435   1.513  -0.345  0.00  0.00    -0.081 HD
ENDBRANCH  17  18
ENDBRANCH  12  17
ENDBRANCH   1  14
BRANCH   9  25
ATOM     25  C   UNL     1       1.183  -1.169  -4.182  0.00  0.00    +0.335 C 
ATOM     26  O   UNL     1       1.634  -0.924  -5.276  0.00  0.00    -0.248 OA
BRANCH  25  27
ATOM     27  O   UNL     1      -0.065  -0.786  -3.869  0.00  0.00    -0.466 OA
ATOM     28  C   UNL     1      -0.803  -0.094  -4.878  0.00  0.00    +0.280 C 
ENDBRANCH  25  27
ENDBRANCH   9  25
TORSDOF 5
