REMARK  Name = ZINC64600396
REMARK  10 active torsions:
REMARK  status: ('A' for Active; 'I' for Inactive)
REMARK    1  A    between atoms: C_1  and  C_2
REMARK    2  A    between atoms: C_4  and  C_33
REMARK    3  A    between atoms: N_6  and  C_28
REMARK    4  A    between atoms: C_7  and  N_20
REMARK    5  A    between atoms: C_9  and  C_11
REMARK    6  A    between atoms: C_21  and  C_23
REMARK    7  A    between atoms: C_28  and  C_29
REMARK    8  A    between atoms: C_29  and  C_30
REMARK    9  A    between atoms: C_30  and  O_31
REMARK   10  A    between atoms: O_31  and  C_32
REMARK                            x       y       z     vdW  Elec       q    Type
REMARK                         _______ _______ _______ _____ _____    ______ ____
ROOT
ATOM      1  C   UNL     1      -0.412   1.341  -0.087  0.00  0.00    +0.009 C 
ATOM      2  C   UNL     1      -0.190  -0.172  -0.068  0.00  0.00    +0.013 C 
ATOM      3  C   UNL     1       0.695  -0.612  -1.261  0.00  0.00    +0.059 C 
ATOM      4  N   UNL     1       1.294  -1.887  -0.788  0.00  0.00    -0.281 NA
ATOM      5  C   UNL     1       1.607  -1.679   0.642  0.00  0.00    +0.151 C 
ATOM      6  C   UNL     1       0.649  -0.587   1.162  0.00  0.00    +0.071 C 
ATOM      7  C   UNL     1      -0.158  -0.842  -2.510  0.00  0.00    +0.024 C 
ENDROOT
BRANCH   6   8
ATOM      8  C   UNL     1      -0.258  -1.149   2.259  0.00  0.00    +0.180 C 
ATOM      9  N   UNL     1      -1.187  -0.112   2.725  0.00  0.00    -0.363 N 
ATOM     10  C   UNL     1      -0.958   0.075   3.993  0.00  0.00    +0.060 A 
ATOM     11  C   UNL     1      -1.556   0.969   4.995  0.00  0.00    +0.027 A 
ATOM     12  C   UNL     1      -1.103   0.943   6.264  0.00  0.00    +0.002 A 
ATOM     13  C   UNL     1      -0.067   0.088   6.682  0.00  0.00    +0.002 A 
ATOM     14  C   UNL     1       0.550  -0.769   5.845  0.00  0.00    +0.027 A 
ATOM     15  C   UNL     1       0.139  -0.829   4.436  0.00  0.00    +0.060 A 
ATOM     16  N   UNL     1       0.544  -1.542   3.425  0.00  0.00    -0.363 N 
ATOM     17  H   UNL     1      -1.850   0.348   2.188  0.00  0.00    +0.162 HD
ATOM     18  H   UNL     1       1.248  -2.209   3.438  0.00  0.00    +0.162 HD
ENDBRANCH   6   8
BRANCH   5  19
ATOM     19  N   UNL     1       1.397  -2.924   1.385  0.00  0.00    -0.295 N 
ATOM     20  C   UNL     1       2.456  -3.631   1.828  0.00  0.00    +0.252 C 
ATOM     21  O   UNL     1       3.585  -3.280   1.540  0.00  0.00    -0.270 OA
ATOM     22  H   UNL     1       0.496  -3.239   1.558  0.00  0.00    +0.151 HD
BRANCH  20  23
ATOM     23  C   UNL     1       2.246  -4.822   2.656  0.00  0.00    +0.074 A 
ATOM     24  C   UNL     1       3.187  -5.676   3.212  0.00  0.00    +0.021 A 
ATOM     25  C   UNL     1       2.682  -6.721   3.949  0.00  0.00    +0.008 A 
ATOM     26  C   UNL     1       1.339  -6.845   4.082  0.00  0.00    +0.046 A 
ATOM     27  S   UNL     1       0.717  -5.546   3.218  0.00  0.00    -0.092 S 
ENDBRANCH  20  23
ENDBRANCH   5  19
BRANCH   4  28
ATOM     28  C   UNL     1       2.506  -2.213  -1.551  0.00  0.00    +0.089 C 
BRANCH  28  29
ATOM     29  C   UNL     1       2.838  -3.696  -1.371  0.00  0.00    +0.043 C 
BRANCH  29  30
ATOM     30  C   UNL     1       4.166  -4.009  -2.062  0.00  0.00    +0.160 C 
BRANCH  30  31
ATOM     31  O   UNL     1       4.476  -5.394  -1.894  0.00  0.00    -0.383 OA
ATOM     32  C   UNL     1       5.704  -5.793  -2.506  0.00  0.00    +0.193 C 
ENDBRANCH  30  31
ENDBRANCH  29  30
ENDBRANCH  28  29
ENDBRANCH   4  28
TORSDOF 7
