REMARK  Name = ZINC06420364
REMARK  3 active torsions:
REMARK  status: ('A' for Active; 'I' for Inactive)
REMARK    1  A    between atoms: C_1  and  N_2
REMARK    2  A    between atoms: C_22  and  C_24
REMARK    3  A    between atoms: C_28  and  N_30
REMARK                            x       y       z     vdW  Elec       q    Type
REMARK                         _______ _______ _______ _____ _____    ______ ____
ROOT
ATOM      1  C   UNL     1      -2.403  -4.284   3.902  0.00  0.00    +0.132 C 
ATOM      2  N   UNL     1      -1.531  -3.721   2.868  0.00  0.00    -0.294 N 
ATOM      3  C   UNL     1      -1.247  -2.297   2.913  0.00  0.00    +0.203 C 
ATOM      4  C   UNL     1      -0.289  -1.882   1.844  0.00  0.00    +0.234 C 
ATOM      5  O   UNL     1       0.040  -0.715   1.801  0.00  0.00    -0.274 OA
ATOM      6  N   UNL     1       0.228  -2.708   0.932  0.00  0.00    -0.276 N 
ATOM      7  C   UNL     1      -0.148  -4.117   0.825  0.00  0.00    +0.167 C 
ATOM      8  C   UNL     1      -1.045  -4.545   1.942  0.00  0.00    +0.237 C 
ATOM      9  O   UNL     1      -1.348  -5.717   2.009  0.00  0.00    -0.274 OA
ATOM     10  C   UNL     1      -0.853  -4.350  -0.519  0.00  0.00    +0.069 C 
ATOM     11  C   UNL     1      -0.068  -3.660  -1.606  0.00  0.00    -0.015 A 
ATOM     12  C   UNL     1      -0.139  -3.872  -3.038  0.00  0.00    +0.003 A 
ATOM     13  C   UNL     1      -0.904  -4.733  -3.831  0.00  0.00    +0.010 A 
ATOM     14  C   UNL     1      -0.710  -4.662  -5.189  0.00  0.00    +0.001 A 
ATOM     15  C   UNL     1       0.198  -3.783  -5.757  0.00  0.00    +0.002 A 
ATOM     16  C   UNL     1       0.967  -2.920  -4.996  0.00  0.00    +0.026 A 
ATOM     17  C   UNL     1       0.792  -2.971  -3.614  0.00  0.00    +0.047 A 
ATOM     18  N   UNL     1       1.373  -2.278  -2.592  0.00  0.00    -0.356 N 
ATOM     19  H   UNL     1       2.051  -1.592  -2.697  0.00  0.00    +0.166 HD
ATOM     20  C   UNL     1       0.855  -2.697  -1.395  0.00  0.00    +0.046 A 
ATOM     21  C   UNL     1       1.229  -2.186  -0.022  0.00  0.00    +0.154 C 
ENDROOT
BRANCH  21  22
ATOM     22  C   UNL     1       1.209  -0.679  -0.014  0.00  0.00    -0.019 A 
ATOM     23  C   UNL     1       0.103   0.000  -0.491  0.00  0.00    +0.006 A 
ATOM     24  C   UNL     1       0.085   1.382  -0.484  0.00  0.00    +0.003 A 
ATOM     25  C   UNL     1       1.171   2.085   0.002  0.00  0.00    +0.033 A 
ATOM     26  C   UNL     1       2.277   1.407   0.479  0.00  0.00    +0.127 A 
ATOM     27  C   UNL     1       2.295   0.024   0.472  0.00  0.00    +0.038 A 
BRANCH  26  28
ATOM     28  N   UNL     1       3.440   2.159   0.999  0.00  0.00    +0.056 N 
ATOM     29  O   UNL     1       4.414   1.561   1.420  0.00  0.00    -0.126 OA
ATOM     30  O   UNL     1       3.424   3.377   1.006  0.00  0.00    -0.126 OA
ENDBRANCH  26  28
ENDBRANCH  21  22
TORSDOF 2
