REMARK  Name = ZINC05347299
REMARK  8 active torsions:
REMARK  status: ('A' for Active; 'I' for Inactive)
REMARK    1  A    between atoms: C_1  and  C_2
REMARK    2  A    between atoms: C_2  and  C_3
REMARK    3  A    between atoms: C_2  and  C_4
REMARK    4  A    between atoms: C_4  and  C_5
REMARK    5  A    between atoms: N_13  and  C_16
REMARK    6  A    between atoms: C_16  and  C_17
REMARK    7  A    between atoms: C_17  and  O_18
REMARK    8  A    between atoms: O_18  and  C_19
REMARK                            x       y       z     vdW  Elec       q    Type
REMARK                         _______ _______ _______ _____ _____    ______ ____
ROOT
ATOM      1  C   UNL     1       2.230  -0.292  -1.091  0.00  0.00    -0.057 C 
ATOM      2  C   UNL     1       2.987  -0.858  -2.311  0.00  0.00    +0.073 C 
ATOM      3  C   UNL     1       4.070   0.207  -2.639  0.00  0.00    +0.088 C 
ATOM      4  C   UNL     1       3.657   0.713  -4.004  0.00  0.00    +0.225 C 
ATOM      5  O   UNL     1       4.243   1.560  -4.643  0.00  0.00    -0.275 OA
ATOM      6  N   UNL     1       2.546   0.079  -4.395  0.00  0.00    -0.240 N 
ATOM      7  C   UNL     1       2.076  -0.836  -3.517  0.00  0.00    +0.224 C 
ATOM      8  O   UNL     1       1.090  -1.526  -3.663  0.00  0.00    -0.275 OA
ATOM      9  C   UNL     1       3.865   1.302  -1.585  0.00  0.00    +0.050 C 
ATOM     10  N   UNL     1       2.455   1.177  -1.148  0.00  0.00    +0.394 N 
ATOM     11  C   UNL     1       4.832   1.153  -0.444  0.00  0.00    -0.026 A 
ATOM     12  C   UNL     1       5.080   0.147   0.462  0.00  0.00    +0.024 A 
ATOM     13  C   UNL     1       6.064   0.308   1.423  0.00  0.00    +0.041 A 
ATOM     14  C   UNL     1       6.794   1.483   1.470  0.00  0.00    +0.022 A 
ATOM     15  C   UNL     1       6.546   2.494   0.565  0.00  0.00    +0.025 A 
ATOM     16  C   UNL     1       5.558   2.340  -0.405  0.00  0.00    +0.036 A 
ATOM     17  N   UNL     1       5.127   3.204  -1.414  0.00  0.00    -0.286 N 
ATOM     18  C   UNL     1       4.134   2.669  -2.151  0.00  0.00    +0.211 C 
ATOM     19  O   UNL     1       3.568   3.188  -3.090  0.00  0.00    -0.277 OA
ATOM     20 CL   UNL     1       6.379  -0.959   2.567  0.00  0.00    -0.084 Cl
ATOM     21  H   UNL     1       1.830   1.604  -1.815  0.00  0.00    -0.083 HD
ATOM     22  H   UNL     1       5.498   4.087  -1.566  0.00  0.00    +0.155 HD
ATOM     23  H   UNL     1       2.334   1.589  -0.234  0.00  0.00    -0.083 HD
ENDROOT
BRANCH   1  24
ATOM     24  C   UNL     1       0.737  -0.607  -1.197  0.00  0.00    -0.012 C 
BRANCH  24  26
ATOM     25  C   UNL     1      -1.496  -0.251  -0.135  0.00  0.00    +0.007 C 
ATOM     26  C   UNL     1       0.012  -0.065   0.037  0.00  0.00    -0.019 C 
ATOM     27  C   UNL     1       0.481  -0.826   1.279  0.00  0.00    +0.007 C 
ENDBRANCH  24  26
ENDBRANCH   1  24
BRANCH   6  28
ATOM     28  C   UNL     1       1.890   0.350  -5.677  0.00  0.00    +0.144 C 
BRANCH  28  29
ATOM     29  C   UNL     1       2.464  -0.578  -6.750  0.00  0.00    +0.179 C 
BRANCH  29  30
ATOM     30  O   UNL     1       2.134  -1.932  -6.434  0.00  0.00    -0.381 OA
ATOM     31  C   UNL     1       2.626  -2.885  -7.379  0.00  0.00    +0.194 C 
ENDBRANCH  29  30
ENDBRANCH  28  29
ENDBRANCH   6  28
TORSDOF 5
