REMARK  Name = ZINC53737575
REMARK  6 active torsions:
REMARK  status: ('A' for Active; 'I' for Inactive)
REMARK    1  A    between atoms: C_1  and  C_2
REMARK    2  A    between atoms: C_2  and  C_4
REMARK    3  A    between atoms: C_2  and  O_22
REMARK    4  A    between atoms: C_8  and  N_21
REMARK    5  A    between atoms: N_12  and  C_13
REMARK    6  A    between atoms: C_13  and  C_14
REMARK                            x       y       z     vdW  Elec       q    Type
REMARK                         _______ _______ _______ _____ _____    ______ ____
ROOT
ATOM      1  C   UNL     1       0.731  -0.503   1.223  0.00  0.00    +0.140 A 
ATOM      2  N   UNL     1       0.245  -0.510   2.430  0.00  0.00    -0.230 NA
ATOM      3  C   UNL     1       1.163  -1.025   3.289  0.00  0.00    +0.091 A 
ATOM      4  C   UNL     1       1.165  -1.258   4.667  0.00  0.00    +0.052 A 
ATOM      5  C   UNL     1       2.282  -1.810   5.266  0.00  0.00    +0.027 A 
ATOM      6  C   UNL     1       3.403  -2.134   4.503  0.00  0.00    +0.025 A 
ATOM      7  C   UNL     1       3.410  -1.909   3.144  0.00  0.00    +0.030 A 
ATOM      8  C   UNL     1       2.296  -1.355   2.528  0.00  0.00    +0.069 A 
ATOM      9  N   UNL     1       1.990  -1.018   1.222  0.00  0.00    -0.321 N 
ENDROOT
BRANCH   5  10
ATOM     10  N   UNL     1       2.288  -2.043   6.646  0.00  0.00    -0.358 N 
ATOM     11  H   UNL     1       1.509  -1.818   7.179  0.00  0.00    +0.142 HD
ATOM     12  H   UNL     1       3.070  -2.431   7.069  0.00  0.00    +0.142 HD
ENDBRANCH   5  10
BRANCH   1  14
ATOM     13  C   UNL     1      -0.019   1.526   0.010  0.00  0.00    +0.046 C 
ATOM     14  C   UNL     1       0.002  -0.004   0.002  0.00  0.00    +0.177 C 
BRANCH  14  15
ATOM     15  O   UNL     1      -1.339  -0.499   0.012  0.00  0.00    -0.384 OA
ATOM     16  H   UNL     1      -1.853  -0.225   0.784  0.00  0.00    +0.210 HD
ENDBRANCH  14  15
ENDBRANCH   1  14
BRANCH   9  17
ATOM     17  C   UNL     1       2.861  -1.181   0.056  0.00  0.00    +0.158 C 
BRANCH  17  18
ATOM     18  C   UNL     1       3.691   0.062  -0.129  0.00  0.00    -0.027 A 
ATOM     19  C   UNL     1       3.217   1.100  -0.911  0.00  0.00    +0.005 A 
ATOM     20  C   UNL     1       3.978   2.241  -1.081  0.00  0.00    +0.001 A 
ATOM     21  C   UNL     1       5.214   2.346  -0.470  0.00  0.00    +0.015 A 
ATOM     22  C   UNL     1       5.688   1.309   0.312  0.00  0.00    +0.018 A 
ATOM     23  C   UNL     1       4.923   0.169   0.487  0.00  0.00    +0.020 A 
ATOM     24 BR   UNL     1       7.378   1.451   1.148  0.00  0.00    -0.050 Br
ENDBRANCH  17  18
ENDBRANCH   9  17
TORSDOF 5
