REMARK  Name = ZINC67000334
REMARK  4 active torsions:
REMARK  status: ('A' for Active; 'I' for Inactive)
REMARK    1  A    between atoms: C_10  and  C_11
REMARK    2  A    between atoms: C_10  and  O_23
REMARK    3  A    between atoms: C_11  and  N_12
REMARK    4  A    between atoms: C_13  and  C_15
REMARK                            x       y       z     vdW  Elec       q    Type
REMARK                         _______ _______ _______ _____ _____    ______ ____
ROOT
ATOM      1  C   UNL     1       4.689   0.049   0.901  0.00  0.00    +0.144 C 
ENDROOT
BRANCH   1  11
ATOM      2  C   UNL     1       0.011   1.426  -0.054  0.00  0.00    +0.000 A 
ATOM      3  C   UNL     1       1.212   2.110  -0.072  0.00  0.00    +0.000 A 
ATOM      4  C   UNL     1       2.400   1.408  -0.065  0.00  0.00    +0.007 A 
ATOM      5  C   UNL     1       2.398   0.019  -0.038  0.00  0.00    -0.011 A 
ATOM      6  C   UNL     1       1.202  -0.661  -0.015  0.00  0.00    -0.041 A 
ATOM      7  C   UNL     1       0.007   0.047  -0.025  0.00  0.00    +0.004 A 
ATOM      8  C   UNL     1       1.125  -2.165   0.031  0.00  0.00    +0.035 C 
ATOM      9  C   UNL     1       2.455  -2.784  -0.392  0.00  0.00    +0.008 C 
ATOM     10  C   UNL     1       3.575  -2.130   0.426  0.00  0.00    +0.041 C 
ATOM     11  C   UNL     1       3.731  -0.684  -0.040  0.00  0.00    +0.107 C 
BRANCH  11  12
ATOM     12  O   UNL     1       4.269  -0.671  -1.364  0.00  0.00    -0.382 OA
ATOM     13  H   UNL     1       4.411   0.216  -1.721  0.00  0.00    +0.211 HD
ENDBRANCH  11  12
ENDBRANCH   1  11
BRANCH   1  14
ATOM     14  N   UNL     1       5.959  -0.679   0.968  0.00  0.00    -0.305 N 
ATOM     15  C   UNL     1       6.918  -0.281   1.827  0.00  0.00    +0.299 C 
ATOM     16  O   UNL     1       6.731   0.680   2.544  0.00  0.00    -0.265 OA
ATOM     17  H   UNL     1       6.109  -1.447   0.395  0.00  0.00    +0.149 HD
BRANCH  15  18
ATOM     18  C   UNL     1       8.213  -1.023   1.896  0.00  0.00    +0.305 C 
ATOM     19  O   UNL     1       8.400  -1.984   1.179  0.00  0.00    -0.265 OA
ATOM     20  N   UNL     1       9.172  -0.625   2.754  0.00  0.00    -0.255 N 
ATOM     21  C   UNL     1      10.376  -1.314   2.818  0.00  0.00    +0.188 A 
ATOM     22  N   UNL     1      10.790  -2.372   2.134  0.00  0.00    -0.126 NA
ATOM     23  N   UNL     1      11.930  -2.880   2.320  0.00  0.00    -0.148 NA
ATOM     24  C   UNL     1      12.779  -2.393   3.204  0.00  0.00    +0.183 A 
ATOM     25  S   UNL     1      11.815  -1.026   3.843  0.00  0.00    -0.039 S 
ATOM     26  H   UNL     1       9.022   0.143   3.328  0.00  0.00    +0.157 HD
ENDBRANCH  15  18
ENDBRANCH   1  14
TORSDOF 4
