REMARK  Name = ZINC64411005
REMARK  4 active torsions:
REMARK  status: ('A' for Active; 'I' for Inactive)
REMARK    1  A    between atoms: C_1  and  C_2
REMARK    2  A    between atoms: C_2  and  C_3
REMARK    3  A    between atoms: C_12  and  C_28
REMARK    4  A    between atoms: C_14  and  C_17
REMARK                            x       y       z     vdW  Elec       q    Type
REMARK                         _______ _______ _______ _____ _____    ______ ____
ROOT
ATOM      1  C   UNL     1      -6.213   1.002  -0.284  0.00  0.00    +0.050 A 
ATOM      2  C   UNL     1      -5.820   0.310  -1.393  0.00  0.00    +0.093 A 
ATOM      3  C   UNL     1      -5.045  -0.852  -1.230  0.00  0.00    +0.253 A 
ATOM      4  O   UNL     1      -4.676  -1.495  -2.199  0.00  0.00    -0.268 OA
ATOM      5  N   UNL     1      -4.716  -1.242   0.020  0.00  0.00    -0.294 N 
ATOM      6  H   UNL     1      -4.182  -2.041   0.156  0.00  0.00    +0.172 HD
ATOM      7  C   UNL     1      -5.137  -0.512   1.089  0.00  0.00    +0.216 A 
ATOM      8  N   UNL     1      -5.859   0.578   0.927  0.00  0.00    -0.219 NA
ATOM      9  N   UNL     1      -4.800  -0.915   2.353  0.00  0.00    -0.215 N 
ATOM     10  C   UNL     1      -5.168  -0.258   3.619  0.00  0.00    +0.130 C 
ATOM     11  C   UNL     1      -4.535  -1.123   4.687  0.00  0.00    +0.052 C 
ATOM     12  C   UNL     1      -3.901  -2.127   4.053  0.00  0.00    +0.098 C 
ATOM     13  N   UNL     1      -4.040  -2.038   2.704  0.00  0.00    -0.268 N 
ATOM     14  C   UNL     1      -6.689  -0.228   3.783  0.00  0.00    +0.035 C 
ATOM     15  H   UNL     1      -3.662  -2.666   2.070  0.00  0.00    +0.170 HD
ENDROOT
BRANCH  11  16
ATOM     16  C   UNL     1      -4.596  -0.915   6.084  0.00  0.00    +0.250 C 
ATOM     17  O   UNL     1      -5.589  -1.248   6.706  0.00  0.00    -0.270 OA
ATOM     18  N   UNL     1      -3.557  -0.348   6.728  0.00  0.00    -0.267 N 
ATOM     19  C   UNL     1      -2.362   0.196   6.077  0.00  0.00    +0.118 C 
ATOM     20  C   UNL     1      -1.483   0.723   7.223  0.00  0.00    +0.056 C 
ATOM     21  C   UNL     1      -2.275   0.426   8.477  0.00  0.00    -0.024 A 
ATOM     22  C   UNL     1      -3.463  -0.188   8.113  0.00  0.00    +0.040 A 
ATOM     23  C   UNL     1      -4.369  -0.556   9.110  0.00  0.00    +0.024 A 
ATOM     24  C   UNL     1      -4.083  -0.306  10.435  0.00  0.00    +0.002 A 
ATOM     25  C   UNL     1      -2.897   0.310  10.787  0.00  0.00    +0.000 A 
ATOM     26  C   UNL     1      -1.991   0.670   9.807  0.00  0.00    +0.005 A 
ENDBRANCH  11  16
BRANCH   1  28
ATOM     27  C   UNL     1      -8.525   1.897  -0.282  0.00  0.00    +0.010 C 
ATOM     28  C   UNL     1      -7.044   2.250  -0.432  0.00  0.00    +0.052 C 
ENDBRANCH   1  28
TORSDOF 2
