REMARK  Name = ZINC45624934
REMARK  7 active torsions:
REMARK  status: ('A' for Active; 'I' for Inactive)
REMARK    1  A    between atoms: C_1  and  C_2
REMARK    2  A    between atoms: C_4  and  C_8
REMARK    3  A    between atoms: C_5  and  C_7
REMARK    4  A    between atoms: C_8  and  C_10
REMARK    5  A    between atoms: C_8  and  N_11
REMARK    6  A    between atoms: C_12  and  C_14
REMARK    7  A    between atoms: C_16  and  N_21
REMARK                            x       y       z     vdW  Elec       q    Type
REMARK                         _______ _______ _______ _____ _____    ______ ____
ROOT
ATOM      1  N   UNL     1      -2.752  -3.099  -0.586  0.00  0.00    -0.305 N 
ATOM      2  C   UNL     1      -3.473  -4.086  -1.154  0.00  0.00    +0.246 C 
ATOM      3  O   UNL     1      -3.031  -5.218  -1.188  0.00  0.00    -0.270 OA
ATOM      4  H   UNL     1      -3.105  -2.196  -0.558  0.00  0.00    +0.150 HD
ENDROOT
BRANCH   2   5
ATOM      5  C   UNL     1      -4.799  -3.793  -1.735  0.00  0.00    +0.052 A 
ATOM      6  C   UNL     1      -5.306  -2.493  -1.702  0.00  0.00    +0.037 A 
ATOM      7  C   UNL     1      -6.551  -2.225  -2.250  0.00  0.00    +0.025 A 
ATOM      8  C   UNL     1      -7.291  -3.250  -2.829  0.00  0.00    +0.024 A 
ATOM      9  C   UNL     1      -6.790  -4.537  -2.862  0.00  0.00    +0.018 A 
ATOM     10  C   UNL     1      -5.548  -4.814  -2.325  0.00  0.00    +0.030 A 
ATOM     11 BR   UNL     1      -4.865  -6.576  -2.380  0.00  0.00    -0.050 Br
BRANCH   7  12
ATOM     12  N   UNL     1      -7.062  -0.925  -2.219  0.00  0.00    -0.358 N 
ATOM     13  H   UNL     1      -6.546  -0.210  -1.815  0.00  0.00    +0.142 HD
ATOM     14  H   UNL     1      -7.934  -0.738  -2.602  0.00  0.00    +0.142 HD
ENDBRANCH   7  12
ENDBRANCH   2   5
BRANCH   1  15
ATOM     15  C   UNL     1      -1.437  -3.390  -0.009  0.00  0.00    +0.104 C 
ATOM     16  C   UNL     1      -1.609  -3.892   1.426  0.00  0.00    +0.033 C 
BRANCH  15  20
ATOM     17  C   UNL     1      -0.018   1.503   0.010  0.00  0.00    +0.086 C 
ATOM     18  C   UNL     1       0.002  -0.004   0.002  0.00  0.00    +0.103 A 
ATOM     19  C   UNL     1      -1.078  -0.805   0.003  0.00  0.00    +0.050 A 
ATOM     20  C   UNL     1      -0.601  -2.136  -0.007  0.00  0.00    +0.013 A 
ATOM     21  C   UNL     1       0.742  -2.069  -0.013  0.00  0.00    +0.107 A 
ATOM     22  O   UNL     1       1.102  -0.775  -0.013  0.00  0.00    -0.465 OA
ATOM     23  C   UNL     1       1.684  -3.245  -0.023  0.00  0.00    +0.086 C 
ENDBRANCH  15  20
ENDBRANCH   1  15
TORSDOF 4
