REMARK  Name = ZINC39959169
REMARK  7 active torsions:
REMARK  status: ('A' for Active; 'I' for Inactive)
REMARK    1  A    between atoms: C_1  and  C_2
REMARK    2  A    between atoms: C_2  and  C_3
REMARK    3  A    between atoms: C_2  and  C_4
REMARK    4  A    between atoms: C_2  and  N_6
REMARK    5  A    between atoms: C_4  and  O_5
REMARK    6  A    between atoms: C_7  and  C_9
REMARK    7  A    between atoms: C_12  and  C_15
REMARK                            x       y       z     vdW  Elec       q    Type
REMARK                         _______ _______ _______ _____ _____    ______ ____
ROOT
ATOM      1  C   UNL     1       2.677  -0.618  -2.667  0.00  0.00    +0.378 C 
ATOM      2  N   UNL     1       2.885  -2.074  -2.603  0.00  0.00    -0.282 N 
ATOM      3  C   UNL     1       2.200  -2.623  -3.671  0.00  0.00    +0.168 C 
ATOM      4  N   UNL     1       1.611  -1.708  -4.369  0.00  0.00    -0.066 NA
ATOM      5  O   UNL     1       1.850  -0.421  -3.824  0.00  0.00    -0.360 OA
ATOM      6  H   UNL     1       3.402  -2.555  -1.938  0.00  0.00    +0.152 HD
ENDROOT
BRANCH   3   7
ATOM      7  C   UNL     1       2.150  -4.071  -3.977  0.00  0.00    +0.016 C 
ATOM      8  C   UNL     1       1.449  -4.481  -5.057  0.00  0.00    +0.015 C 
ATOM      9  C   UNL     1       1.320  -5.952  -5.322  0.00  0.00    +0.159 C 
ATOM     10  C   UNL     1       2.550  -6.631  -4.750  0.00  0.00    -0.018 C 
ATOM     11  C   UNL     1       3.005  -7.432  -5.729  0.00  0.00    +0.025 C 
ATOM     12  C   UNL     1       2.270  -7.193  -6.911  0.00  0.00    +0.106 C 
ATOM     13  N   UNL     1       1.314  -6.323  -6.730  0.00  0.00    -0.279 NA
ATOM     14  C   UNL     1       3.090  -6.286  -3.495  0.00  0.00    +0.007 C 
ATOM     15  C   UNL     1       2.867  -5.001  -3.099  0.00  0.00    +0.011 C 
ENDBRANCH   3   7
BRANCH   1  17
ATOM     16  N   UNL     1       0.688  -0.476  -1.203  0.00  0.00    -0.304 N 
ATOM     17  C   UNL     1       1.972  -0.132  -1.427  0.00  0.00    +0.276 C 
ATOM     18  O   UNL     1       2.559   0.569  -0.630  0.00  0.00    -0.270 OA
ATOM     19  H   UNL     1       0.218  -1.037  -1.840  0.00  0.00    +0.149 HD
BRANCH  16  21
ATOM     20  C   UNL     1      -0.019   1.526   0.010  0.00  0.00    +0.033 C 
ATOM     21  C   UNL     1       0.002  -0.004   0.002  0.00  0.00    +0.052 C 
ATOM     22  C   UNL     1       0.742  -0.511   1.242  0.00  0.00    +0.033 C 
BRANCH  21  23
ATOM     23  C   UNL     1      -1.433  -0.534   0.013  0.00  0.00    +0.181 C 
BRANCH  23  24
ATOM     24  O   UNL     1      -2.102  -0.073   1.189  0.00  0.00    -0.393 OA
ATOM     25  H   UNL     1      -3.019  -0.371   1.262  0.00  0.00    +0.209 HD
ENDBRANCH  23  24
ENDBRANCH  21  23
ENDBRANCH  16  21
ENDBRANCH   1  17
TORSDOF 5
