REMARK  Name = ZINC37929280
REMARK  5 active torsions:
REMARK  status: ('A' for Active; 'I' for Inactive)
REMARK    1  A    between atoms: C_1  and  C_2
REMARK    2  A    between atoms: C_6  and  N_8
REMARK    3  A    between atoms: N_8  and  S_9
REMARK    4  A    between atoms: S_9  and  C_12
REMARK    5  A    between atoms: C_17  and  N_18
REMARK                            x       y       z     vdW  Elec       q    Type
REMARK                         _______ _______ _______ _____ _____    ______ ____
ROOT
ATOM      1  S   UNL     1      -0.680  -2.148   3.811  0.00  0.00    +0.074 S 
ATOM      2  O   UNL     1      -0.459  -2.950   4.963  0.00  0.00    -0.150 OA
ATOM      3  O   UNL     1      -0.284  -0.785   3.743  0.00  0.00    -0.150 OA
ENDROOT
BRANCH   1   4
ATOM      4  C   UNL     1      -2.414  -2.184   3.498  0.00  0.00    +0.132 A 
ATOM      5  C   UNL     1      -3.105  -1.005   3.297  0.00  0.00    +0.069 A 
ATOM      6  C   UNL     1      -4.467  -1.032   3.051  0.00  0.00    +0.125 A 
ATOM      7  C   UNL     1      -5.140  -2.242   3.005  0.00  0.00    +0.040 A 
ATOM      8  C   UNL     1      -4.453  -3.423   3.205  0.00  0.00    +0.027 A 
ATOM      9  C   UNL     1      -3.086  -3.398   3.446  0.00  0.00    +0.052 A 
ATOM     10  F   UNL     1      -5.140   0.122   2.855  0.00  0.00    -0.205 F 
BRANCH   9  11
ATOM     11  N   UNL     1      -2.387  -4.594   3.643  0.00  0.00    -0.356 N 
ATOM     12  H   UNL     1      -1.421  -4.583   3.721  0.00  0.00    +0.142 HD
ATOM     13  H   UNL     1      -2.870  -5.433   3.702  0.00  0.00    +0.142 HD
ENDBRANCH   9  11
ENDBRANCH   1   4
BRANCH   1  14
ATOM     14  N   UNL     1       0.062  -2.920   2.547  0.00  0.00    -0.213 N 
ATOM     15  H   UNL     1       0.600  -3.711   2.710  0.00  0.00    +0.174 HD
BRANCH  14  21
ATOM     16  C   UNL     1      -0.405   0.898  -0.513  0.00  0.00    +0.044 C 
ATOM     17  C   UNL     1      -0.317  -0.586  -0.268  0.00  0.00    -0.048 A 
ATOM     18  C   UNL     1      -0.383  -1.466  -1.332  0.00  0.00    +0.006 A 
ATOM     19  C   UNL     1      -0.302  -2.829  -1.113  0.00  0.00    +0.040 A 
ATOM     20  C   UNL     1      -0.155  -3.316   0.173  0.00  0.00    +0.146 A 
ATOM     21  C   UNL     1      -0.088  -2.432   1.245  0.00  0.00    +0.083 A 
ATOM     22  C   UNL     1      -0.164  -1.065   1.019  0.00  0.00    +0.030 A 
ATOM     23  F   UNL     1      -0.076  -4.647   0.388  0.00  0.00    -0.204 F 
ENDBRANCH  14  21
ENDBRANCH   1  14
TORSDOF 4
