REMARK  Name = ZINC37195397
REMARK  5 active torsions:
REMARK  status: ('A' for Active; 'I' for Inactive)
REMARK    1  A    between atoms: C_3  and  N_17
REMARK    2  A    between atoms: C_4  and  S_8
REMARK    3  A    between atoms: S_8  and  C_9
REMARK    4  A    between atoms: C_9  and  C_10
REMARK    5  A    between atoms: C_10  and  C_11
REMARK                            x       y       z     vdW  Elec       q    Type
REMARK                         _______ _______ _______ _____ _____    ______ ____
ROOT
ATOM      1  S   UNL     1       3.939  -0.838  -0.041  0.00  0.00    -0.121 S 
ENDROOT
BRANCH   1   5
ATOM      2  C   UNL     1      -0.017   1.378   0.010  0.00  0.00    +0.003 A 
ATOM      3  C   UNL     1       1.169   2.090   0.002  0.00  0.00    +0.024 A 
ATOM      4  C   UNL     1       2.382   1.418  -0.013  0.00  0.00    +0.040 A 
ATOM      5  C   UNL     1       2.402   0.023  -0.021  0.00  0.00    +0.047 A 
ATOM      6  C   UNL     1       1.208  -0.683  -0.013  0.00  0.00    +0.056 A 
ATOM      7  C   UNL     1       0.002  -0.004   0.002  0.00  0.00    +0.021 A 
ATOM      8 CL   UNL     1       1.226  -2.419  -0.023  0.00  0.00    -0.082 Cl
BRANCH   4   9
ATOM      9  N   UNL     1       3.583   2.138  -0.021  0.00  0.00    -0.357 N 
ATOM     10  H   UNL     1       3.567   3.108  -0.016  0.00  0.00    +0.142 HD
ATOM     11  H   UNL     1       4.430   1.666  -0.032  0.00  0.00    +0.142 HD
ENDBRANCH   4   9
ENDBRANCH   1   5
BRANCH   1  12
ATOM     12  C   UNL     1       4.339  -1.062   1.715  0.00  0.00    +0.084 C 
BRANCH  12  13
ATOM     13  C   UNL     1       5.669  -1.808   1.843  0.00  0.00    +0.107 C 
BRANCH  13  14
ATOM     14  C   UNL     1       6.001  -1.994   3.301  0.00  0.00    +0.221 C 
ATOM     15  O   UNL     1       5.249  -1.572   4.153  0.00  0.00    -0.275 OA
ATOM     16  N   UNL     1       7.135  -2.629   3.658  0.00  0.00    -0.240 N 
ATOM     17  C   UNL     1       7.432  -2.796   4.962  0.00  0.00    +0.303 C 
ATOM     18  O   UNL     1       6.678  -2.373   5.816  0.00  0.00    -0.253 OA
ATOM     19  N   UNL     1       8.566  -3.431   5.319  0.00  0.00    -0.313 N 
ATOM     20  H   UNL     1       7.737  -2.967   2.977  0.00  0.00    +0.159 HD
ATOM     21  H   UNL     1       9.168  -3.769   4.638  0.00  0.00    +0.146 HD
ATOM     22  H   UNL     1       8.780  -3.551   6.258  0.00  0.00    +0.146 HD
ENDBRANCH  13  14
ENDBRANCH  12  13
ENDBRANCH   1  12
TORSDOF 5
