REMARK  Name = ZINC39873243
REMARK  7 active torsions:
REMARK  status: ('A' for Active; 'I' for Inactive)
REMARK    1  A    between atoms: C_1  and  C_2
REMARK    2  A    between atoms: C_2  and  C_4
REMARK    3  A    between atoms: C_7  and  N_10
REMARK    4  A    between atoms: C_11  and  C_26
REMARK    5  A    between atoms: C_29  and  O_32
REMARK    6  A    between atoms: O_32  and  C_33
REMARK    7  A    between atoms: C_33  and  C_34
REMARK                            x       y       z     vdW  Elec       q    Type
REMARK                         _______ _______ _______ _____ _____    ______ ____
ROOT
ATOM      1  N   UNL     1      -0.007  -2.789  -4.883  0.00  0.00    -0.253 N 
ATOM      2  C   UNL     1      -0.000  -4.252  -5.044  0.00  0.00    +0.150 C 
ATOM      3  C   UNL     1      -0.004  -4.499  -6.517  0.00  0.00    +0.072 A 
ATOM      4  C   UNL     1       0.009  -5.747  -7.287  0.00  0.00    +0.199 A 
ATOM      5  O   UNL     1      -0.150  -6.844  -6.783  0.00  0.00    -0.287 OA
ATOM      6  C   UNL     1       0.235  -5.545  -8.741  0.00  0.00    +0.064 A 
ATOM      7  C   UNL     1       0.472  -6.636  -9.577  0.00  0.00    +0.015 A 
ATOM      8  C   UNL     1       0.683  -6.434 -10.912  0.00  0.00    +0.001 A 
ATOM      9  C   UNL     1       0.663  -5.148 -11.436  0.00  0.00    +0.004 A 
ATOM     10  C   UNL     1       0.429  -4.060 -10.626  0.00  0.00    +0.047 A 
ATOM     11  C   UNL     1       0.208  -4.241  -9.260  0.00  0.00    +0.139 A 
ATOM     12  O   UNL     1      -0.030  -3.159  -8.484  0.00  0.00    -0.450 OA
ATOM     13  C   UNL     1      -0.017  -3.285  -7.143  0.00  0.00    +0.199 A 
ATOM     14  C   UNL     1      -0.022  -2.233  -6.111  0.00  0.00    +0.287 C 
ATOM     15  O   UNL     1      -0.035  -1.039  -6.335  0.00  0.00    -0.266 OA
ENDROOT
BRANCH   1  19
ATOM     16  C   UNL     1      -0.000  -0.731  -1.274  0.00  0.00    +0.017 A 
ATOM     17  C   UNL     1      -0.015  -0.027  -2.484  0.00  0.00    +0.013 A 
ATOM     18  C   UNL     1      -0.017  -0.707  -3.668  0.00  0.00    +0.024 A 
ATOM     19  C   UNL     1      -0.004  -2.100  -3.674  0.00  0.00    +0.038 A 
ATOM     20  C   UNL     1       0.011  -2.804  -2.473  0.00  0.00    +0.024 A 
ATOM     21  C   UNL     1       0.019  -2.132  -1.284  0.00  0.00    +0.013 A 
BRANCH  16  23
ATOM     22  C   UNL     1      -0.018   1.503   0.010  0.00  0.00    +0.091 C 
ATOM     23  C   UNL     1       0.002  -0.004   0.002  0.00  0.00    +0.160 C 
ATOM     24  O   UNL     1       0.020  -0.616   1.049  0.00  0.00    -0.292 OA
ENDBRANCH  16  23
ENDBRANCH   1  19
BRANCH   2  25
ATOM     25  C   UNL     1      -1.230  -4.851  -4.412  0.00  0.00    -0.022 A 
ATOM     26  C   UNL     1      -2.453  -4.218  -4.546  0.00  0.00    +0.009 A 
ATOM     27  C   UNL     1      -3.582  -4.764  -3.967  0.00  0.00    +0.046 A 
ATOM     28  C   UNL     1      -3.489  -5.949  -3.252  0.00  0.00    +0.121 A 
ATOM     29  C   UNL     1      -2.262  -6.582  -3.119  0.00  0.00    +0.046 A 
ATOM     30  C   UNL     1      -1.136  -6.035  -3.704  0.00  0.00    +0.009 A 
BRANCH  28  31
ATOM     31  O   UNL     1      -4.598  -6.488  -2.681  0.00  0.00    -0.483 OA
BRANCH  31  32
ATOM     32  C   UNL     1      -4.428  -7.709  -1.959  0.00  0.00    +0.324 C 
BRANCH  32  33
ATOM     33  C   UNL     1      -5.756  -8.153  -1.401  0.00  0.00    +0.248 C 
ATOM     34  O   UNL     1      -6.750  -7.488  -1.602  0.00  0.00    -0.272 OA
ATOM     35  N   UNL     1      -5.839  -9.288  -0.679  0.00  0.00    -0.327 N 
ATOM     36  H   UNL     1      -5.043  -9.819  -0.518  0.00  0.00    +0.145 HD
ATOM     37  H   UNL     1      -6.693  -9.573  -0.320  0.00  0.00    +0.145 HD
ENDBRANCH  32  33
ENDBRANCH  31  32
ENDBRANCH  28  31
ENDBRANCH   2  25
TORSDOF 6
