REMARK  Name = ZINC39658522
REMARK  7 active torsions:
REMARK  status: ('A' for Active; 'I' for Inactive)
REMARK    1  A    between atoms: C_4  and  C_7
REMARK    2  A    between atoms: C_7  and  S_8
REMARK    3  A    between atoms: S_8  and  C_9
REMARK    4  A    between atoms: C_9  and  C_10
REMARK    5  A    between atoms: C_10  and  N_11
REMARK    6  A    between atoms: C_12  and  C_14
REMARK    7  A    between atoms: C_25  and  C_27
REMARK                            x       y       z     vdW  Elec       q    Type
REMARK                         _______ _______ _______ _____ _____    ______ ____
ROOT
ATOM      1  C   UNL     1      10.247  -3.839   3.561  0.00  0.00    +0.100 C 
ATOM      2  C   UNL     1       9.790  -5.189   2.965  0.00  0.00    +0.121 C 
ATOM      3  N   UNL     1      10.586  -6.207   3.690  0.00  0.00    -0.296 N 
ATOM      4  C   UNL     1      10.629  -5.715   5.088  0.00  0.00    +0.115 C 
ATOM      5  C   UNL     1      10.796  -4.188   4.955  0.00  0.00    -0.004 C 
ATOM      6  C   UNL     1       9.989  -3.474   6.035  0.00  0.00    -0.010 C 
ATOM      7  C   UNL     1      10.590  -3.790   7.407  0.00  0.00    -0.082 C 
ATOM      8  N   UNL     1      11.991  -3.351   7.444  0.00  0.00    +0.379 N 
ATOM      9  C   UNL     1      12.778  -4.110   6.465  0.00  0.00    -0.082 C 
ATOM     10  C   UNL     1      12.270  -3.808   5.052  0.00  0.00    -0.010 C 
ATOM     11  C   UNL     1      11.146  -7.327   3.191  0.00  0.00    +0.249 C 
ATOM     12  O   UNL     1      11.694  -8.116   3.936  0.00  0.00    -0.270 OA
ATOM     13  H   UNL     1      12.040  -2.368   7.223  0.00  0.00    -0.086 HD
ATOM     14  H   UNL     1      12.366  -3.505   8.367  0.00  0.00    -0.086 HD
ENDROOT
BRANCH  11  15
ATOM     15  C   UNL     1      11.092  -7.596   1.740  0.00  0.00    +0.073 A 
ATOM     16  C   UNL     1       9.973  -7.215   0.996  0.00  0.00    +0.016 A 
ATOM     17  C   UNL     1       9.929  -7.468  -0.358  0.00  0.00    +0.002 A 
ATOM     18  C   UNL     1      10.991  -8.098  -0.985  0.00  0.00    +0.023 A 
ATOM     19  C   UNL     1      12.104  -8.480  -0.257  0.00  0.00    +0.077 A 
ATOM     20  C   UNL     1      12.164  -8.228   1.103  0.00  0.00    +0.154 A 
ATOM     21  F   UNL     1      13.253  -8.596   1.812  0.00  0.00    -0.203 F 
ATOM     22 CL   UNL     1      13.430  -9.270  -1.052  0.00  0.00    -0.081 Cl
ENDBRANCH  11  15
BRANCH   1  24
ATOM     23  N   UNL     1       9.276  -1.564   3.605  0.00  0.00    -0.314 N 
ATOM     24  C   UNL     1       9.078  -2.895   3.680  0.00  0.00    +0.218 C 
ATOM     25  O   UNL     1       7.959  -3.333   3.842  0.00  0.00    -0.275 OA
ATOM     26  H   UNL     1      10.171  -1.214   3.475  0.00  0.00    +0.149 HD
BRANCH  23  27
ATOM     27  C   UNL     1       8.140  -0.647   3.720  0.00  0.00    +0.115 C 
BRANCH  27  28
ATOM     28  C   UNL     1       8.635   0.796   3.603  0.00  0.00    +0.088 C 
BRANCH  28  29
ATOM     29  S   UNL     1       7.228   1.932   3.745  0.00  0.00    -0.155 S 
BRANCH  29  30
ATOM     30  C   UNL     1       7.975   3.578   3.587  0.00  0.00    +0.104 C 
BRANCH  30  34
ATOM     31  C   UNL     1       4.930   6.559   3.876  0.00  0.00    +0.000 A 
ATOM     32  C   UNL     1       5.577   6.120   5.016  0.00  0.00    +0.000 A 
ATOM     33  C   UNL     1       6.562   5.155   4.922  0.00  0.00    +0.004 A 
ATOM     34  C   UNL     1       6.900   4.629   3.689  0.00  0.00    -0.038 A 
ATOM     35  C   UNL     1       6.253   5.068   2.549  0.00  0.00    +0.004 A 
ATOM     36  C   UNL     1       5.268   6.034   2.643  0.00  0.00    +0.000 A 
ENDBRANCH  30  34
ENDBRANCH  29  30
ENDBRANCH  28  29
ENDBRANCH  27  28
ENDBRANCH  23  27
ENDBRANCH   1  24
TORSDOF 7
