REMARK  Name = ZINC52889982
REMARK  7 active torsions:
REMARK  status: ('A' for Active; 'I' for Inactive)
REMARK    1  A    between atoms: C_1  and  C_2
REMARK    2  A    between atoms: C_2  and  C_3
REMARK    3  A    between atoms: C_5  and  C_8
REMARK    4  A    between atoms: C_8  and  S_9
REMARK    5  A    between atoms: S_9  and  C_10
REMARK    6  A    between atoms: C_13  and  C_16
REMARK    7  A    between atoms: N_14  and  N_15
REMARK                            x       y       z     vdW  Elec       q    Type
REMARK                         _______ _______ _______ _____ _____    ______ ____
ROOT
ATOM      1  C   UNL     1      -5.660  -3.724  -3.064  0.00  0.00    +0.209 A 
ATOM      2  N   UNL     1      -6.545  -2.847  -3.482  0.00  0.00    -0.121 NA
ATOM      3  N   UNL     1      -7.393  -3.414  -4.263  0.00  0.00    -0.127 NA
ATOM      4  C   UNL     1      -7.102  -4.688  -4.392  0.00  0.00    +0.182 A 
ATOM      5  N   UNL     1      -5.980  -4.924  -3.632  0.00  0.00    -0.224 N 
ENDROOT
BRANCH   4   6
ATOM      6  C   UNL     1      -7.838  -5.679  -5.205  0.00  0.00    +0.022 A 
ATOM      7  C   UNL     1      -7.623  -7.045  -5.008  0.00  0.00    +0.012 A 
ATOM      8  C   UNL     1      -8.313  -7.965  -5.769  0.00  0.00    +0.002 A 
ATOM      9  C   UNL     1      -9.217  -7.539  -6.726  0.00  0.00    +0.015 A 
ATOM     10  C   UNL     1      -9.435  -6.186  -6.926  0.00  0.00    +0.019 A 
ATOM     11  C   UNL     1      -8.755  -5.255  -6.167  0.00  0.00    +0.027 A 
ATOM     12 BR   UNL     1     -10.672  -5.614  -8.236  0.00  0.00    -0.050 Br
ENDBRANCH   4   6
BRANCH   5  13
ATOM     13  N   UNL     1      -5.324  -6.112  -3.476  0.00  0.00    -0.295 N 
ATOM     14  H   UNL     1      -5.697  -6.631  -2.695  0.00  0.00    +0.163 HD
ATOM     15  H   UNL     1      -5.359  -6.659  -4.323  0.00  0.00    +0.163 HD
ENDBRANCH   5  13
BRANCH   1  16
ATOM     16  S   UNL     1      -4.308  -3.409  -1.979  0.00  0.00    -0.077 S 
BRANCH  16  17
ATOM     17  C   UNL     1      -4.453  -1.641  -1.598  0.00  0.00    +0.157 C 
BRANCH  17  20
ATOM     18  C   UNL     1      -1.412  -0.526   0.013  0.00  0.00    +0.227 A 
ATOM     19  N   UNL     1      -2.137  -0.789  -1.039  0.00  0.00    -0.195 NA
ATOM     20  C   UNL     1      -3.342  -1.235  -0.665  0.00  0.00    +0.182 A 
ATOM     21  N   UNL     1      -3.398  -1.261   0.635  0.00  0.00    -0.060 NA
ATOM     22  O   UNL     1      -2.137  -0.803   1.103  0.00  0.00    -0.338 OA
BRANCH  18  24
ATOM     23  C   UNL     1      -0.019   1.526   0.010  0.00  0.00    +0.014 C 
ATOM     24  C   UNL     1       0.002  -0.004   0.002  0.00  0.00    +0.095 C 
ENDBRANCH  18  24
ENDBRANCH  17  20
ENDBRANCH  16  17
ENDBRANCH   1  16
TORSDOF 6
