REMARK  Name = ZINC53167276
REMARK  5 active torsions:
REMARK  status: ('A' for Active; 'I' for Inactive)
REMARK    1  A    between atoms: C_1  and  N_2
REMARK    2  A    between atoms: C_7  and  C_9
REMARK    3  A    between atoms: C_9  and  N_10
REMARK    4  A    between atoms: N_10  and  C_11
REMARK    5  A    between atoms: C_12  and  N_19
REMARK                            x       y       z     vdW  Elec       q    Type
REMARK                         _______ _______ _______ _____ _____    ______ ____
ROOT
ATOM      1  N   UNL     1       2.748  -0.093  -0.318  0.00  0.00    -0.342 N 
ATOM      2  H   UNL     1       2.186  -0.485  -1.005  0.00  0.00    +0.146 HD
ENDROOT
BRANCH   1   3
ATOM      3  C   UNL     1       4.067   0.277  -0.617  0.00  0.00    +0.087 A 
ATOM      4  C   UNL     1       4.477   0.387  -1.945  0.00  0.00    +0.049 A 
ATOM      5  C   UNL     1       5.782   0.753  -2.236  0.00  0.00    +0.027 A 
ATOM      6  C   UNL     1       6.675   1.009  -1.211  0.00  0.00    +0.043 A 
ATOM      7  C   UNL     1       6.270   0.900   0.107  0.00  0.00    +0.160 A 
ATOM      8  C   UNL     1       4.965   0.540   0.407  0.00  0.00    +0.181 A 
ATOM      9  F   UNL     1       4.570   0.440   1.695  0.00  0.00    -0.200 F 
ATOM     10  F   UNL     1       7.146   1.150   1.105  0.00  0.00    -0.202 F 
BRANCH   4  11
ATOM     11  N   UNL     1       3.572   0.127  -2.983  0.00  0.00    -0.356 N 
ATOM     12  H   UNL     1       2.660  -0.130  -2.779  0.00  0.00    +0.142 HD
ATOM     13  H   UNL     1       3.859   0.204  -3.907  0.00  0.00    +0.142 HD
ENDBRANCH   4  11
ENDBRANCH   1   3
BRANCH   1  14
ATOM     14  C   UNL     1       2.219   0.110   1.033  0.00  0.00    +0.086 C 
BRANCH  14  21
ATOM     15  C   UNL     1       0.268   1.980   0.271  0.00  0.00    -0.096 C 
ATOM     16  N   UNL     1       0.028   0.550   0.034  0.00  0.00    +0.381 N 
ATOM     17  C   UNL     1      -1.413   0.280   0.098  0.00  0.00    -0.079 C 
ATOM     18  C   UNL     1      -1.675  -1.192  -0.228  0.00  0.00    -0.019 C 
ATOM     19  C   UNL     1      -0.942  -2.073   0.789  0.00  0.00    -0.003 C 
ATOM     20  C   UNL     1       0.550  -1.729   0.766  0.00  0.00    -0.014 C 
ATOM     21  C   UNL     1       0.729  -0.237   1.055  0.00  0.00    -0.052 C 
ATOM     22  H   UNL     1       0.375   0.299  -0.880  0.00  0.00    -0.082 HD
ENDBRANCH  14  21
ENDBRANCH   1  14
TORSDOF 4
