REMARK  Name = ZINC01921910
REMARK  8 active torsions:
REMARK  status: ('A' for Active; 'I' for Inactive)
REMARK    1  A    between atoms: C_1  and  C_2
REMARK    2  A    between atoms: C_2  and  O_3
REMARK    3  A    between atoms: O_3  and  C_4
REMARK    4  A    between atoms: C_4  and  C_6
REMARK    5  A    between atoms: C_7  and  C_24
REMARK    6  A    between atoms: C_10  and  N_11
REMARK    7  A    between atoms: C_12  and  C_14
REMARK    8  A    between atoms: C_28  and  N_30
REMARK                            x       y       z     vdW  Elec       q    Type
REMARK                         _______ _______ _______ _____ _____    ______ ____
ROOT
ATOM      1  C   UNL     1      -0.902   6.081  -0.889  0.00  0.00    +0.095 A 
ATOM      2  C   UNL     1      -0.090   5.326   0.047  0.00  0.00    +0.005 A 
ATOM      3  C   UNL     1       0.665   6.044   0.917  0.00  0.00    +0.056 A 
ATOM      4  S   UNL     1       0.287   7.731   0.492  0.00  0.00    -0.080 S 
ATOM      5  C   UNL     1      -0.837   7.465  -0.797  0.00  0.00    +0.087 A 
ENDROOT
BRANCH   2   6
ATOM      6  C   UNL     1      -0.081   3.844   0.050  0.00  0.00    -0.014 A 
ATOM      7  C   UNL     1      -1.283   3.137   0.073  0.00  0.00    +0.009 A 
ATOM      8  C   UNL     1      -1.268   1.757   0.069  0.00  0.00    +0.003 A 
ATOM      9  C   UNL     1      -0.064   1.075   0.052  0.00  0.00    +0.033 A 
ATOM     10  C   UNL     1       1.131   1.771   0.029  0.00  0.00    +0.127 A 
ATOM     11  C   UNL     1       1.129   3.152   0.028  0.00  0.00    +0.041 A 
BRANCH  10  12
ATOM     12  N   UNL     1       2.415   1.035   0.006  0.00  0.00    +0.056 N 
ATOM     13  O   UNL     1       2.418  -0.183   0.007  0.00  0.00    -0.126 OA
ATOM     14  O   UNL     1       3.468   1.647  -0.014  0.00  0.00    -0.126 OA
ENDBRANCH  10  12
ENDBRANCH   2   6
BRANCH   5  15
ATOM     15  N   UNL     1      -1.506   8.407  -1.559  0.00  0.00    -0.275 N 
ATOM     16  C   UNL     1      -1.312   9.721  -1.330  0.00  0.00    +0.249 C 
ATOM     17  O   UNL     1      -0.548  10.079  -0.454  0.00  0.00    -0.270 OA
ATOM     18  H   UNL     1      -2.115   8.122  -2.258  0.00  0.00    +0.156 HD
BRANCH  16  19
ATOM     19  C   UNL     1      -2.025  10.724  -2.141  0.00  0.00    +0.045 A 
ATOM     20  C   UNL     1      -2.807  10.336  -3.221  0.00  0.00    +0.014 A 
ATOM     21  C   UNL     1      -3.481  11.283  -3.981  0.00  0.00    +0.001 A 
ATOM     22  C   UNL     1      -3.397  12.614  -3.709  0.00  0.00    +0.008 A 
ATOM     23  C   UNL     1      -2.620  13.078  -2.635  0.00  0.00    -0.017 A 
ATOM     24  C   UNL     1      -1.919  12.148  -1.829  0.00  0.00    -0.006 A 
ATOM     25  C   UNL     1      -1.143  12.606  -0.758  0.00  0.00    +0.009 A 
ATOM     26  C   UNL     1      -1.071  13.943  -0.502  0.00  0.00    +0.001 A 
ATOM     27  C   UNL     1      -1.760  14.861  -1.292  0.00  0.00    +0.001 A 
ATOM     28  C   UNL     1      -2.523  14.450  -2.341  0.00  0.00    +0.008 A 
ENDBRANCH  16  19
ENDBRANCH   5  15
BRANCH   1  29
ATOM     29  C   UNL     1      -1.753   5.416  -1.876  0.00  0.00    +0.342 C 
ATOM     30  O   UNL     1      -2.903   5.136  -1.598  0.00  0.00    -0.245 OA
BRANCH  29  31
ATOM     31  O   UNL     1      -1.261   5.114  -3.095  0.00  0.00    -0.461 OA
BRANCH  31  33
ATOM     32  C   UNL     1      -1.431   4.194  -5.344  0.00  0.00    +0.048 C 
ATOM     33  C   UNL     1      -2.161   4.455  -4.024  0.00  0.00    +0.229 C 
ENDBRANCH  31  33
ENDBRANCH  29  31
ENDBRANCH   1  29
TORSDOF 7
