REMARK  Name = ZINC66080453
REMARK  8 active torsions:
REMARK  status: ('A' for Active; 'I' for Inactive)
REMARK    1  A    between atoms: C_1  and  C_2
REMARK    2  A    between atoms: C_5  and  N_9
REMARK    3  A    between atoms: C_7  and  C_8
REMARK    4  A    between atoms: N_12  and  C_15
REMARK    5  A    between atoms: C_15  and  N_16
REMARK    6  A    between atoms: C_20  and  C_23
REMARK    7  A    between atoms: C_23  and  C_24
REMARK    8  A    between atoms: C_24  and  C_25
REMARK                            x       y       z     vdW  Elec       q    Type
REMARK                         _______ _______ _______ _____ _____    ______ ____
ROOT
ATOM      1  C   UNL     1      -0.027  -7.450  -1.480  0.00  0.00    +0.073 C 
ENDROOT
BRANCH   1   2
ATOM      2  N   UNL     1       1.315  -8.039  -1.577  0.00  0.00    +0.393 N 
ATOM      3  C   UNL     1       1.751  -8.480  -0.246  0.00  0.00    -0.076 C 
ATOM      4  C   UNL     1       3.180  -9.020  -0.326  0.00  0.00    -0.018 C 
ATOM      5  C   UNL     1       3.219 -10.204  -1.296  0.00  0.00    -0.000 C 
ATOM      6  C   UNL     1       2.693  -9.751  -2.661  0.00  0.00    -0.027 C 
ATOM      7  C   UNL     1       1.281  -9.184  -2.494  0.00  0.00    -0.073 C 
ATOM      8  H   UNL     1       1.960  -7.347  -1.927  0.00  0.00    -0.079 HD
BRANCH   6   9
ATOM      9  C   UNL     1       2.655 -10.945  -3.616  0.00  0.00    +0.011 C 
BRANCH   9  10
ATOM     10  C   UNL     1       4.080 -11.436  -3.876  0.00  0.00    +0.096 C 
BRANCH  10  11
ATOM     11  C   UNL     1       4.043 -12.613  -4.817  0.00  0.00    +0.210 C 
ATOM     12  O   UNL     1       2.981 -13.018  -5.239  0.00  0.00    -0.276 OA
ATOM     13  N   UNL     1       5.190 -13.214  -5.190  0.00  0.00    -0.329 N 
ATOM     14  H   UNL     1       6.040 -12.889  -4.853  0.00  0.00    +0.145 HD
ATOM     15  H   UNL     1       5.166 -13.971  -5.795  0.00  0.00    +0.145 HD
ENDBRANCH  10  11
ENDBRANCH   9  10
ENDBRANCH   6   9
ENDBRANCH   1   2
BRANCH   1  19
ATOM     16  N   UNL     1       0.057  -4.171  -0.021  0.00  0.00    -0.189 N 
ATOM     17  C   UNL     1      -0.028  -4.965  -1.110  0.00  0.00    +0.199 A 
ATOM     18  S   UNL     1      -0.177  -4.459  -2.739  0.00  0.00    -0.010 S 
ATOM     19  N   UNL     1       0.029  -6.237  -0.660  0.00  0.00    -0.238 N 
ATOM     20  N   UNL     1       0.150  -6.185   0.734  0.00  0.00    -0.046 NA
ATOM     21  N   UNL     1       0.173  -5.004   1.099  0.00  0.00    -0.040 NA
BRANCH  16  26
ATOM     22  C   UNL     1      -0.017   1.503   0.012  0.00  0.00    +0.044 C 
ATOM     23  C   UNL     1       0.003  -0.004   0.003  0.00  0.00    -0.047 A 
ATOM     24  C   UNL     1      -0.942  -0.702  -0.727  0.00  0.00    +0.006 A 
ATOM     25  C   UNL     1      -0.926  -2.083  -0.737  0.00  0.00    +0.028 A 
ATOM     26  C   UNL     1       0.039  -2.771  -0.013  0.00  0.00    +0.070 A 
ATOM     27  C   UNL     1       0.986  -2.067   0.719  0.00  0.00    +0.031 A 
ATOM     28  C   UNL     1       0.969  -0.685   0.720  0.00  0.00    -0.046 A 
ATOM     29  C   UNL     1       2.000   0.080   1.510  0.00  0.00    +0.044 C 
ENDBRANCH  16  26
ENDBRANCH   1  19
TORSDOF 6
