REMARK  Name = ZINC11690724
REMARK  9 active torsions:
REMARK  status: ('A' for Active; 'I' for Inactive)
REMARK    1  A    between atoms: C_1  and  C_2
REMARK    2  A    between atoms: C_2  and  O_3
REMARK    3  A    between atoms: O_3  and  C_4
REMARK    4  A    between atoms: C_4  and  C_6
REMARK    5  A    between atoms: C_12  and  C_19
REMARK    6  A    between atoms: N_20  and  C_32
REMARK    7  A    between atoms: N_22  and  C_23
REMARK    8  A    between atoms: C_23  and  C_25
REMARK    9  A    between atoms: C_32  and  C_33
REMARK                            x       y       z     vdW  Elec       q    Type
REMARK                         _______ _______ _______ _____ _____    ______ ____
ROOT
ATOM      1  C   UNL     1      -2.771   7.969  -0.251  0.00  0.00    +0.100 A 
ATOM      2  C   UNL     1      -1.474   7.469  -0.373  0.00  0.00    +0.035 A 
ATOM      3  C   UNL     1      -1.275   6.087  -0.334  0.00  0.00    +0.083 A 
ATOM      4  C   UNL     1      -2.377   5.211  -0.173  0.00  0.00    +0.150 A 
ATOM      5  N   UNL     1      -2.163   3.905  -0.140  0.00  0.00    -0.211 NA
ATOM      6  C   UNL     1      -0.943   3.379  -0.254  0.00  0.00    +0.145 A 
ATOM      7  C   UNL     1      -0.807   1.978  -0.213  0.00  0.00    -0.007 A 
ATOM      8  C   UNL     1       0.431   1.418  -0.321  0.00  0.00    +0.008 A 
ATOM      9  C   UNL     1       1.552   2.243  -0.482  0.00  0.00    +0.019 A 
ATOM     10  C   UNL     1       1.404   3.587  -0.524  0.00  0.00    +0.096 A 
ATOM     11  N   UNL     1       0.171   4.156  -0.411  0.00  0.00    -0.267 N 
ATOM     12  C   UNL     1       0.062   5.504  -0.458  0.00  0.00    +0.268 A 
ATOM     13  O   UNL     1       1.044   6.210  -0.599  0.00  0.00    -0.267 OA
ATOM     14  C   UNL     1      -2.022   1.104  -0.047  0.00  0.00    +0.047 C 
ATOM     15  N   UNL     1      -3.644   5.722  -0.054  0.00  0.00    -0.309 N 
ATOM     16  C   UNL     1      -3.856   7.072  -0.090  0.00  0.00    +0.142 A 
ATOM     17  N   UNL     1      -5.093   7.548   0.027  0.00  0.00    -0.158 NA
ENDROOT
BRANCH   1  18
ATOM     18  C   UNL     1      -3.010   9.418  -0.287  0.00  0.00    +0.343 C 
ATOM     19  O   UNL     1      -4.141   9.850  -0.180  0.00  0.00    -0.245 OA
BRANCH  18  20
ATOM     20  O   UNL     1      -1.975  10.268  -0.439  0.00  0.00    -0.461 OA
BRANCH  20  22
ATOM     21  C   UNL     1      -0.994  12.488  -0.645  0.00  0.00    +0.048 C 
ATOM     22  C   UNL     1      -2.285  11.686  -0.467  0.00  0.00    +0.229 C 
ENDBRANCH  20  22
ENDBRANCH  18  20
ENDBRANCH   1  18
BRANCH  17  23
ATOM     23  C   UNL     1      -6.042   6.807   0.608  0.00  0.00    +0.269 C 
ATOM     24  O   UNL     1      -5.874   6.376   1.735  0.00  0.00    -0.268 OA
BRANCH  23  25
ATOM     25  C   UNL     1      -7.298   6.511  -0.119  0.00  0.00    +0.039 A 
ATOM     26  C   UNL     1      -7.453   6.919  -1.444  0.00  0.00    +0.014 A 
ATOM     27  C   UNL     1      -8.623   6.636  -2.118  0.00  0.00    +0.021 A 
ATOM     28  C   UNL     1      -9.646   5.957  -1.478  0.00  0.00    +0.041 A 
ATOM     29  C   UNL     1      -9.500   5.554  -0.161  0.00  0.00    +0.021 A 
ATOM     30  C   UNL     1      -8.332   5.827   0.520  0.00  0.00    +0.014 A 
ATOM     31 CL   UNL     1     -11.119   5.610  -2.330  0.00  0.00    -0.084 Cl
ENDBRANCH  23  25
ENDBRANCH  17  23
BRANCH  15  32
ATOM     32  C   UNL     1      -4.780   4.812   0.112  0.00  0.00    +0.156 C 
BRANCH  32  33
ATOM     33  C   UNL     1      -4.441   3.454  -0.506  0.00  0.00    +0.138 C 
ATOM     34  C   UNL     1      -5.696   2.546  -0.530  0.00  0.00    +0.035 C 
ATOM     35  C   UNL     1      -5.342   1.587  -1.701  0.00  0.00    +0.031 C 
ATOM     36  C   UNL     1      -4.553   2.509  -2.655  0.00  0.00    +0.160 C 
ATOM     37  O   UNL     1      -4.064   3.613  -1.883  0.00  0.00    -0.375 OA
ENDBRANCH  32  33
ENDBRANCH  15  32
TORSDOF 7
