REMARK  Name = ZINC00447642
REMARK  6 active torsions:
REMARK  status: ('A' for Active; 'I' for Inactive)
REMARK    1  A    between atoms: C_1  and  C_2
REMARK    2  A    between atoms: C_3  and  C_11
REMARK    3  A    between atoms: C_7  and  N_8
REMARK    4  A    between atoms: N_13  and  C_14
REMARK    5  A    between atoms: C_19  and  N_20
REMARK    6  A    between atoms: C_21  and  C_23
REMARK                            x       y       z     vdW  Elec       q    Type
REMARK                         _______ _______ _______ _____ _____    ______ ____
ROOT
ATOM      1  C   UNL     1      -4.792   4.021   0.139  0.00  0.00    +0.249 C 
ATOM      2  O   UNL     1      -5.886   3.495   0.063  0.00  0.00    -0.270 OA
ATOM      3  N   UNL     1      -3.680   3.260   0.185  0.00  0.00    -0.280 N 
ATOM      4  H   UNL     1      -2.805   3.679   0.174  0.00  0.00    +0.155 HD
ENDROOT
BRANCH   1   7
ATOM      5  C   UNL     1      -7.192   5.637   0.087  0.00  0.00    +0.047 C 
ATOM      6  C   UNL     1      -5.833   6.284   0.156  0.00  0.00    -0.008 A 
ATOM      7  C   UNL     1      -4.682   5.494   0.180  0.00  0.00    +0.042 A 
ATOM      8  C   UNL     1      -3.427   6.102   0.237  0.00  0.00    +0.013 A 
ATOM      9  C   UNL     1      -3.331   7.478   0.276  0.00  0.00    +0.003 A 
ATOM     10  C   UNL     1      -4.476   8.254   0.257  0.00  0.00    +0.033 A 
ATOM     11  C   UNL     1      -5.723   7.658   0.200  0.00  0.00    +0.130 A 
BRANCH  11  12
ATOM     12  N   UNL     1      -6.942   8.497   0.180  0.00  0.00    +0.057 N 
ATOM     13  O   UNL     1      -6.847   9.707   0.073  0.00  0.00    -0.126 OA
ATOM     14  O   UNL     1      -8.040   7.978   0.270  0.00  0.00    -0.126 OA
ENDBRANCH  11  12
ENDBRANCH   1   7
BRANCH   3  15
ATOM     15  C   UNL     1      -3.788   1.866   0.247  0.00  0.00    +0.055 A 
ATOM     16  C   UNL     1      -4.834   1.219  -0.395  0.00  0.00    +0.025 A 
ATOM     17  C   UNL     1      -4.939  -0.157  -0.331  0.00  0.00    +0.002 A 
ATOM     18  C   UNL     1      -4.003  -0.894   0.372  0.00  0.00    +0.002 A 
ATOM     19  C   UNL     1      -2.955  -0.259   1.011  0.00  0.00    +0.025 A 
ATOM     20  C   UNL     1      -2.845   1.123   0.956  0.00  0.00    +0.055 A 
BRANCH  20  21
ATOM     21  N   UNL     1      -1.786   1.769   1.607  0.00  0.00    -0.284 N 
ATOM     22  C   UNL     1      -0.582   1.169   1.695  0.00  0.00    +0.214 C 
ATOM     23  O   UNL     1      -0.439   0.035   1.289  0.00  0.00    -0.276 OA
ATOM     24  C   UNL     1       0.587   1.909   2.292  0.00  0.00    +0.109 C 
ATOM     25  H   UNL     1      -1.919   2.648   1.994  0.00  0.00    +0.155 HD
ENDBRANCH  20  21
ENDBRANCH   3  15
TORSDOF 4
