REMARK  Name = ZINC04817816
REMARK  9 active torsions:
REMARK  status: ('A' for Active; 'I' for Inactive)
REMARK    1  A    between atoms: C_1  and  C_2
REMARK    2  A    between atoms: C_9  and  C_26
REMARK    3  A    between atoms: C_9  and  O_27
REMARK    4  A    between atoms: C_10  and  C_23
REMARK    5  A    between atoms: C_12  and  C_14
REMARK    6  A    between atoms: C_17  and  C_20
REMARK    7  A    between atoms: C_20  and  C_21
REMARK    8  A    between atoms: C_20  and  C_22
REMARK    9  A    between atoms: C_23  and  C_25
REMARK                            x       y       z     vdW  Elec       q    Type
REMARK                         _______ _______ _______ _____ _____    ______ ____
ROOT
ATOM      1  C   UNL     1      -0.534   1.428  -2.972  0.00  0.00    +0.065 C 
ATOM      2  C   UNL     1      -1.087   2.734  -2.462  0.00  0.00    +0.037 A 
ATOM      3  C   UNL     1      -1.422   3.012  -1.189  0.00  0.00    +0.004 A 
ATOM      4  C   UNL     1      -1.895   4.334  -1.142  0.00  0.00    +0.070 A 
ATOM      5  N   UNL     1      -1.841   4.828  -2.345  0.00  0.00    -0.178 NA
ATOM      6  N   UNL     1      -1.334   3.839  -3.201  0.00  0.00    -0.281 N 
ATOM      7  H   UNL     1      -1.183   3.934  -4.185  0.00  0.00    +0.189 HD
ATOM      8  C   UNL     1      -2.371   5.004   0.124  0.00  0.00    +0.092 C 
ATOM      9  C   UNL     1      -2.639   3.916   1.170  0.00  0.00    +0.079 C 
ATOM     10  C   UNL     1      -1.425   2.990   1.276  0.00  0.00    +0.098 C 
ATOM     11  C   UNL     1      -1.332   2.114   0.020  0.00  0.00    +0.065 C 
ATOM     12  C   UNL     1      -2.899   4.569   2.529  0.00  0.00    +0.042 C 
ENDROOT
BRANCH  11  13
ATOM     13  C   UNL     1      -0.017   1.378   0.010  0.00  0.00    -0.039 A 
ATOM     14  C   UNL     1       1.171   2.086   0.002  0.00  0.00    +0.004 A 
ATOM     15  C   UNL     1       2.377   1.411  -0.015  0.00  0.00    +0.004 A 
ATOM     16  C   UNL     1       2.396   0.029  -0.022  0.00  0.00    -0.045 A 
ATOM     17  C   UNL     1       1.208  -0.679  -0.013  0.00  0.00    +0.004 A 
ATOM     18  C   UNL     1       0.002  -0.004   0.002  0.00  0.00    +0.004 A 
BRANCH  16  19
ATOM     19  C   UNL     1       3.711  -0.707  -0.038  0.00  0.00    +0.013 C 
ATOM     20  C   UNL     1       4.496  -0.321  -1.294  0.00  0.00    +0.012 C 
ATOM     21  C   UNL     1       4.521  -0.333   1.205  0.00  0.00    +0.012 C 
ENDBRANCH  16  19
ENDBRANCH  11  13
BRANCH  10  22
ATOM     22  C   UNL     1      -1.569   2.110   2.491  0.00  0.00    +0.137 C 
ATOM     23  O   UNL     1      -2.038   1.002   2.382  0.00  0.00    -0.297 OA
ATOM     24  C   UNL     1      -1.129   2.613   3.841  0.00  0.00    +0.086 C 
ENDBRANCH  10  22
BRANCH   9  25
ATOM     25  O   UNL     1      -3.785   3.155   0.783  0.00  0.00    -0.388 OA
ATOM     26  H   UNL     1      -4.593   3.678   0.696  0.00  0.00    +0.210 HD
ENDBRANCH   9  25
TORSDOF 4
