REMARK  Name = ZINC04518115
REMARK  7 active torsions:
REMARK  status: ('A' for Active; 'I' for Inactive)
REMARK    1  A    between atoms: C_1  and  C_2
REMARK    2  A    between atoms: C_5  and  N_8
REMARK    3  A    between atoms: N_8  and  C_9
REMARK    4  A    between atoms: C_9  and  C_10
REMARK    5  A    between atoms: N_22  and  C_23
REMARK    6  A    between atoms: C_27  and  O_29
REMARK    7  A    between atoms: O_29  and  C_30
REMARK                            x       y       z     vdW  Elec       q    Type
REMARK                         _______ _______ _______ _____ _____    ______ ____
ROOT
ATOM      1  N   UNL     1      -6.748   1.780   4.904  0.00  0.00    -0.248 N 
ATOM      2  C   UNL     1      -6.243   1.645   3.662  0.00  0.00    +0.311 C 
ATOM      3  O   UNL     1      -6.812   0.943   2.848  0.00  0.00    -0.252 OA
ATOM      4  N   UNL     1      -5.108   2.287   3.322  0.00  0.00    -0.269 N 
ATOM      5  H   UNL     1      -4.614   2.787   3.991  0.00  0.00    +0.156 HD
ENDROOT
BRANCH   1  10
ATOM      6  C   UNL     1      -4.361   5.405   8.557  0.00  0.00    +0.044 C 
ATOM      7  C   UNL     1      -4.995   4.442   7.587  0.00  0.00    -0.050 A 
ATOM      8  C   UNL     1      -6.045   4.858   6.788  0.00  0.00    +0.005 A 
ATOM      9  C   UNL     1      -6.628   3.978   5.898  0.00  0.00    +0.024 A 
ATOM     10  C   UNL     1      -6.159   2.674   5.805  0.00  0.00    +0.038 A 
ATOM     11  C   UNL     1      -5.109   2.258   6.612  0.00  0.00    +0.024 A 
ATOM     12  C   UNL     1      -4.526   3.145   7.497  0.00  0.00    +0.005 A 
ENDBRANCH   1  10
BRANCH   4  13
ATOM     13  C   UNL     1      -4.642   2.234   2.004  0.00  0.00    +0.038 A 
ATOM     14  C   UNL     1      -4.825   1.083   1.247  0.00  0.00    +0.023 A 
ATOM     15  C   UNL     1      -4.365   1.031  -0.054  0.00  0.00    +0.005 A 
ATOM     16  C   UNL     1      -3.727   2.124  -0.609  0.00  0.00    +0.046 A 
ATOM     17  C   UNL     1      -3.535   3.274   0.144  0.00  0.00    +0.122 A 
ATOM     18  C   UNL     1      -3.996   3.330   1.451  0.00  0.00    +0.069 A 
BRANCH  17  19
ATOM     19  O   UNL     1      -2.902   4.346  -0.401  0.00  0.00    -0.495 OA
ATOM     20  C   UNL     1      -2.455   4.217  -1.752  0.00  0.00    +0.277 C 
ENDBRANCH  17  19
ENDBRANCH   4  13
BRANCH   1  21
ATOM     21  C   UNL     1      -7.913   0.991   5.311  0.00  0.00    +0.191 C 
BRANCH  21  22
ATOM     22  C   UNL     1      -7.452  -0.312   5.913  0.00  0.00    +0.151 A 
ATOM     23  N   UNL     1      -7.187  -0.534   7.173  0.00  0.00    -0.133 NA
ATOM     24  N   UNL     1      -6.825  -1.760   7.331  0.00  0.00    -0.134 NA
ATOM     25  C   UNL     1      -6.848  -2.372   6.182  0.00  0.00    +0.133 A 
ATOM     26  N   UNL     1      -7.241  -1.471   5.251  0.00  0.00    -0.313 N 
ATOM     27  C   UNL     1      -7.389  -1.710   3.815  0.00  0.00    +0.125 C 
ATOM     28  C   UNL     1      -7.730  -3.184   3.578  0.00  0.00    +0.022 C 
ATOM     29  C   UNL     1      -6.443  -3.993   3.425  0.00  0.00    +0.002 C 
ATOM     30  C   UNL     1      -5.604  -3.910   4.697  0.00  0.00    +0.008 C 
ATOM     31  C   UNL     1      -6.520  -3.818   5.914  0.00  0.00    +0.076 C 
ENDBRANCH  21  22
ENDBRANCH   1  21
TORSDOF 5
