REMARK  Name = ZINC20785008
REMARK  5 active torsions:
REMARK  status: ('A' for Active; 'I' for Inactive)
REMARK    1  A    between atoms: C_4  and  C_7
REMARK    2  A    between atoms: C_8  and  C_18
REMARK    3  A    between atoms: N_10  and  C_12
REMARK    4  A    between atoms: N_19  and  N_20
REMARK    5  A    between atoms: C_21  and  C_23
REMARK                            x       y       z     vdW  Elec       q    Type
REMARK                         _______ _______ _______ _____ _____    ______ ____
ROOT
ATOM      1  C   UNL     1      -1.979  12.400  -0.682  0.00  0.00    +0.102 A 
ATOM      2  C   UNL     1      -3.101  11.700  -0.050  0.00  0.00    +0.040 A 
ATOM      3  C   UNL     1      -4.087  12.630   0.137  0.00  0.00    +0.124 A 
ATOM      4  N   UNL     1      -3.635  13.815  -0.322  0.00  0.00    -0.239 N 
ATOM      5  N   UNL     1      -2.340  13.657  -0.826  0.00  0.00    -0.166 NA
ENDROOT
BRANCH   1   9
ATOM      6  C   UNL     1       1.738  10.689  -1.832  0.00  0.00    +0.000 A 
ATOM      7  C   UNL     1       0.558  10.025  -2.113  0.00  0.00    +0.001 A 
ATOM      8  C   UNL     1      -0.652  10.575  -1.742  0.00  0.00    +0.010 A 
ATOM      9  C   UNL     1      -0.683  11.803  -1.083  0.00  0.00    +0.003 A 
ATOM     10  C   UNL     1       0.509  12.471  -0.807  0.00  0.00    +0.010 A 
ATOM     11  C   UNL     1       1.714  11.908  -1.178  0.00  0.00    +0.001 A 
ENDBRANCH   1   9
BRANCH   4  12
ATOM     12  C   UNL     1      -4.353  15.018  -0.304  0.00  0.00    +0.065 A 
ATOM     13  C   UNL     1      -5.640  15.051   0.218  0.00  0.00    +0.028 A 
ATOM     14  C   UNL     1      -6.344  16.239   0.240  0.00  0.00    +0.002 A 
ATOM     15  C   UNL     1      -5.773  17.392  -0.267  0.00  0.00    +0.000 A 
ATOM     16  C   UNL     1      -4.494  17.361  -0.793  0.00  0.00    +0.002 A 
ATOM     17  C   UNL     1      -3.783  16.177  -0.813  0.00  0.00    +0.028 A 
ENDBRANCH   4  12
BRANCH   2  18
ATOM     18  C   UNL     1      -3.159  10.272   0.309  0.00  0.00    +0.142 C 
ATOM     19  N   UNL     1      -2.107   9.525   0.170  0.00  0.00    -0.188 NA
BRANCH  19  20
ATOM     20  N   UNL     1      -2.162   8.167   0.511  0.00  0.00    -0.204 N 
ATOM     21  C   UNL     1      -1.070   7.391   0.367  0.00  0.00    +0.276 C 
ATOM     22  O   UNL     1      -0.038   7.869  -0.059  0.00  0.00    -0.270 OA
ATOM     23  H   UNL     1      -3.097   7.734   0.896  0.00  0.00    +0.177 HD
BRANCH  21  24
ATOM     24  C   UNL     1      -1.129   5.931   0.733  0.00  0.00    +0.297 C 
ATOM     25  C   UNL     1      -2.103   5.202  -0.201  0.00  0.00    +0.283 C 
ATOM     26  O   UNL     1      -2.125   3.818   0.165  0.00  0.00    -0.484 OA
ATOM     27  C   UNL     1      -0.919   3.221   0.370  0.00  0.00    +0.162 A 
ATOM     28  C   UNL     1      -0.835   1.836   0.363  0.00  0.00    +0.049 A 
ATOM     29  C   UNL     1       0.381   1.215   0.579  0.00  0.00    +0.004 A 
ATOM     30  C   UNL     1       1.518   1.972   0.791  0.00  0.00    +0.004 A 
ATOM     31  C   UNL     1       1.442   3.352   0.793  0.00  0.00    +0.049 A 
ATOM     32  C   UNL     1       0.225   3.982   0.581  0.00  0.00    +0.163 A 
ATOM     33  O   UNL     1       0.167   5.341   0.579  0.00  0.00    -0.472 OA
ENDBRANCH  21  24
ENDBRANCH  19  20
ENDBRANCH   2  18
TORSDOF 5
