REMARK  Name = ZINC31505731
REMARK  5 active torsions:
REMARK  status: ('A' for Active; 'I' for Inactive)
REMARK    1  A    between atoms: C_9  and  C_10
REMARK    2  A    between atoms: C_16  and  C_18
REMARK    3  A    between atoms: C_18  and  C_19
REMARK    4  A    between atoms: C_19  and  N_20
REMARK    5  A    between atoms: N_23  and  C_24
REMARK                            x       y       z     vdW  Elec       q    Type
REMARK                         _______ _______ _______ _____ _____    ______ ____
ROOT
ATOM      1  C   UNL     1       4.758   0.769  -0.039  0.00  0.00    +0.114 C 
ENDROOT
BRANCH   1   7
ATOM      2  C   UNL     1       8.560   1.507  -0.077  0.00  0.00    +0.144 C 
ATOM      3  C   UNL     1       9.600   0.367  -0.116  0.00  0.00    +0.032 C 
ATOM      4  C   UNL     1       8.790  -0.820  -0.700  0.00  0.00    +0.021 C 
ATOM      5  C   UNL     1       7.394  -0.583  -0.072  0.00  0.00    +0.108 C 
ATOM      6  N   UNL     1       7.229   0.882  -0.062  0.00  0.00    -0.291 N 
ATOM      7  C   UNL     1       6.053   1.540  -0.048  0.00  0.00    +0.218 C 
ATOM      8  O   UNL     1       6.036   2.753  -0.041  0.00  0.00    -0.276 OA
BRANCH   2  17
ATOM      9  C   UNL     1      10.212   6.056   2.006  0.00  0.00    +0.005 A 
ATOM     10  C   UNL     1      10.216   5.669   0.655  0.00  0.00    +0.018 A 
ATOM     11  C   UNL     1       9.752   4.455   0.292  0.00  0.00    +0.094 A 
ATOM     12  N   UNL     1       9.273   3.588   1.229  0.00  0.00    -0.285 N 
ATOM     13  C   UNL     1       9.256   3.938   2.557  0.00  0.00    +0.161 A 
ATOM     14  C   UNL     1       9.737   5.201   2.952  0.00  0.00    +0.048 A 
ATOM     15  N   UNL     1       8.744   2.912   3.217  0.00  0.00    -0.129 NA
ATOM     16  N   UNL     1       8.447   1.973   2.389  0.00  0.00    -0.132 NA
ATOM     17  C   UNL     1       8.753   2.332   1.169  0.00  0.00    +0.158 A 
ENDBRANCH   2  17
ENDBRANCH   1   7
BRANCH   1  18
ATOM     18  C   UNL     1       3.582   1.747  -0.023  0.00  0.00    +0.115 C 
BRANCH  18  19
ATOM     19  N   UNL     1       2.323   0.998  -0.015  0.00  0.00    -0.299 N 
ATOM     20  C   UNL     1       1.147   1.655   0.000  0.00  0.00    +0.300 C 
ATOM     21  O   UNL     1       1.130   2.871   0.007  0.00  0.00    -0.253 OA
ATOM     22  N   UNL     1      -0.011   0.966   0.007  0.00  0.00    -0.294 N 
ATOM     23  H   UNL     1       2.338  -0.102  -0.021  0.00  0.00    +0.150 HD
ATOM     24  H   UNL     1       0.004  -0.134   0.006  0.00  0.00    +0.151 HD
BRANCH  22  25
ATOM     25  C   UNL     1      -1.290   1.681   0.017  0.00  0.00    +0.037 C 
ATOM     26  C   UNL     1      -1.389   2.566  -1.227  0.00  0.00    +0.029 C 
ATOM     27  C   UNL     1      -2.724   3.313  -1.216  0.00  0.00    -0.008 C 
ATOM     28  C   UNL     1      -3.873   2.303  -1.216  0.00  0.00    +0.007 C 
ATOM     29  C   UNL     1      -3.774   1.418   0.028  0.00  0.00    -0.008 C 
ATOM     30  C   UNL     1      -2.439   0.671   0.017  0.00  0.00    +0.029 C 
ATOM     31  C   UNL     1      -3.861   2.290   1.282  0.00  0.00    +0.007 C 
ATOM     32  C   UNL     1      -2.712   3.300   1.282  0.00  0.00    -0.008 C 
ATOM     33  C   UNL     1      -2.811   4.185   0.038  0.00  0.00    +0.007 C 
ATOM     34  C   UNL     1      -1.377   2.553   1.272  0.00  0.00    +0.029 C 
ENDBRANCH  22  25
ENDBRANCH  18  19
ENDBRANCH   1  18
TORSDOF 5
