REMARK  Name = ZINC63137647
REMARK  11 active torsions:
REMARK  status: ('A' for Active; 'I' for Inactive)
REMARK    1  A    between atoms: C_1  and  N_2
REMARK    2  A    between atoms: N_2  and  C_3
REMARK    3  A    between atoms: N_2  and  C_4
REMARK    4  A    between atoms: C_4  and  C_5
REMARK    5  A    between atoms: C_5  and  C_6
REMARK    6  A    between atoms: C_6  and  N_7
REMARK    7  A    between atoms: C_27  and  C_29
REMARK    8  A    between atoms: C_31  and  O_37
REMARK    9  A    between atoms: C_34  and  O_35
REMARK   10  A    between atoms: O_35  and  C_36
REMARK   11  A    between atoms: O_37  and  C_38
REMARK                            x       y       z     vdW  Elec       q    Type
REMARK                         _______ _______ _______ _____ _____    ______ ____
ROOT
ATOM      1  N   UNL     1      -0.492  -0.480   4.744  0.00  0.00    -0.291 N 
ATOM      2  C   UNL     1      -0.038   0.777   5.312  0.00  0.00    +0.203 C 
ATOM      3  C   UNL     1      -0.736   1.103   6.591  0.00  0.00    +0.234 C 
ATOM      4  O   UNL     1      -0.431   2.134   7.153  0.00  0.00    -0.274 OA
ATOM      5  N   UNL     1      -1.676   0.340   7.162  0.00  0.00    -0.279 N 
ATOM      6  C   UNL     1      -2.139  -0.912   6.571  0.00  0.00    +0.167 C 
ATOM      7  C   UNL     1      -1.436  -1.241   5.296  0.00  0.00    +0.237 C 
ATOM      8  O   UNL     1      -1.741  -2.269   4.729  0.00  0.00    -0.274 OA
ATOM      9  C   UNL     1      -3.657  -0.843   6.319  0.00  0.00    +0.065 C 
ATOM     10  C   UNL     1      -4.276  -0.277   7.573  0.00  0.00    -0.034 C 
ATOM     11  C   UNL     1      -5.279  -0.703   8.329  0.00  0.00    -0.001 A 
ATOM     12  C   UNL     1      -6.226  -1.818   8.163  0.00  0.00    +0.010 A 
ATOM     13  C   UNL     1      -7.134  -1.987   9.161  0.00  0.00    +0.001 A 
ATOM     14  C   UNL     1      -7.194  -1.168  10.293  0.00  0.00    +0.002 A 
ATOM     15  C   UNL     1      -6.370  -0.115  10.522  0.00  0.00    +0.026 A 
ATOM     16  C   UNL     1      -5.378   0.168   9.539  0.00  0.00    +0.043 A 
ATOM     17  N   UNL     1      -4.487   1.114   9.492  0.00  0.00    -0.375 N 
ATOM     18  C   UNL     1      -3.758   0.999   8.228  0.00  0.00    +0.131 C 
ATOM     19  C   UNL     1      -2.256   0.800   8.443  0.00  0.00    +0.137 C 
ATOM     20  H   UNL     1      -4.331   1.782  10.177  0.00  0.00    +0.160 HD
ENDROOT
BRANCH  19  21
ATOM     21  C   UNL     1      -2.026  -0.239   9.511  0.00  0.00    +0.020 A 
ATOM     22  C   UNL     1      -2.501  -1.524   9.337  0.00  0.00    +0.054 A 
ATOM     23  C   UNL     1      -2.289  -2.481  10.319  0.00  0.00    +0.121 A 
ATOM     24  C   UNL     1      -1.599  -2.146  11.475  0.00  0.00    +0.049 A 
ATOM     25  C   UNL     1      -1.124  -0.861  11.649  0.00  0.00    +0.049 A 
ATOM     26  C   UNL     1      -1.332   0.094  10.664  0.00  0.00    +0.125 A 
BRANCH  26  27
ATOM     27  O   UNL     1      -0.859   1.358  10.832  0.00  0.00    -0.495 OA
ATOM     28  C   UNL     1      -0.153   1.630  12.045  0.00  0.00    +0.277 C 
ENDBRANCH  26  27
BRANCH  23  29
ATOM     29  O   UNL     1      -2.757  -3.746  10.149  0.00  0.00    -0.495 OA
ATOM     30  C   UNL     1      -2.503  -4.679  11.200  0.00  0.00    +0.277 C 
ENDBRANCH  23  29
ENDBRANCH  19  21
BRANCH   1  31
ATOM     31  C   UNL     1       0.117  -0.934   3.491  0.00  0.00    +0.106 C 
BRANCH  31  32
ATOM     32  C   UNL     1      -0.680  -0.383   2.307  0.00  0.00    +0.000 C 
BRANCH  32  33
ATOM     33  C   UNL     1      -0.043  -0.857   0.999  0.00  0.00    -0.078 C 
BRANCH  33  35
ATOM     34  C   UNL     1      -0.701   1.138  -0.161  0.00  0.00    -0.097 C 
ATOM     35  N   UNL     1      -0.809  -0.327  -0.138  0.00  0.00    +0.376 N 
ATOM     36  C   UNL     1      -0.271  -0.878  -1.389  0.00  0.00    -0.097 C 
ATOM     37  H   UNL     1      -1.778  -0.592  -0.043  0.00  0.00    -0.083 HD
ENDBRANCH  33  35
ENDBRANCH  32  33
ENDBRANCH  31  32
ENDBRANCH   1  31
TORSDOF 7
