REMARK  Name = ZINC19164867
REMARK  10 active torsions:
REMARK  status: ('A' for Active; 'I' for Inactive)
REMARK    1  A    between atoms: C_1  and  C_2
REMARK    2  A    between atoms: C_3  and  N_11
REMARK    3  A    between atoms: C_7  and  N_8
REMARK    4  A    between atoms: C_12  and  C_14
REMARK    5  A    between atoms: N_20  and  C_31
REMARK    6  A    between atoms: C_21  and  C_23
REMARK    7  A    between atoms: C_28  and  O_29
REMARK    8  A    between atoms: O_29  and  C_30
REMARK    9  A    between atoms: C_34  and  O_37
REMARK   10  A    between atoms: O_37  and  C_38
REMARK                            x       y       z     vdW  Elec       q    Type
REMARK                         _______ _______ _______ _____ _____    ______ ____
ROOT
ATOM      1  C   UNL     1      -2.766  -2.883  -0.209  0.00  0.00    +0.101 C 
ATOM      2  C   UNL     1      -2.985  -2.265  -1.596  0.00  0.00    +0.024 C 
ATOM      3  C   UNL     1      -4.430  -2.536  -2.023  0.00  0.00    +0.097 C 
ATOM      4  C   UNL     1      -4.758  -3.987  -1.823  0.00  0.00    +0.220 C 
ATOM      5  O   UNL     1      -5.725  -4.441  -2.398  0.00  0.00    -0.275 OA
ATOM      6  N   UNL     1      -4.045  -4.803  -1.047  0.00  0.00    -0.263 N 
ATOM      7  C   UNL     1      -2.837  -4.406  -0.332  0.00  0.00    +0.127 C 
ENDROOT
BRANCH   7   8
ATOM      8  C   UNL     1      -2.846  -5.016   1.046  0.00  0.00    +0.016 A 
ATOM      9  C   UNL     1      -4.013  -5.038   1.785  0.00  0.00    +0.009 A 
ATOM     10  C   UNL     1      -4.021  -5.599   3.049  0.00  0.00    +0.001 A 
ATOM     11  C   UNL     1      -2.863  -6.139   3.576  0.00  0.00    +0.004 A 
ATOM     12  C   UNL     1      -1.693  -6.119   2.841  0.00  0.00    +0.046 A 
ATOM     13  C   UNL     1      -1.684  -5.562   1.570  0.00  0.00    +0.125 A 
BRANCH  13  14
ATOM     14  O   UNL     1      -0.536  -5.547   0.843  0.00  0.00    -0.495 OA
ATOM     15  C   UNL     1       0.622  -6.127   1.446  0.00  0.00    +0.277 C 
ENDBRANCH  13  14
ENDBRANCH   7   8
BRANCH   6  16
ATOM     16  C   UNL     1      -4.484  -6.127  -0.906  0.00  0.00    +0.037 A 
ATOM     17  C   UNL     1      -5.599  -6.409  -0.129  0.00  0.00    +0.027 A 
ATOM     18  C   UNL     1      -6.035  -7.713   0.005  0.00  0.00    +0.047 A 
ATOM     19  C   UNL     1      -5.351  -8.741  -0.627  0.00  0.00    +0.120 A 
ATOM     20  C   UNL     1      -4.233  -8.460  -1.399  0.00  0.00    +0.047 A 
ATOM     21  C   UNL     1      -3.800  -7.156  -1.538  0.00  0.00    +0.027 A 
BRANCH  19  22
ATOM     22  O   UNL     1      -5.777 -10.025  -0.490  0.00  0.00    -0.495 OA
ATOM     23  C   UNL     1      -6.934 -10.242   0.319  0.00  0.00    +0.277 C 
ENDBRANCH  19  22
ENDBRANCH   6  16
BRANCH   1  25
ATOM     24  N   UNL     1      -1.300  -1.444   1.169  0.00  0.00    -0.285 N 
ATOM     25  C   UNL     1      -1.412  -2.481   0.315  0.00  0.00    +0.222 C 
ATOM     26  O   UNL     1      -0.422  -3.091  -0.031  0.00  0.00    -0.275 OA
ATOM     27  H   UNL     1      -2.084  -0.921   1.401  0.00  0.00    +0.155 HD
BRANCH  24  30
ATOM     28  C   UNL     1      -1.247  -0.138   3.697  0.00  0.00    +0.048 C 
ATOM     29  C   UNL     1       0.016  -0.488   2.954  0.00  0.00    +0.001 A 
ATOM     30  C   UNL     1      -0.055  -1.122   1.720  0.00  0.00    +0.038 A 
ATOM     31  C   UNL     1       1.111  -1.437   1.036  0.00  0.00    +0.024 A 
ATOM     32  C   UNL     1       2.339  -1.119   1.583  0.00  0.00    +0.004 A 
ATOM     33  C   UNL     1       2.407  -0.487   2.811  0.00  0.00    +0.033 A 
ATOM     34  C   UNL     1       1.247  -0.172   3.495  0.00  0.00    +0.131 A 
BRANCH  34  35
ATOM     35  N   UNL     1       1.324   0.505   4.809  0.00  0.00    +0.057 N 
ATOM     36  O   UNL     1       2.219   1.300   5.033  0.00  0.00    -0.126 OA
ATOM     37  O   UNL     1       0.493   0.266   5.667  0.00  0.00    -0.126 OA
ENDBRANCH  34  35
ENDBRANCH  24  30
ENDBRANCH   1  25
TORSDOF 7
