REMARK  Name = ZINC20035585
REMARK  9 active torsions:
REMARK  status: ('A' for Active; 'I' for Inactive)
REMARK    1  A    between atoms: C_1  and  C_2
REMARK    2  A    between atoms: C_3  and  C_26
REMARK    3  A    between atoms: N_6  and  C_22
REMARK    4  A    between atoms: N_10  and  N_11
REMARK    5  A    between atoms: N_11  and  C_12
REMARK    6  A    between atoms: C_17  and  C_18
REMARK    7  A    between atoms: C_22  and  C_23
REMARK    8  A    between atoms: C_23  and  C_24
REMARK    9  A    between atoms: C_24  and  O_25
REMARK                            x       y       z     vdW  Elec       q    Type
REMARK                         _______ _______ _______ _____ _____    ______ ____
ROOT
ATOM      1  C   UNL     1       0.866   1.503   0.098  0.00  0.00    +0.047 C 
ATOM      2  C   UNL     1       0.644   0.013   0.056  0.00  0.00    +0.004 C 
ATOM      3  C   UNL     1       0.733  -0.681  -1.140  0.00  0.00    +0.119 C 
ATOM      4  C   UNL     1       0.513  -2.130  -1.155  0.00  0.00    +0.264 C 
ATOM      5  O   UNL     1       0.592  -2.738  -2.206  0.00  0.00    -0.269 OA
ATOM      6  N   UNL     1       0.225  -2.796  -0.023  0.00  0.00    -0.232 N 
ATOM      7  C   UNL     1       0.128  -2.160   1.158  0.00  0.00    +0.273 C 
ATOM      8  O   UNL     1      -0.134  -2.790   2.165  0.00  0.00    -0.268 OA
ATOM      9  C   UNL     1       0.345  -0.706   1.238  0.00  0.00    +0.148 C 
ATOM     10  N   UNL     1       0.257  -0.078   2.401  0.00  0.00    -0.177 NA
ENDROOT
BRANCH  10  11
ATOM     11  N   UNL     1       0.106  -0.753   3.489  0.00  0.00    -0.236 N 
ATOM     12  H   UNL     1       0.119  -1.723   3.464  0.00  0.00    +0.174 HD
BRANCH  11  13
ATOM     13  C   UNL     1      -0.075  -0.093   4.697  0.00  0.00    +0.062 A 
ATOM     14  C   UNL     1      -0.205   1.290   4.724  0.00  0.00    +0.026 A 
ATOM     15  C   UNL     1      -0.385   1.945   5.926  0.00  0.00    +0.017 A 
ATOM     16  C   UNL     1      -0.438   1.232   7.114  0.00  0.00    +0.019 A 
ATOM     17  C   UNL     1      -0.311  -0.142   7.107  0.00  0.00    +0.032 A 
ATOM     18  C   UNL     1      -0.133  -0.820   5.898  0.00  0.00    +0.087 A 
ATOM     19 BR   UNL     1      -0.684   2.146   8.750  0.00  0.00    -0.050 Br
BRANCH  18  20
ATOM     20  C   UNL     1      -0.003  -2.286   5.883  0.00  0.00    +0.388 C 
ATOM     21  O   UNL     1      -0.718  -2.971   6.603  0.00  0.00    -0.241 OA
ATOM     22  O   UNL     1       0.819  -2.820   5.152  0.00  0.00    -0.241 OA
ENDBRANCH  18  20
ENDBRANCH  11  13
ENDBRANCH  10  11
BRANCH   3  23
ATOM     23  C   UNL     1       1.038   0.014  -2.354  0.00  0.00    +0.105 C 
ATOM     24  N   UNL     1       1.280   0.565  -3.318  0.00  0.00    -0.191 NA
ENDBRANCH   3  23
BRANCH   6  25
ATOM     25  C   UNL     1       0.011  -4.244  -0.078  0.00  0.00    +0.119 C 
BRANCH  25  26
ATOM     26  C   UNL     1       1.344  -4.965   0.134  0.00  0.00    +0.047 C 
BRANCH  26  27
ATOM     27  C   UNL     1       1.121  -6.477   0.077  0.00  0.00    +0.157 C 
BRANCH  27  28
ATOM     28  O   UNL     1       2.366  -7.150   0.274  0.00  0.00    -0.395 OA
ATOM     29  H   UNL     1       2.299  -8.115   0.251  0.00  0.00    +0.209 HD
ENDBRANCH  27  28
ENDBRANCH  26  27
ENDBRANCH  25  26
ENDBRANCH   6  25
TORSDOF 8
