REMARK  Name = ZINC39124345
REMARK  6 active torsions:
REMARK  status: ('A' for Active; 'I' for Inactive)
REMARK    1  A    between atoms: C_1  and  C_2
REMARK    2  A    between atoms: C_2  and  C_3
REMARK    3  A    between atoms: C_2  and  C_4
REMARK    4  A    between atoms: C_10  and  N_13
REMARK    5  A    between atoms: C_11  and  O_12
REMARK    6  A    between atoms: N_16  and  C_17
REMARK                            x       y       z     vdW  Elec       q    Type
REMARK                         _______ _______ _______ _____ _____    ______ ____
ROOT
ATOM      1  C   UNL     1      -1.408  -0.931   0.489  0.00  0.00    +0.120 A 
ATOM      2  N   UNL     1      -2.322  -0.243   1.103  0.00  0.00    -0.229 NA
ATOM      3  C   UNL     1      -3.619  -0.270   0.704  0.00  0.00    +0.121 A 
ATOM      4  C   UNL     1      -3.980  -1.068  -0.407  0.00  0.00    +0.069 A 
ATOM      5  C   UNL     1      -5.306  -1.113  -0.837  0.00  0.00    +0.017 A 
ATOM      6  C   UNL     1      -6.258  -0.384  -0.181  0.00  0.00    +0.027 A 
ATOM      7  C   UNL     1      -5.918   0.407   0.916  0.00  0.00    +0.069 A 
ATOM      8  C   UNL     1      -4.604   0.469   1.363  0.00  0.00    +0.164 A 
ATOM      9  C   UNL     1      -2.922  -1.833  -1.078  0.00  0.00    +0.266 A 
ATOM     10  O   UNL     1      -3.166  -2.538  -2.040  0.00  0.00    -0.267 OA
ATOM     11  N   UNL     1      -1.665  -1.720  -0.591  0.00  0.00    -0.264 N 
ENDROOT
BRANCH  11  12
ATOM     12  C   UNL     1      -0.619  -2.425  -1.199  0.00  0.00    +0.051 A 
ATOM     13  C   UNL     1      -0.365  -3.742  -0.838  0.00  0.00    +0.028 A 
ATOM     14  C   UNL     1       0.666  -4.436  -1.439  0.00  0.00    +0.022 A 
ATOM     15  C   UNL     1       1.447  -3.819  -2.401  0.00  0.00    +0.041 A 
ATOM     16  C   UNL     1       1.197  -2.507  -2.763  0.00  0.00    +0.022 A 
ATOM     17  C   UNL     1       0.163  -1.811  -2.169  0.00  0.00    +0.028 A 
ATOM     18 CL   UNL     1       2.744  -4.694  -3.155  0.00  0.00    -0.084 Cl
ENDBRANCH  11  12
BRANCH   1  20
ATOM     19  C   UNL     1       0.233   0.508   1.666  0.00  0.00    +0.015 C 
ATOM     20  C   UNL     1       0.010  -0.848   0.994  0.00  0.00    +0.049 C 
ATOM     21  C   UNL     1       0.257  -1.967   2.008  0.00  0.00    +0.015 C 
ENDBRANCH   1  20
BRANCH   7  22
ATOM     22  N   UNL     1      -6.906   1.143   1.570  0.00  0.00    -0.355 N 
ATOM     23  H   UNL     1      -7.825   1.104   1.261  0.00  0.00    +0.142 HD
ATOM     24  H   UNL     1      -6.674   1.695   2.333  0.00  0.00    +0.142 HD
ENDBRANCH   7  22
BRANCH   8  25
ATOM     25  O   UNL     1      -4.279   1.242   2.435  0.00  0.00    -0.503 OA
ATOM     26  H   UNL     1      -4.034   2.149   2.205  0.00  0.00    +0.292 HD
ENDBRANCH   8  25
TORSDOF 4
