REMARK  Name = ZINC21895027
REMARK  6 active torsions:
REMARK  status: ('A' for Active; 'I' for Inactive)
REMARK    1  A    between atoms: C_1  and  C_2
REMARK    2  A    between atoms: C_2  and  C_4
REMARK    3  A    between atoms: C_2  and  N_20
REMARK    4  A    between atoms: N_6  and  N_7
REMARK    5  A    between atoms: C_8  and  C_10
REMARK    6  A    between atoms: C_21  and  C_23
REMARK                            x       y       z     vdW  Elec       q    Type
REMARK                         _______ _______ _______ _____ _____    ______ ____
ROOT
ATOM      1  C   UNL     1       4.911   4.929  -0.619  0.00  0.00    +0.249 C 
ATOM      2  O   UNL     1       5.449   3.919  -1.019  0.00  0.00    -0.272 OA
ATOM      3  N   UNL     1       5.542   6.116  -0.723  0.00  0.00    -0.233 N 
ATOM      4  H   UNL     1       5.054   7.032  -0.360  0.00  0.00    +0.173 HD
ENDROOT
BRANCH   3   5
ATOM      5  N   UNL     1       6.820   6.182  -1.293  0.00  0.00    -0.234 N 
ATOM      6  C   UNL     1       7.451   7.368  -1.396  0.00  0.00    +0.235 C 
ATOM      7  O   UNL     1       6.913   8.379  -0.996  0.00  0.00    -0.274 OA
ATOM      8  H   UNL     1       7.309   5.265  -1.656  0.00  0.00    +0.173 HD
BRANCH   6   9
ATOM      9  C   UNL     1       8.826   7.439  -2.010  0.00  0.00    +0.049 C 
ATOM     10  C   UNL     1       9.793   6.576  -1.196  0.00  0.00    +0.019 C 
ATOM     11  C   UNL     1      11.188   6.648  -1.819  0.00  0.00    -0.009 C 
ATOM     12  C   UNL     1      11.674   8.099  -1.816  0.00  0.00    +0.007 C 
ATOM     13  C   UNL     1      10.707   8.962  -2.629  0.00  0.00    -0.009 C 
ATOM     14  C   UNL     1       9.312   8.890  -2.006  0.00  0.00    +0.019 C 
ATOM     15  C   UNL     1      10.651   8.446  -4.069  0.00  0.00    +0.007 C 
ATOM     16  C   UNL     1      10.165   6.995  -4.072  0.00  0.00    -0.009 C 
ATOM     17  C   UNL     1      11.132   6.133  -3.258  0.00  0.00    +0.007 C 
ATOM     18  C   UNL     1       8.770   6.923  -3.449  0.00  0.00    +0.019 C 
ENDBRANCH   6   9
ENDBRANCH   3   5
BRANCH   1  20
ATOM     19  C   UNL     1       3.593   5.374   1.434  0.00  0.00    +0.038 C 
ATOM     20  C   UNL     1       3.536   4.859  -0.006  0.00  0.00    +0.158 C 
BRANCH  20  21
ATOM     21  N   UNL     1       3.071   3.469  -0.009  0.00  0.00    -0.298 N 
ATOM     22  C   UNL     1       1.751   3.200   0.003  0.00  0.00    +0.280 C 
ATOM     23  O   UNL     1       0.944   4.112   0.015  0.00  0.00    -0.267 OA
ATOM     24  H   UNL     1       3.800   2.645  -0.020  0.00  0.00    +0.150 HD
BRANCH  22  25
ATOM     25  C   UNL     1       1.285   1.810  -0.001  0.00  0.00    +0.189 A 
ATOM     26  C   UNL     1      -0.017   1.399   0.010  0.00  0.00    +0.054 A 
ATOM     27  C   UNL     1       0.002  -0.004   0.002  0.00  0.00    +0.042 A 
ATOM     28  C   UNL     1       1.299  -0.384  -0.012  0.00  0.00    +0.196 A 
ATOM     29  O   UNL     1       2.069   0.712  -0.014  0.00  0.00    -0.458 OA
ENDBRANCH  22  25
ENDBRANCH  20  21
ENDBRANCH   1  20
TORSDOF 5
