REMARK  Name = ZINC20479005
REMARK  2 active torsions:
REMARK  status: ('A' for Active; 'I' for Inactive)
REMARK    1  A    between atoms: C_6  and  C_7
REMARK    2  A    between atoms: C_10  and  C_12
REMARK                            x       y       z     vdW  Elec       q    Type
REMARK                         _______ _______ _______ _____ _____    ______ ____
ROOT
ATOM      1  C   UNL     1       2.417   3.937   0.001  0.00  0.00    +0.136 A 
ATOM      2  C   UNL     1       2.527   5.299   0.007  0.00  0.00    +0.050 A 
ATOM      3  C   UNL     1       3.892   5.601  -0.003  0.00  0.00    +0.050 A 
ATOM      4  C   UNL     1       4.568   4.395  -0.015  0.00  0.00    +0.130 A 
ATOM      5  O   UNL     1       3.652   3.403  -0.008  0.00  0.00    -0.455 OA
ENDROOT
BRANCH   4   6
ATOM      6  C   UNL     1       5.970   4.229  -0.029  0.00  0.00    +0.066 C 
ATOM      7  C   UNL     1       6.509   2.976  -0.040  0.00  0.00    +0.081 C 
ATOM      8  C   UNL     1       7.922   2.569  -0.061  0.00  0.00    +0.257 C 
ATOM      9  O   UNL     1       8.820   3.391  -0.070  0.00  0.00    -0.269 OA
ATOM     10  N   UNL     1       8.175   1.271  -0.065  0.00  0.00    -0.261 N 
ATOM     11  C   UNL     1       7.143   0.355  -0.060  0.00  0.00    +0.158 C 
ATOM     12  N   UNL     1       7.213  -0.948  -0.068  0.00  0.00    -0.279 NA
ATOM     13  S   UNL     1       5.687   1.389  -0.041  0.00  0.00    -0.049 S 
ATOM     14  H   UNL     1       9.215   0.913  -0.072  0.00  0.00    +0.157 HD
ATOM     15  H   UNL     1       6.291  -1.548  -0.062  0.00  0.00    +0.189 HD
ENDBRANCH   4   6
BRANCH   1  21
ATOM     16  C   UNL     1       1.173   1.780   0.000  0.00  0.00    +0.013 A 
ATOM     17  C   UNL     1      -0.013   1.076   0.008  0.00  0.00    +0.021 A 
ATOM     18  C   UNL     1      -1.222   1.750   0.017  0.00  0.00    +0.041 A 
ATOM     19  C   UNL     1      -1.250   3.135   0.031  0.00  0.00    +0.021 A 
ATOM     20  C   UNL     1      -0.071   3.851   0.023  0.00  0.00    +0.013 A 
ATOM     21  C   UNL     1       1.152   3.177   0.008  0.00  0.00    +0.017 A 
ATOM     22 CL   UNL     1      -2.710   0.856   0.019  0.00  0.00    -0.084 Cl
ENDBRANCH   1  21
TORSDOF 2
