REMARK  Name = ZINC65461116
REMARK  5 active torsions:
REMARK  status: ('A' for Active; 'I' for Inactive)
REMARK    1  A    between atoms: C_1  and  S_2
REMARK    2  A    between atoms: S_2  and  N_5
REMARK    3  A    between atoms: C_9  and  N_11
REMARK    4  A    between atoms: N_17  and  C_20
REMARK    5  A    between atoms: C_20  and  C_21
REMARK                            x       y       z     vdW  Elec       q    Type
REMARK                         _______ _______ _______ _____ _____    ______ ____
ROOT
ATOM      1  N   UNL     1       4.480   1.987  -3.118  0.00  0.00    -0.295 N 
ATOM      2  C   UNL     1       5.046   0.806  -2.799  0.00  0.00    +0.302 C 
ATOM      3  O   UNL     1       4.381  -0.062  -2.266  0.00  0.00    -0.253 OA
ATOM      4  N   UNL     1       6.347   0.587  -3.071  0.00  0.00    -0.289 N 
ATOM      5  C   UNL     1       6.959  -0.730  -2.832  0.00  0.00    +0.091 C 
ATOM      6  C   UNL     1       8.243  -0.529  -2.021  0.00  0.00    -0.059 C 
ATOM      7  N   UNL     1       9.115   0.427  -2.716  0.00  0.00    +0.382 N 
ATOM      8  C   UNL     1       8.470   1.745  -2.768  0.00  0.00    -0.059 C 
ATOM      9  C   UNL     1       7.196   1.655  -3.621  0.00  0.00    +0.091 C 
ATOM     10  H   UNL     1       5.025   2.704  -3.477  0.00  0.00    +0.151 HD
ATOM     11  H   UNL     1       9.288   0.101  -3.655  0.00  0.00    -0.082 HD
ENDROOT
BRANCH   1  16
ATOM     12  N   UNL     1       1.132   3.556  -3.580  0.00  0.00    -0.180 NA
ATOM     13  C   UNL     1       0.754   3.892  -2.201  0.00  0.00    +0.109 C 
ATOM     14  C   UNL     1       1.272   2.795  -1.266  0.00  0.00    +0.019 C 
ATOM     15  C   UNL     1       2.777   2.618  -1.479  0.00  0.00    +0.025 C 
ATOM     16  C   UNL     1       3.042   2.187  -2.924  0.00  0.00    +0.090 C 
ATOM     17  C   UNL     1       2.543   3.271  -3.876  0.00  0.00    +0.131 C 
BRANCH  12  19
ATOM     18  C   UNL     1      -0.602   1.779  -4.767  0.00  0.00    +0.215 C 
ATOM     19  S   UNL     1      -0.011   3.494  -4.777  0.00  0.00    +0.029 S 
ATOM     20  O   UNL     1       0.705   3.757  -5.976  0.00  0.00    -0.158 OA
ATOM     21  O   UNL     1      -1.041   4.370  -4.341  0.00  0.00    -0.158 OA
ENDBRANCH  12  19
ENDBRANCH   1  16
BRANCH   7  22
ATOM     22  C   UNL     1      10.391   0.536  -1.996  0.00  0.00    -0.075 C 
BRANCH  22  23
ATOM     23  C   UNL     1      11.138  -0.797  -2.077  0.00  0.00    -0.028 C 
ATOM     24  C   UNL     1      11.478  -1.103  -3.537  0.00  0.00    +0.002 C 
ATOM     25  C   UNL     1      12.225  -2.436  -3.618  0.00  0.00    +0.000 C 
ATOM     26  C   UNL     1      13.516  -2.348  -2.801  0.00  0.00    +0.000 C 
ATOM     27  C   UNL     1      13.175  -2.042  -1.341  0.00  0.00    +0.000 C 
ATOM     28  C   UNL     1      12.428  -0.709  -1.260  0.00  0.00    +0.002 C 
ENDBRANCH  22  23
ENDBRANCH   7  22
TORSDOF 4
