REMARK  Name = ZINC49870857
REMARK  4 active torsions:
REMARK  status: ('A' for Active; 'I' for Inactive)
REMARK    1  A    between atoms: C_6  and  N_7
REMARK    2  A    between atoms: C_8  and  C_10
REMARK    3  A    between atoms: C_16  and  C_18
REMARK    4  A    between atoms: C_18  and  O_19
REMARK                            x       y       z     vdW  Elec       q    Type
REMARK                         _______ _______ _______ _____ _____    ______ ____
ROOT
ATOM      1  N   UNL     1      -1.202  -0.721   0.010  0.00  0.00    -0.285 N 
ATOM      2  C   UNL     1      -2.374  -0.068   0.127  0.00  0.00    +0.221 C 
ATOM      3  O   UNL     1      -2.395   1.145   0.134  0.00  0.00    -0.275 OA
ATOM      4  H   UNL     1      -1.191  -1.688  -0.072  0.00  0.00    +0.155 HD
ENDROOT
BRANCH   1  10
ATOM      5  C   UNL     1       0.122   1.154   0.763  0.00  0.00    +0.027 A 
ATOM      6  C   UNL     1       1.309   1.862   0.762  0.00  0.00    +0.051 A 
ATOM      7  C   UNL     1       2.383   1.417   0.007  0.00  0.00    +0.166 A 
ATOM      8  C   UNL     1       2.266   0.255  -0.751  0.00  0.00    +0.168 A 
ATOM      9  C   UNL     1       1.076  -0.454  -0.750  0.00  0.00    +0.072 A 
ATOM     10  C   UNL     1       0.002  -0.004   0.008  0.00  0.00    +0.037 A 
ATOM     11  O   UNL     1       3.448   0.034  -1.396  0.00  0.00    -0.453 OA
ATOM     12  C   UNL     1       4.153   1.288  -1.348  0.00  0.00    +0.466 C 
ATOM     13  O   UNL     1       3.640   1.924  -0.163  0.00  0.00    -0.453 OA
ENDBRANCH   1  10
BRANCH   2  14
ATOM     14  C   UNL     1      -3.660  -0.844   0.249  0.00  0.00    +0.081 C 
ATOM     15  C   UNL     1      -3.847  -1.719  -0.991  0.00  0.00    +0.013 C 
ATOM     16  C   UNL     1      -3.903  -0.834  -2.237  0.00  0.00    +0.001 C 
ATOM     17  C   UNL     1      -5.077   0.140  -2.119  0.00  0.00    +0.000 C 
ATOM     18  C   UNL     1      -4.890   1.016  -0.878  0.00  0.00    +0.006 C 
ATOM     19  C   UNL     1      -4.835   0.130   0.368  0.00  0.00    +0.026 C 
BRANCH  19  20
ATOM     20  C   UNL     1      -4.647   1.006   1.608  0.00  0.00    +0.160 C 
BRANCH  20  21
ATOM     21  O   UNL     1      -5.798   1.835   1.784  0.00  0.00    -0.395 OA
ATOM     22  H   UNL     1      -5.749   2.418   2.554  0.00  0.00    +0.209 HD
ENDBRANCH  20  21
ENDBRANCH  19  20
ENDBRANCH   2  14
TORSDOF 4
