REMARK  Name = ZINC37555978
REMARK  4 active torsions:
REMARK  status: ('A' for Active; 'I' for Inactive)
REMARK    1  A    between atoms: C_6  and  S_11
REMARK    2  A    between atoms: C_7  and  N_9
REMARK    3  A    between atoms: N_9  and  N_10
REMARK    4  A    between atoms: S_11  and  N_14
REMARK                            x       y       z     vdW  Elec       q    Type
REMARK                         _______ _______ _______ _____ _____    ______ ____
ROOT
ATOM      1  C   UNL     1      -4.400  -3.701   1.247  0.00  0.00    +0.102 A 
ATOM      2  C   UNL     1      -5.188  -4.620   1.802  0.00  0.00    +0.067 A 
ATOM      3  S   UNL     1      -6.402  -3.609   2.636  0.00  0.00    -0.058 S 
ATOM      4  C   UNL     1      -5.748  -2.024   2.169  0.00  0.00    +0.181 A 
ATOM      5  N   UNL     1      -4.656  -2.358   1.414  0.00  0.00    -0.276 N 
ATOM      6  C   UNL     1      -4.106  -1.135   1.020  0.00  0.00    +0.222 A 
ATOM      7  C   UNL     1      -4.872  -0.156   1.544  0.00  0.00    +0.179 A 
ATOM      8  N   UNL     1      -5.868  -0.728   2.242  0.00  0.00    -0.203 NA
ENDROOT
BRANCH   6   9
ATOM      9  S   UNL     1      -2.671  -0.912   0.022  0.00  0.00    +0.080 S 
ATOM     10  O   UNL     1      -2.160   0.379   0.327  0.00  0.00    -0.151 OA
ATOM     11  O   UNL     1      -1.891  -2.092   0.163  0.00  0.00    -0.151 OA
BRANCH   9  12
ATOM     12  N   UNL     1      -3.174  -0.862  -1.554  0.00  0.00    -0.175 NA
ATOM     13  C   UNL     1      -3.393   0.428  -2.223  0.00  0.00    +0.109 C 
ATOM     14  C   UNL     1      -2.052   1.125  -2.412  0.00  0.00    +0.017 C 
ATOM     15  C   UNL     1      -1.262   0.407  -3.520  0.00  0.00    +0.001 C 
ATOM     16  C   UNL     1      -0.652  -0.873  -2.960  0.00  0.00    +0.000 C 
ATOM     17  C   UNL     1      -1.285  -2.112  -3.620  0.00  0.00    +0.001 C 
ATOM     18  C   UNL     1      -2.802  -1.938  -3.695  0.00  0.00    +0.017 C 
ATOM     19  C   UNL     1      -3.397  -2.093  -2.293  0.00  0.00    +0.109 C 
ENDBRANCH   9  12
ENDBRANCH   6   9
BRANCH   7  20
ATOM     20  N   UNL     1      -4.664   1.223   1.387  0.00  0.00    -0.265 N 
ATOM     21  H   UNL     1      -3.914   1.544   0.863  0.00  0.00    +0.168 HD
BRANCH  20  22
ATOM     22  N   UNL     1      -5.519   2.113   1.973  0.00  0.00    -0.255 NA
ATOM     23  H   UNL     1      -5.244   3.063   1.774  0.00  0.00    +0.140 HD
ATOM     24  H   UNL     1      -6.471   1.944   1.684  0.00  0.00    +0.140 HD
ENDBRANCH  20  22
ENDBRANCH   7  20
TORSDOF 4
