REMARK  Name = ZINC14262290
REMARK  7 active torsions:
REMARK  status: ('A' for Active; 'I' for Inactive)
REMARK    1  A    between atoms: C_1  and  N_2
REMARK    2  A    between atoms: C_7  and  N_11
REMARK    3  A    between atoms: N_11  and  C_12
REMARK    4  A    between atoms: C_12  and  C_13
REMARK    5  A    between atoms: C_13  and  N_48
REMARK    6  A    between atoms: C_20  and  N_48
REMARK    7  A    between atoms: C_21  and  N_48
REMARK                            x       y       z     vdW  Elec       q    Type
REMARK                         _______ _______ _______ _____ _____    ______ ____
ROOT
ATOM      1  N   UNL     1      -1.151   0.196   2.832  0.00  0.00    -0.330 N 
ATOM      2  H   UNL     1      -1.678  -0.456   2.345  0.00  0.00    +0.147 HD
ENDROOT
BRANCH   1   9
ATOM      3  C   UNL     1      -5.975   1.982   6.060  0.00  0.00    +0.174 C 
ATOM      4  N   UNL     1      -4.998   1.370   5.157  0.00  0.00    -0.249 N 
ATOM      5  C   UNL     1      -3.675   1.690   5.075  0.00  0.00    +0.163 A 
ATOM      6  C   UNL     1      -3.121   0.858   4.083  0.00  0.00    +0.078 A 
ATOM      7  C   UNL     1      -4.167   0.046   3.593  0.00  0.00    +0.148 A 
ATOM      8  N   UNL     1      -5.261   0.354   4.229  0.00  0.00    -0.177 NA
ATOM      9  C   UNL     1      -1.749   0.986   3.795  0.00  0.00    +0.133 A 
ATOM     10  N   UNL     1      -1.041   1.881   4.476  0.00  0.00    -0.220 NA
ATOM     11  C   UNL     1      -1.606   2.644   5.395  0.00  0.00    +0.225 A 
ATOM     12  N   UNL     1      -2.883   2.561   5.699  0.00  0.00    -0.216 NA
ENDBRANCH   1   9
BRANCH   1  13
ATOM     13  C   UNL     1       0.278   0.344   2.547  0.00  0.00    +0.091 C 
BRANCH  13  14
ATOM     14  C   UNL     1       0.661  -0.561   1.375  0.00  0.00    -0.050 C 
ATOM     15  C   UNL     1       0.784   0.280   0.088  0.00  0.00    -0.010 C 
ATOM     16  C   UNL     1       1.420   1.568   0.327  0.00  0.00    -0.001 C 
ATOM     17  C   UNL     1       2.865   1.423   0.846  0.00  0.00    -0.000 C 
ATOM     18  C   UNL     1       2.817   1.120   2.319  0.00  0.00    -0.000 C 
ATOM     19  C   UNL     1       2.863  -0.391   2.613  0.00  0.00    -0.001 C 
ATOM     20  C   UNL     1       1.989  -1.215   1.648  0.00  0.00    -0.010 C 
BRANCH  14  23
ATOM     21  C   UNL     1      -0.106  -2.392  -0.013  0.00  0.00    -0.096 C 
ATOM     22  C   UNL     1      -0.470  -2.452   2.380  0.00  0.00    -0.096 C 
ATOM     23  N   UNL     1      -0.394  -1.580   1.188  0.00  0.00    +0.381 N 
ATOM     24  H   UNL     1      -1.296  -1.107   1.063  0.00  0.00    -0.082 HD
ENDBRANCH  14  23
ENDBRANCH  13  14
ENDBRANCH   1  13
TORSDOF 4
