REMARK  Name = ZINC37844752
REMARK  4 active torsions:
REMARK  status: ('A' for Active; 'I' for Inactive)
REMARK    1  A    between atoms: C_1  and  N_2
REMARK    2  A    between atoms: C_6  and  C_7
REMARK    3  A    between atoms: N_9  and  C_10
REMARK    4  A    between atoms: C_19  and  O_20
REMARK                            x       y       z     vdW  Elec       q    Type
REMARK                         _______ _______ _______ _____ _____    ______ ____
ROOT
ATOM      1  C   UNL     1      -0.395   1.367   4.110  0.00  0.00    +0.042 A 
ATOM      2  C   UNL     1      -0.289   0.460   5.143  0.00  0.00    +0.024 A 
ATOM      3  C   UNL     1      -0.293   0.886   6.467  0.00  0.00    +0.003 A 
ATOM      4  C   UNL     1      -0.401   2.208   6.780  0.00  0.00    +0.012 A 
ATOM      5  C   UNL     1      -0.511   3.163   5.757  0.00  0.00    +0.025 A 
ATOM      6  C   UNL     1      -0.502   2.743   4.405  0.00  0.00    +0.007 A 
ATOM      7  C   UNL     1      -0.607   3.700   3.383  0.00  0.00    +0.010 A 
ATOM      8  C   UNL     1      -0.709   5.020   3.701  0.00  0.00    +0.004 A 
ATOM      9  C   UNL     1      -0.712   5.441   5.029  0.00  0.00    +0.046 A 
ATOM     10  C   UNL     1      -0.624   4.538   6.051  0.00  0.00    +0.125 A 
ENDROOT
BRANCH   1  13
ATOM     11  C   UNL     1       0.244  -0.213   2.455  0.00  0.00    +0.265 C 
ATOM     12  O   UNL     1       0.767  -0.891   3.320  0.00  0.00    -0.268 OA
ATOM     13  N   UNL     1      -0.391   0.929   2.785  0.00  0.00    -0.280 N 
ATOM     14  H   UNL     1      -0.845   1.446   2.102  0.00  0.00    +0.155 HD
BRANCH  11  20
ATOM     15  C   UNL     1       1.437  -2.872   1.406  0.00  0.00    +0.149 C 
ATOM     16  N   UNL     1       0.835  -1.820   0.584  0.00  0.00    -0.345 N 
ATOM     17  C   UNL     1       0.700  -1.849  -0.765  0.00  0.00    +0.101 A 
ATOM     18  C   UNL     1       0.099  -0.705  -1.171  0.00  0.00    +0.036 A 
ATOM     19  C   UNL     1      -0.154   0.072  -0.036  0.00  0.00    +0.047 A 
ATOM     20  C   UNL     1       0.305  -0.639   1.053  0.00  0.00    +0.106 A 
ATOM     21 BR   UNL     1      -0.324  -0.241  -2.955  0.00  0.00    -0.049 Br
ENDBRANCH  11  20
ENDBRANCH   1  13
BRANCH  10  22
ATOM     22  O   UNL     1      -0.629   4.963   7.340  0.00  0.00    -0.506 OA
ATOM     23  H   UNL     1       0.249   5.164   7.692  0.00  0.00    +0.292 HD
ENDBRANCH  10  22
TORSDOF 3
