REMARK  Name = ZINC14544033
REMARK  4 active torsions:
REMARK  status: ('A' for Active; 'I' for Inactive)
REMARK    1  A    between atoms: C_1  and  O_2
REMARK    2  A    between atoms: O_2  and  C_3
REMARK    3  A    between atoms: C_12  and  C_13
REMARK    4  A    between atoms: C_26  and  C_29
REMARK                            x       y       z     vdW  Elec       q    Type
REMARK                         _______ _______ _______ _____ _____    ______ ____
ROOT
ATOM      1  C   UNL     1      -0.013   1.086   0.008  0.00  0.00    +0.109 C 
ATOM      2  C   UNL     1      -0.942   1.096  -1.188  0.00  0.00    +0.029 C 
ATOM      3  C   UNL     1      -2.246   0.307  -1.068  0.00  0.00    +0.033 C 
ATOM      4  C   UNL     1      -3.151   1.100  -2.014  0.00  0.00    -0.030 C 
ATOM      5  C   UNL     1      -2.737   2.360  -2.086  0.00  0.00    -0.023 C 
ATOM      6  C   UNL     1      -1.569   2.525  -1.186  0.00  0.00    +0.049 C 
ATOM      7  C   UNL     1      -0.468   3.472  -1.469  0.00  0.00    -0.019 A 
ATOM      8  C   UNL     1      -0.679   4.642  -2.166  0.00  0.00    +0.006 A 
ATOM      9  C   UNL     1       0.358   5.534  -2.386  0.00  0.00    +0.001 A 
ATOM     10  C   UNL     1       1.617   5.255  -1.903  0.00  0.00    +0.015 A 
ATOM     11  C   UNL     1       1.850   4.074  -1.202  0.00  0.00    +0.058 A 
ATOM     12  C   UNL     1       0.804   3.153  -0.986  0.00  0.00    +0.044 A 
ATOM     13  N   UNL     1       1.109   1.984  -0.308  0.00  0.00    -0.336 N 
ATOM     14  H   UNL     1       1.855   1.484  -0.767  0.00  0.00    +0.147 HD
ENDROOT
BRANCH   1  24
ATOM     15  C   UNL     1      -0.560   2.865   1.663  0.00  0.00    +0.126 A 
ATOM     16  C   UNL     1      -1.232   3.342   2.793  0.00  0.00    +0.046 A 
ATOM     17  C   UNL     1      -2.074   2.540   3.496  0.00  0.00    +0.012 A 
ATOM     18  C   UNL     1      -2.280   1.212   3.082  0.00  0.00    -0.017 A 
ATOM     19  C   UNL     1      -3.143   0.355   3.786  0.00  0.00    +0.008 A 
ATOM     20  C   UNL     1      -3.318  -0.925   3.358  0.00  0.00    +0.001 A 
ATOM     21  C   UNL     1      -2.654  -1.401   2.229  0.00  0.00    +0.001 A 
ATOM     22  C   UNL     1      -1.810  -0.601   1.523  0.00  0.00    +0.009 A 
ATOM     23  C   UNL     1      -1.604   0.727   1.935  0.00  0.00    -0.009 A 
ATOM     24  C   UNL     1      -0.741   1.583   1.230  0.00  0.00    +0.022 A 
BRANCH  15  26
ATOM     25  C   UNL     1       0.428   5.020   1.485  0.00  0.00    +0.277 C 
ATOM     26  O   UNL     1       0.280   3.690   0.985  0.00  0.00    -0.495 OA
ENDBRANCH  15  26
ENDBRANCH   1  24
BRANCH  11  27
ATOM     27  C   UNL     1       3.199   3.784  -0.683  0.00  0.00    +0.243 C 
ATOM     28  O   UNL     1       3.407   2.754  -0.070  0.00  0.00    -0.270 OA
ATOM     29  N   UNL     1       4.202   4.661  -0.887  0.00  0.00    -0.325 N 
ATOM     30  H   UNL     1       4.037   5.482  -1.375  0.00  0.00    +0.145 HD
ATOM     31  H   UNL     1       5.090   4.470  -0.545  0.00  0.00    +0.145 HD
ENDBRANCH  11  27
TORSDOF 3
