REMARK  Name = ZINC03671166
REMARK  4 active torsions:
REMARK  status: ('A' for Active; 'I' for Inactive)
REMARK    1  A    between atoms: C_1  and  C_2
REMARK    2  A    between atoms: C_2  and  C_28
REMARK    3  A    between atoms: C_22  and  C_26
REMARK    4  A    between atoms: C_23  and  N_25
REMARK                            x       y       z     vdW  Elec       q    Type
REMARK                         _______ _______ _______ _____ _____    ______ ____
ROOT
ATOM      1  C   UNL     1       0.685   3.106   2.147  0.00  0.00    +0.012 C 
ATOM      2  C   UNL     1       1.074   3.323   0.683  0.00  0.00    -0.021 C 
ATOM      3  C   UNL     1      -0.052   4.060  -0.044  0.00  0.00    +0.081 C 
ATOM      4  C   UNL     1      -1.314   3.229  -0.000  0.00  0.00    +0.116 C 
ATOM      5  C   UNL     1      -1.250   1.885   0.018  0.00  0.00    +0.053 C 
ATOM      6  C   UNL     1      -0.014   1.210   0.009  0.00  0.00    +0.164 C 
ATOM      7  O   UNL     1       0.002  -0.004   0.002  0.00  0.00    -0.292 OA
ATOM      8  C   UNL     1       1.286   1.967   0.000  0.00  0.00    +0.086 C 
ATOM      9  C   UNL     1      -2.513   1.059   0.062  0.00  0.00    +0.093 C 
ATOM     10  C   UNL     1      -2.330  -0.107   0.990  0.00  0.00    -0.019 A 
ATOM     11  C   UNL     1      -2.054  -0.142   2.340  0.00  0.00    +0.006 A 
ATOM     12  C   UNL     1      -1.941  -1.396   2.932  0.00  0.00    +0.000 A 
ATOM     13  C   UNL     1      -2.097  -2.557   2.202  0.00  0.00    +0.001 A 
ATOM     14  C   UNL     1      -2.375  -2.537   0.844  0.00  0.00    +0.009 A 
ATOM     15  C   UNL     1      -2.490  -1.283   0.236  0.00  0.00    -0.013 A 
ATOM     16  C   UNL     1      -2.772  -0.932  -1.155  0.00  0.00    -0.013 A 
ATOM     17  C   UNL     1      -2.789   0.468  -1.289  0.00  0.00    -0.019 A 
ATOM     18  C   UNL     1      -3.030   1.078  -2.502  0.00  0.00    +0.006 A 
ATOM     19  C   UNL     1      -3.258   0.248  -3.595  0.00  0.00    +0.000 A 
ATOM     20  C   UNL     1      -3.244  -1.127  -3.475  0.00  0.00    +0.001 A 
ATOM     21  C   UNL     1      -3.002  -1.754  -2.263  0.00  0.00    +0.009 A 
ATOM     22  C   UNL     1      -3.673   1.904   0.510  0.00  0.00    +0.106 C 
ATOM     23  C   UNL     1      -3.595   3.256   0.455  0.00  0.00    +0.199 C 
ATOM     24  O   UNL     1      -2.495   3.875   0.011  0.00  0.00    -0.445 OA
ATOM     25  C   UNL     1       2.363   4.143   0.610  0.00  0.00    +0.012 C 
ENDROOT
BRANCH  23  26
ATOM     26  N   UNL     1      -4.665   4.008   0.874  0.00  0.00    -0.328 N 
ATOM     27  H   UNL     1      -5.465   3.571   1.205  0.00  0.00    +0.145 HD
ATOM     28  H   UNL     1      -4.620   4.976   0.840  0.00  0.00    +0.145 HD
ENDBRANCH  23  26
BRANCH  22  29
ATOM     29  C   UNL     1      -4.866   1.278   0.995  0.00  0.00    +0.101 C 
ATOM     30  N   UNL     1      -5.812   0.781   1.380  0.00  0.00    -0.191 NA
ENDBRANCH  22  29
TORSDOF 2
