REMARK  Name = ZINC66664728
REMARK  13 active torsions:
REMARK  status: ('A' for Active; 'I' for Inactive)
REMARK    1  A    between atoms: C_1  and  C_2
REMARK    2  A    between atoms: C_2  and  C_3
REMARK    3  A    between atoms: C_2  and  N_4
REMARK    4  A    between atoms: C_8  and  C_11
REMARK    5  A    between atoms: N_13  and  C_14
REMARK    6  A    between atoms: C_16  and  C_23
REMARK    7  A    between atoms: N_18  and  C_19
REMARK    8  A    between atoms: C_19  and  C_20
REMARK    9  A    between atoms: C_19  and  C_21
REMARK   10  A    between atoms: C_19  and  C_22
REMARK   11  A    between atoms: C_23  and  C_24
REMARK   12  A    between atoms: C_23  and  C_25
REMARK   13  A    between atoms: C_23  and  C_26
REMARK                            x       y       z     vdW  Elec       q    Type
REMARK                         _______ _______ _______ _____ _____    ______ ____
ROOT
ATOM      1  C   UNL     1      -4.365  -3.720  -3.408  0.00  0.00    +0.251 C 
ATOM      2  O   UNL     1      -5.517  -3.970  -3.113  0.00  0.00    -0.270 OA
ATOM      3  N   UNL     1      -3.837  -4.217  -4.545  0.00  0.00    -0.266 N 
ATOM      4  H   UNL     1      -2.918  -4.017  -4.781  0.00  0.00    +0.157 HD
ENDROOT
BRANCH   1   9
ATOM      5  N   UNL     1      -1.372  -0.511   0.012  0.00  0.00    -0.244 N 
ATOM      6  C   UNL     1      -1.929  -1.307  -0.949  0.00  0.00    +0.158 A 
ATOM      7  C   UNL     1      -3.257  -1.556  -0.545  0.00  0.00    +0.039 A 
ATOM      8  C   UNL     1      -4.080  -2.352  -1.344  0.00  0.00    +0.027 A 
ATOM      9  C   UNL     1      -3.543  -2.871  -2.523  0.00  0.00    +0.056 A 
ATOM     10  C   UNL     1      -2.213  -2.578  -2.855  0.00  0.00    +0.126 A 
ATOM     11  N   UNL     1      -1.466  -1.826  -2.082  0.00  0.00    -0.235 NA
ATOM     12  C   UNL     1      -3.442  -0.852   0.720  0.00  0.00    +0.144 A 
ATOM     13  N   UNL     1      -2.319  -0.262   1.011  0.00  0.00    -0.177 NA
BRANCH   5  15
ATOM     14  C   UNL     1      -0.019   1.526   0.010  0.00  0.00    +0.032 C 
ATOM     15  C   UNL     1       0.002  -0.004   0.002  0.00  0.00    +0.103 C 
ATOM     16  C   UNL     1       0.742  -0.511   1.242  0.00  0.00    +0.032 C 
ENDBRANCH   5  15
ENDBRANCH   1   9
BRANCH   3  17
ATOM     17  C   UNL     1      -4.613  -5.018  -5.381  0.00  0.00    +0.124 A 
ATOM     18  C   UNL     1      -5.912  -5.372  -5.178  0.00  0.00    +0.069 A 
ATOM     19  C   UNL     1      -6.309  -6.178  -6.249  0.00  0.00    +0.070 A 
ATOM     20  N   UNL     1      -5.295  -6.307  -7.067  0.00  0.00    -0.174 NA
ATOM     21  N   UNL     1      -4.214  -5.583  -6.550  0.00  0.00    -0.245 N 
BRANCH  21  22
ATOM     22  C   UNL     1      -2.887  -5.460  -7.159  0.00  0.00    +0.057 C 
ATOM     23  C   UNL     1      -1.833  -6.017  -6.200  0.00  0.00    +0.036 C 
ATOM     24  C   UNL     1      -2.853  -6.248  -8.470  0.00  0.00    +0.036 C 
ATOM     25  C   UNL     1      -2.591  -3.986  -7.442  0.00  0.00    +0.036 C 
ENDBRANCH  21  22
BRANCH  19  26
ATOM     26  C   UNL     1      -7.672  -6.793  -6.431  0.00  0.00    +0.006 C 
ATOM     27  C   UNL     1      -8.664  -5.714  -6.869  0.00  0.00    +0.017 C 
ATOM     28  C   UNL     1      -7.600  -7.884  -7.502  0.00  0.00    +0.017 C 
ATOM     29  C   UNL     1      -8.136  -7.406  -5.109  0.00  0.00    +0.017 C 
ENDBRANCH  19  26
ENDBRANCH   3  17
TORSDOF 5
