REMARK  Name = ZINC38546959
REMARK  8 active torsions:
REMARK  status: ('A' for Active; 'I' for Inactive)
REMARK    1  A    between atoms: C_1  and  C_2
REMARK    2  A    between atoms: C_6  and  N_8
REMARK    3  A    between atoms: N_8  and  C_9
REMARK    4  A    between atoms: C_9  and  C_11
REMARK    5  A    between atoms: C_9  and  C_18
REMARK    6  A    between atoms: C_20  and  C_31
REMARK    7  A    between atoms: C_22  and  N_23
REMARK    8  A    between atoms: C_24  and  C_26
REMARK                            x       y       z     vdW  Elec       q    Type
REMARK                         _______ _______ _______ _____ _____    ______ ____
ROOT
ATOM      1  C   UNL     1       0.087  -4.177   2.576  0.00  0.00    +0.136 C 
ENDROOT
BRANCH   1   2
ATOM      2  C   UNL     1      -1.258  -4.848   2.465  0.00  0.00    -0.004 A 
ATOM      3  C   UNL     1      -2.399  -4.180   2.869  0.00  0.00    +0.007 A 
ATOM      4  C   UNL     1      -3.633  -4.795   2.767  0.00  0.00    +0.000 A 
ATOM      5  C   UNL     1      -3.726  -6.079   2.261  0.00  0.00    +0.001 A 
ATOM      6  C   UNL     1      -2.586  -6.747   1.857  0.00  0.00    +0.020 A 
ATOM      7  C   UNL     1      -1.351  -6.129   1.953  0.00  0.00    +0.046 A 
ATOM      8 CL   UNL     1       0.081  -6.966   1.440  0.00  0.00    -0.083 Cl
ENDBRANCH   1   2
BRANCH   1   9
ATOM      9  C   UNL     1       0.739  -4.571   3.876  0.00  0.00    +0.006 A 
ATOM     10  C   UNL     1      -0.006  -5.138   4.894  0.00  0.00    +0.018 A 
ATOM     11  C   UNL     1       0.612  -5.482   6.049  0.00  0.00    -0.011 A 
ATOM     12  S   UNL     1       2.301  -5.003   5.726  0.00  0.00    -0.078 S 
ATOM     13  C   UNL     1       2.075  -4.380   4.068  0.00  0.00    +0.078 A 
ATOM     14  C   UNL     1       0.025  -6.106   7.288  0.00  0.00    +0.051 C 
BRANCH  13  15
ATOM     15  N   UNL     1       3.020  -3.837   3.196  0.00  0.00    -0.273 N 
ATOM     16  C   UNL     1       4.325  -3.834   3.533  0.00  0.00    +0.284 C 
ATOM     17  O   UNL     1       4.679  -4.305   4.598  0.00  0.00    -0.266 OA
ATOM     18  H   UNL     1       2.737  -3.462   2.347  0.00  0.00    +0.156 HD
BRANCH  16  19
ATOM     19  C   UNL     1       5.317  -3.264   2.617  0.00  0.00    +0.189 A 
ATOM     20  C   UNL     1       6.665  -3.202   2.831  0.00  0.00    +0.054 A 
ATOM     21  C   UNL     1       7.225  -2.583   1.703  0.00  0.00    +0.042 A 
ATOM     22  C   UNL     1       6.208  -2.297   0.860  0.00  0.00    +0.196 A 
ATOM     23  O   UNL     1       5.061  -2.714   1.412  0.00  0.00    -0.458 OA
ENDBRANCH  16  19
ENDBRANCH  13  15
ENDBRANCH   1   9
BRANCH   1  24
ATOM     24  N   UNL     1      -0.088  -2.723   2.539  0.00  0.00    -0.320 N 
ATOM     25  H   UNL     1      -0.149  -2.220   3.366  0.00  0.00    +0.148 HD
BRANCH  24  31
ATOM     26  C   UNL     1      -0.587   1.412   0.177  0.00  0.00    +0.063 C 
ATOM     27  C   UNL     1      -0.407  -0.084   0.154  0.00  0.00    +0.014 A 
ATOM     28  C   UNL     1      -0.327  -0.742  -1.057  0.00  0.00    +0.021 A 
ATOM     29  C   UNL     1      -0.161  -2.120  -1.073  0.00  0.00    +0.005 A 
ATOM     30  C   UNL     1      -0.080  -2.789   0.135  0.00  0.00    +0.041 A 
ATOM     31  C   UNL     1      -0.168  -2.063   1.318  0.00  0.00    +0.097 A 
ATOM     32  N   UNL     1      -0.321  -0.748   1.291  0.00  0.00    -0.347 N 
ATOM     33  H   UNL     1      -0.375  -0.261   2.128  0.00  0.00    +0.167 HD
ENDBRANCH  24  31
ENDBRANCH   1  24
TORSDOF 6
