REMARK  Name = ZINC04578081
REMARK  5 active torsions:
REMARK  status: ('A' for Active; 'I' for Inactive)
REMARK    1  A    between atoms: C_1  and  C_2
REMARK    2  A    between atoms: C_4  and  C_22
REMARK    3  A    between atoms: C_6  and  S_8
REMARK    4  A    between atoms: S_8  and  C_9
REMARK    5  A    between atoms: N_13  and  O_14
REMARK                            x       y       z     vdW  Elec       q    Type
REMARK                         _______ _______ _______ _____ _____    ______ ____
ROOT
ATOM      1  S   UNL     1       0.055  -2.865   2.677  0.00  0.00    -0.080 S 
ENDROOT
BRANCH   1   2
ATOM      2  C   UNL     1       0.042  -1.542   3.919  0.00  0.00    +0.091 C 
ATOM      3  C   UNL     1       1.343  -0.734   3.820  0.00  0.00    +0.076 C 
ATOM      4  C   UNL     1       2.462  -1.569   4.413  0.00  0.00    +0.114 C 
ATOM      5  N   UNL     1       3.599  -1.680   3.837  0.00  0.00    -0.091 NA
ATOM      6  C   UNL     1       2.157  -2.268   5.732  0.00  0.00    +0.300 C 
ATOM      7  O   UNL     1       1.702  -1.245   6.643  0.00  0.00    -0.343 OA
ATOM      8  C   UNL     1       0.299  -1.056   6.382  0.00  0.00    +0.196 C 
ATOM      9  C   UNL     1      -0.066  -2.156   5.320  0.00  0.00    +0.161 C 
ATOM     10  O   UNL     1       1.010  -3.114   5.477  0.00  0.00    -0.339 OA
BRANCH   5  11
ATOM     11  O   UNL     1       3.841  -1.012   2.612  0.00  0.00    -0.409 OA
ATOM     12  H   UNL     1       4.728  -1.155   2.254  0.00  0.00    +0.328 HD
ENDBRANCH   5  11
ENDBRANCH   1   2
BRANCH   1  18
ATOM     13  C   UNL     1      -0.018   1.503   0.010  0.00  0.00    +0.066 C 
ATOM     14  C   UNL     1       0.002  -0.004   0.002  0.00  0.00    +0.043 A 
ATOM     15  C   UNL     1       0.006  -0.699  -1.198  0.00  0.00    +0.052 A 
ATOM     16  C   UNL     1       0.025  -2.084  -1.161  0.00  0.00    +0.111 A 
ATOM     17  N   UNL     1       0.040  -2.699   0.010  0.00  0.00    -0.221 NA
ATOM     18  C   UNL     1       0.035  -2.005   1.139  0.00  0.00    +0.189 A 
ATOM     19  N   UNL     1       0.022  -0.679   1.139  0.00  0.00    -0.227 NA
BRANCH  16  20
ATOM     20  C   UNL     1       0.030  -2.881  -2.440  0.00  0.00    +0.390 C 
ATOM     21  F   UNL     1      -0.612  -4.106  -2.229  0.00  0.00    -0.202 F 
ATOM     22  F   UNL     1      -0.645  -2.167  -3.437  0.00  0.00    -0.202 F 
ENDBRANCH  16  20
ENDBRANCH   1  18
TORSDOF 4
