REMARK  Name = ZINC10736533
REMARK  7 active torsions:
REMARK  status: ('A' for Active; 'I' for Inactive)
REMARK    1  A    between atoms: C_1  and  N_2
REMARK    2  A    between atoms: C_4  and  C_11
REMARK    3  A    between atoms: N_13  and  N_14
REMARK    4  A    between atoms: C_15  and  C_17
REMARK    5  A    between atoms: C_17  and  C_18
REMARK    6  A    between atoms: C_18  and  C_19
REMARK    7  A    between atoms: C_19  and  N_20
REMARK                            x       y       z     vdW  Elec       q    Type
REMARK                         _______ _______ _______ _____ _____    ______ ____
ROOT
ATOM      1  N   UNL     1       1.193   1.683  -0.000  0.00  0.00    -0.234 N 
ATOM      2  C   UNL     1       2.369   1.025  -0.015  0.00  0.00    +0.229 C 
ATOM      3  O   UNL     1       2.385  -0.188  -0.022  0.00  0.00    -0.274 OA
ATOM      4  H   UNL     1       1.179   2.653   0.005  0.00  0.00    +0.173 HD
ENDROOT
BRANCH   1   7
ATOM      5  C   UNL     1      -1.187   1.624   0.017  0.00  0.00    +0.262 C 
ATOM      6  O   UNL     1      -1.204   2.840   0.023  0.00  0.00    -0.269 OA
ATOM      7  N   UNL     1      -0.011   0.966   0.007  0.00  0.00    -0.230 N 
ATOM      8  H   UNL     1       0.002  -0.004   0.002  0.00  0.00    +0.173 HD
BRANCH   5  12
ATOM      9  C   UNL     1      -4.433  -2.175   0.012  0.00  0.00    +0.149 C 
ATOM     10  N   UNL     1      -3.908  -0.807   0.017  0.00  0.00    -0.349 N 
ATOM     11  C   UNL     1      -2.592  -0.484   0.012  0.00  0.00    +0.099 A 
ATOM     12  C   UNL     1      -2.450   0.872   0.018  0.00  0.00    +0.063 A 
ATOM     13  C   UNL     1      -3.812   1.435   0.034  0.00  0.00    +0.012 A 
ATOM     14  C   UNL     1      -4.683   0.334   0.027  0.00  0.00    +0.050 A 
ATOM     15  C   UNL     1      -6.057   0.551   0.035  0.00  0.00    +0.026 A 
ATOM     16  C   UNL     1      -6.550   1.838   0.044  0.00  0.00    +0.002 A 
ATOM     17  C   UNL     1      -5.688   2.925   0.046  0.00  0.00    +0.001 A 
ATOM     18  C   UNL     1      -4.324   2.730   0.038  0.00  0.00    +0.011 A 
ENDBRANCH   5  12
ENDBRANCH   1   7
BRANCH   2  19
ATOM     19  C   UNL     1       3.663   1.796  -0.023  0.00  0.00    +0.099 C 
BRANCH  19  20
ATOM     20  C   UNL     1       4.840   0.818  -0.040  0.00  0.00    +0.029 C 
BRANCH  20  21
ATOM     21  C   UNL     1       6.154   1.601  -0.048  0.00  0.00    +0.117 C 
BRANCH  21  22
ATOM     22  N   UNL     1       7.280   0.664  -0.064  0.00  0.00    -0.234 N 
ATOM     23  C   UNL     1       7.794   0.247   1.109  0.00  0.00    +0.254 C 
ATOM     24  O   UNL     1       7.320   0.651   2.154  0.00  0.00    -0.270 OA
ATOM     25  C   UNL     1       8.921  -0.696   1.134  0.00  0.00    +0.046 A 
ATOM     26  C   UNL     1       9.478  -1.154   2.319  0.00  0.00    +0.014 A 
ATOM     27  C   UNL     1      10.546  -2.043   2.291  0.00  0.00    +0.001 A 
ATOM     28  C   UNL     1      11.076  -2.487   1.114  0.00  0.00    +0.008 A 
ATOM     29  C   UNL     1      10.541  -2.047  -0.110  0.00  0.00    -0.016 A 
ATOM     30  C   UNL     1       9.457  -1.145  -0.094  0.00  0.00    +0.006 A 
ATOM     31  C   UNL     1       8.897  -0.684  -1.307  0.00  0.00    +0.046 A 
ATOM     32  C   UNL     1       9.430  -1.130  -2.508  0.00  0.00    +0.014 A 
ATOM     33  C   UNL     1      10.499  -2.019  -2.510  0.00  0.00    +0.001 A 
ATOM     34  C   UNL     1      11.052  -2.475  -1.347  0.00  0.00    +0.008 A 
ATOM     35  C   UNL     1       7.768   0.256  -1.251  0.00  0.00    +0.254 C 
ATOM     36  O   UNL     1       7.270   0.666  -2.282  0.00  0.00    -0.270 OA
ENDBRANCH  21  22
ENDBRANCH  20  21
ENDBRANCH  19  20
ENDBRANCH   2  19
TORSDOF 6
