REMARK  Name = ZINC47534291
REMARK  5 active torsions:
REMARK  status: ('A' for Active; 'I' for Inactive)
REMARK    1  A    between atoms: C_1  and  C_2
REMARK    2  A    between atoms: C_2  and  C_4
REMARK    3  A    between atoms: C_2  and  N_16
REMARK    4  A    between atoms: C_17  and  C_19
REMARK    5  A    between atoms: C_20  and  C_21
REMARK                            x       y       z     vdW  Elec       q    Type
REMARK                         _______ _______ _______ _____ _____    ______ ____
ROOT
ATOM      1  N   UNL     1       0.532  -1.062  -1.088  0.00  0.00    -0.305 N 
ATOM      2  C   UNL     1      -0.117  -1.209  -2.260  0.00  0.00    +0.237 C 
ATOM      3  O   UNL     1      -1.333  -1.267  -2.279  0.00  0.00    -0.271 OA
ATOM      4  H   UNL     1       1.501  -1.015  -1.073  0.00  0.00    +0.150 HD
ENDROOT
BRANCH   1   6
ATOM      5  C   UNL     1      -0.663   0.475   0.392  0.00  0.00    +0.033 C 
ATOM      6  C   UNL     1      -0.225  -0.973   0.163  0.00  0.00    +0.100 C 
BRANCH   6   7
ATOM      7  C   UNL     1       0.643  -1.423   1.309  0.00  0.00    -0.025 A 
ATOM      8  C   UNL     1       1.978  -1.055   1.348  0.00  0.00    +0.007 A 
ATOM      9  C   UNL     1       2.782  -1.462   2.394  0.00  0.00    +0.028 A 
ATOM     10  C   UNL     1       2.251  -2.243   3.410  0.00  0.00    +0.067 A 
ATOM     11  C   UNL     1       0.905  -2.614   3.370  0.00  0.00    +0.067 A 
ATOM     12  C   UNL     1       0.104  -2.195   2.319  0.00  0.00    +0.033 A 
ATOM     13  N   UNL     1       0.666  -3.382   4.507  0.00  0.00    -0.306 N 
ATOM     14  H   UNL     1      -0.183  -3.783   4.753  0.00  0.00    +0.170 HD
ATOM     15  C   UNL     1       1.813  -3.474   5.206  0.00  0.00    +0.325 A 
ATOM     16  O   UNL     1       1.949  -4.078   6.254  0.00  0.00    -0.247 OA
ATOM     17  N   UNL     1       2.787  -2.797   4.570  0.00  0.00    -0.306 N 
ATOM     18  H   UNL     1       3.706  -2.711   4.868  0.00  0.00    +0.170 HD
ENDBRANCH   6   7
ENDBRANCH   1   6
BRANCH   2  19
ATOM     19  C   UNL     1       0.639  -1.298  -3.509  0.00  0.00    +0.068 C 
ATOM     20  C   UNL     1      -0.011  -1.308  -4.692  0.00  0.00    +0.013 C 
BRANCH  20  21
ATOM     21  C   UNL     1      -1.443  -0.979  -4.747  0.00  0.00    -0.021 A 
ATOM     22  C   UNL     1      -1.932   0.142  -4.066  0.00  0.00    +0.012 A 
ATOM     23  C   UNL     1      -3.274   0.448  -4.120  0.00  0.00    +0.050 A 
ATOM     24  C   UNL     1      -4.145  -0.352  -4.849  0.00  0.00    +0.166 A 
ATOM     25  C   UNL     1      -3.664  -1.471  -5.531  0.00  0.00    +0.167 A 
ATOM     26  C   UNL     1      -2.320  -1.782  -5.485  0.00  0.00    +0.057 A 
ATOM     27  O   UNL     1      -4.711  -2.080  -6.161  0.00  0.00    -0.453 OA
ATOM     28  C   UNL     1      -5.895  -1.561  -5.527  0.00  0.00    +0.466 C 
ATOM     29  O   UNL     1      -5.490  -0.262  -5.055  0.00  0.00    -0.453 OA
ENDBRANCH  20  21
ENDBRANCH   2  19
TORSDOF 4
