REMARK  Name = ZINC07911626
REMARK  11 active torsions:
REMARK  status: ('A' for Active; 'I' for Inactive)
REMARK    1  A    between atoms: C_1  and  C_2
REMARK    2  A    between atoms: C_4  and  C_30
REMARK    3  A    between atoms: C_5  and  C_29
REMARK    4  A    between atoms: C_6  and  S_9
REMARK    5  A    between atoms: C_7  and  C_8
REMARK    6  A    between atoms: S_9  and  N_12
REMARK    7  A    between atoms: N_12  and  C_13
REMARK    8  A    between atoms: C_13  and  C_15
REMARK    9  A    between atoms: C_13  and  C_16
REMARK   10  A    between atoms: N_18  and  C_19
REMARK   11  A    between atoms: C_19  and  C_20
REMARK                            x       y       z     vdW  Elec       q    Type
REMARK                         _______ _______ _______ _____ _____    ______ ____
ROOT
ATOM      1  C   UNL     1       9.255  -1.889   1.156  0.00  0.00    +0.159 C 
ATOM      2  C   UNL     1       8.694  -3.268   0.805  0.00  0.00    +0.035 C 
ENDROOT
BRANCH   1   3
ATOM      3  C   UNL     1       8.737  -1.465   2.506  0.00  0.00    +0.232 C 
ATOM      4  O   UNL     1       9.513  -1.237   3.409  0.00  0.00    -0.274 OA
ATOM      5  N   UNL     1       7.410  -1.338   2.709  0.00  0.00    -0.310 N 
ATOM      6  H   UNL     1       6.790  -1.520   1.986  0.00  0.00    +0.149 HD
BRANCH   5   7
ATOM      7  C   UNL     1       6.906  -0.926   4.021  0.00  0.00    +0.139 C 
BRANCH   7   8
ATOM      8  C   UNL     1       5.401  -0.862   3.984  0.00  0.00    -0.027 A 
ATOM      9  C   UNL     1       4.655  -1.980   4.305  0.00  0.00    +0.009 A 
ATOM     10  C   UNL     1       3.274  -1.926   4.272  0.00  0.00    +0.050 A 
ATOM     11  C   UNL     1       2.634  -0.750   3.916  0.00  0.00    +0.166 A 
ATOM     12  C   UNL     1       3.386   0.377   3.593  0.00  0.00    +0.167 A 
ATOM     13  C   UNL     1       4.770   0.316   3.629  0.00  0.00    +0.054 A 
ATOM     14  O   UNL     1       2.533   1.396   3.281  0.00  0.00    -0.453 OA
ATOM     15  C   UNL     1       1.254   1.002   3.811  0.00  0.00    +0.466 C 
ATOM     16  O   UNL     1       1.310  -0.437   3.807  0.00  0.00    -0.453 OA
ENDBRANCH   7   8
ENDBRANCH   5   7
ENDBRANCH   1   3
BRANCH   1  17
ATOM     17  N   UNL     1      10.718  -1.951   1.192  0.00  0.00    -0.178 NA
ATOM     18  H   UNL     1      11.170  -2.273   1.988  0.00  0.00    +0.149 HD
BRANCH  17  19
ATOM     19  S   UNL     1      11.601  -1.472  -0.124  0.00  0.00    +0.060 S 
ATOM     20  O   UNL     1      12.969  -1.592   0.238  0.00  0.00    -0.153 OA
ATOM     21  O   UNL     1      11.049  -2.143  -1.249  0.00  0.00    -0.153 OA
BRANCH  19  27
ATOM     22  C   UNL     1       9.145   2.457  -2.544  0.00  0.00    +0.044 C 
ATOM     23  C   UNL     1      10.137   2.007  -1.503  0.00  0.00    -0.045 A 
ATOM     24  C   UNL     1      10.805   2.942  -0.735  0.00  0.00    +0.007 A 
ATOM     25  C   UNL     1      11.716   2.530   0.220  0.00  0.00    -0.045 A 
ATOM     26  C   UNL     1      11.958   1.181   0.407  0.00  0.00    -0.021 A 
ATOM     27  C   UNL     1      11.291   0.246  -0.362  0.00  0.00    +0.112 A 
ATOM     28  C   UNL     1      10.384   0.659  -1.320  0.00  0.00    -0.021 A 
ATOM     29  C   UNL     1       9.661  -0.360  -2.162  0.00  0.00    +0.046 C 
ATOM     30  C   UNL     1      12.951   0.732   1.447  0.00  0.00    +0.046 C 
ATOM     31  C   UNL     1      12.444   3.549   1.058  0.00  0.00    +0.044 C 
ENDBRANCH  19  27
ENDBRANCH  17  19
ENDBRANCH   1  17
TORSDOF 6
