REMARK  Name = ZINC65384181
REMARK  6 active torsions:
REMARK  status: ('A' for Active; 'I' for Inactive)
REMARK    1  A    between atoms: C_1  and  C_2
REMARK    2  A    between atoms: C_2  and  C_3
REMARK    3  A    between atoms: C_2  and  C_4
REMARK    4  A    between atoms: C_6  and  C_10
REMARK    5  A    between atoms: C_17  and  C_19
REMARK    6  A    between atoms: C_22  and  C_25
REMARK                            x       y       z     vdW  Elec       q    Type
REMARK                         _______ _______ _______ _____ _____    ______ ____
ROOT
ATOM      1  C   UNL     1      -3.889  -2.013  -1.616  0.00  0.00    +0.128 C 
ATOM      2  C   UNL     1      -3.549  -0.848  -2.551  0.00  0.00    +0.027 C 
ATOM      3  C   UNL     1      -4.340  -0.997  -3.853  0.00  0.00    +0.003 C 
ATOM      4  C   UNL     1      -5.839  -0.951  -3.550  0.00  0.00    +0.019 C 
ATOM      5  C   UNL     1      -6.205  -2.117  -2.626  0.00  0.00    +0.108 C 
ATOM      6  N   UNL     1      -5.346  -2.068  -1.435  0.00  0.00    -0.292 N 
ATOM      7  C   UNL     1      -5.885  -2.069  -0.199  0.00  0.00    +0.246 C 
ATOM      8  O   UNL     1      -5.166  -2.135   0.776  0.00  0.00    -0.273 OA
ENDROOT
BRANCH   1  11
ATOM      9  C   UNL     1      -1.438  -0.450   0.001  0.00  0.00    +0.105 C 
ATOM     10  N   UNL     1      -1.765  -1.615  -0.439  0.00  0.00    -0.345 N 
ATOM     11  C   UNL     1      -3.211  -1.798  -0.262  0.00  0.00    +0.263 C 
ATOM     12  O   UNL     1      -3.675  -0.579   0.342  0.00  0.00    -0.246 OA
ATOM     13  N   UNL     1      -2.517   0.229   0.488  0.00  0.00    -0.251 N 
ATOM     14  H   UNL     1      -2.497   1.120   0.870  0.00  0.00    +0.195 HD
ATOM     15  H   UNL     1      -1.157  -2.264  -0.825  0.00  0.00    +0.163 HD
BRANCH   9  17
ATOM     16  C   UNL     1      -0.079   1.624  -0.016  0.00  0.00    +0.015 C 
ATOM     17  C   UNL     1      -0.033   0.095  -0.013  0.00  0.00    +0.048 C 
ATOM     18  C   UNL     1       0.715  -0.390   1.230  0.00  0.00    +0.015 C 
ENDBRANCH   9  17
ENDBRANCH   1  11
BRANCH   7  19
ATOM     19  C   UNL     1      -7.380  -1.988  -0.029  0.00  0.00    +0.238 C 
ATOM     20  C   UNL     1      -7.853  -0.548  -0.118  0.00  0.00    +0.036 C 
ATOM     21  C   UNL     1      -8.399  -0.315   1.078  0.00  0.00    +0.065 C 
ATOM     22  N   UNL     1      -8.318  -1.411   1.865  0.00  0.00    -0.158 NA
ATOM     23  N   UNL     1      -7.771  -2.386   1.335  0.00  0.00    -0.170 NA
BRANCH  21  24
ATOM     24  C   UNL     1      -9.022   0.993   1.493  0.00  0.00    +0.039 C 
ATOM     25  C   UNL     1      -9.419   1.151   2.963  0.00  0.00    +0.010 C 
ATOM     26  C   UNL     1     -10.499   0.976   1.893  0.00  0.00    +0.010 C 
ENDBRANCH  21  24
ENDBRANCH   7  19
TORSDOF 4
