REMARK  Name = ZINC20244310
REMARK  3 active torsions:
REMARK  status: ('A' for Active; 'I' for Inactive)
REMARK    1  A    between atoms: C_1  and  C_2
REMARK    2  A    between atoms: C_7  and  N_8
REMARK    3  A    between atoms: C_15  and  N_19
REMARK                            x       y       z     vdW  Elec       q    Type
REMARK                         _______ _______ _______ _____ _____    ______ ____
ROOT
ATOM      1  N   UNL     1      -0.517   3.625   0.026  0.00  0.00    -0.202 N 
ATOM      2  C   UNL     1       0.825   3.535   0.013  0.00  0.00    +0.258 C 
ATOM      3  O   UNL     1       1.599   4.472   0.011  0.00  0.00    -0.269 OA
ATOM      4  C   UNL     1       1.200   2.106   0.002  0.00  0.00    +0.052 A 
ATOM      5  C   UNL     1       2.402   1.421  -0.013  0.00  0.00    +0.014 A 
ATOM      6  C   UNL     1       2.409   0.033  -0.021  0.00  0.00    +0.003 A 
ATOM      7  C   UNL     1       1.227  -0.675  -0.013  0.00  0.00    +0.023 A 
ATOM      8  C   UNL     1       0.002  -0.004   0.002  0.00  0.00    +0.038 A 
ATOM      9  C   UNL     1      -0.017   1.390   0.010  0.00  0.00    +0.070 A 
ATOM     10  C   UNL     1      -1.084   2.405   0.019  0.00  0.00    +0.260 C 
ATOM     11  O   UNL     1      -2.277   2.178   0.022  0.00  0.00    -0.269 OA
ENDROOT
BRANCH   1  18
ATOM     12  C   UNL     1      -1.190   4.761   2.547  0.00  0.00    +0.045 C 
ATOM     13  C   UNL     1      -1.580   5.419   1.248  0.00  0.00    -0.028 A 
ATOM     14  C   UNL     1      -2.279   6.610   1.260  0.00  0.00    +0.008 A 
ATOM     15  C   UNL     1      -2.643   7.212   0.069  0.00  0.00    +0.039 A 
ATOM     16  C   UNL     1      -2.302   6.625  -1.138  0.00  0.00    +0.125 A 
ATOM     17  C   UNL     1      -1.597   5.435  -1.155  0.00  0.00    +0.062 A 
ATOM     18  C   UNL     1      -1.231   4.830   0.040  0.00  0.00    +0.050 A 
ATOM     19  F   UNL     1      -2.658   7.215  -2.300  0.00  0.00    -0.205 F 
ENDBRANCH   1  18
BRANCH   8  20
ATOM     20  N   UNL     1      -1.187  -0.719   0.010  0.00  0.00    -0.357 N 
ATOM     21  H   UNL     1      -2.149  -0.186   0.022  0.00  0.00    +0.142 HD
ATOM     22  H   UNL     1      -1.167  -1.819   0.004  0.00  0.00    +0.142 HD
ENDBRANCH   8  20
TORSDOF 2
