REMARK  Name = ZINC26803545
REMARK  4 active torsions:
REMARK  status: ('A' for Active; 'I' for Inactive)
REMARK    1  A    between atoms: C_4  and  C_7
REMARK    2  A    between atoms: N_12  and  C_13
REMARK    3  A    between atoms: C_14  and  C_29
REMARK    4  A    between atoms: C_15  and  C_18
REMARK                            x       y       z     vdW  Elec       q    Type
REMARK                         _______ _______ _______ _____ _____    ______ ____
ROOT
ATOM      1  C   UNL     1       1.751   5.788  -0.280  0.00  0.00    +0.087 A 
ATOM      2  C   UNL     1       2.018   4.474   0.089  0.00  0.00    +0.098 A 
ATOM      3  C   UNL     1       1.066   3.475  -0.336  0.00  0.00    +0.019 A 
ATOM      4  C   UNL     1       0.003   3.900  -1.040  0.00  0.00    +0.055 A 
ATOM      5  S   UNL     1       0.262   5.658  -1.154  0.00  0.00    -0.081 S 
ENDROOT
BRANCH   3   6
ATOM      6  C   UNL     1       1.254   2.018   0.001  0.00  0.00    +0.242 C 
ATOM      7  C   UNL     1       2.136   1.350  -1.063  0.00  0.00    +0.278 C 
ATOM      8  O   UNL     1       2.282  -0.032  -0.720  0.00  0.00    -0.484 OA
ATOM      9  C   UNL     1       1.149  -0.698  -0.366  0.00  0.00    +0.162 A 
ATOM     10  C   UNL     1       1.144  -2.085  -0.371  0.00  0.00    +0.049 A 
ATOM     11  C   UNL     1       0.003  -2.775  -0.008  0.00  0.00    +0.004 A 
ATOM     12  C   UNL     1      -1.137  -2.084   0.361  0.00  0.00    +0.004 A 
ATOM     13  C   UNL     1      -1.140  -0.703   0.366  0.00  0.00    +0.049 A 
ATOM     14  C   UNL     1       0.002  -0.004   0.002  0.00  0.00    +0.163 A 
ATOM     15  O   UNL     1      -0.016   1.357   0.009  0.00  0.00    -0.477 OA
ENDBRANCH   3   6
BRANCH   1  21
ATOM     16  C   UNL     1       2.366  10.437  -0.622  0.00  0.00    +0.251 C 
ATOM     17  O   UNL     1       1.333  10.522  -1.256  0.00  0.00    -0.270 OA
ATOM     18  N   UNL     1       2.790   9.236  -0.184  0.00  0.00    -0.236 N 
ATOM     19  C   UNL     1       2.068   8.128  -0.447  0.00  0.00    +0.311 C 
ATOM     20  O   UNL     1       1.035   8.213  -1.081  0.00  0.00    -0.252 OA
ATOM     21  N   UNL     1       2.493   6.927  -0.009  0.00  0.00    -0.263 N 
ATOM     22  H   UNL     1       3.726   9.158   0.390  0.00  0.00    +0.159 HD
ATOM     23  H   UNL     1       3.429   6.850   0.565  0.00  0.00    +0.157 HD
BRANCH  16  27
ATOM     24  C   UNL     1       4.640  13.926   0.210  0.00  0.00    +0.000 A 
ATOM     25  C   UNL     1       3.464  14.027  -0.512  0.00  0.00    +0.001 A 
ATOM     26  C   UNL     1       2.721  12.897  -0.786  0.00  0.00    +0.013 A 
ATOM     27  C   UNL     1       3.158  11.651  -0.333  0.00  0.00    +0.037 A 
ATOM     28  C   UNL     1       4.342  11.557   0.399  0.00  0.00    +0.013 A 
ATOM     29  C   UNL     1       5.079  12.694   0.662  0.00  0.00    +0.001 A 
ENDBRANCH  16  27
ENDBRANCH   1  21
BRANCH   2  30
ATOM     30  C   UNL     1       3.208   4.121   0.866  0.00  0.00    +0.389 C 
ATOM     31  O   UNL     1       4.244   3.837   0.296  0.00  0.00    -0.240 OA
ATOM     32  O   UNL     1       3.155   4.110   2.214  0.00  0.00    -0.240 OA
ENDBRANCH   2  30
TORSDOF 4
