REMARK  Name = ZINC05886649
REMARK  7 active torsions:
REMARK  status: ('A' for Active; 'I' for Inactive)
REMARK    1  A    between atoms: C_1  and  C_2
REMARK    2  A    between atoms: N_4  and  N_5
REMARK    3  A    between atoms: C_6  and  C_8
REMARK    4  A    between atoms: C_8  and  S_9
REMARK    5  A    between atoms: S_9  and  C_10
REMARK    6  A    between atoms: C_13  and  C_21
REMARK    7  A    between atoms: N_14  and  C_15
REMARK                            x       y       z     vdW  Elec       q    Type
REMARK                         _______ _______ _______ _____ _____    ______ ____
ROOT
ATOM      1  C   UNL     1       0.804  -2.922   0.970  0.00  0.00    +0.197 A 
ATOM      2  N   UNL     1       1.004  -4.152   0.553  0.00  0.00    -0.122 NA
ATOM      3  N   UNL     1       1.536  -4.143  -0.617  0.00  0.00    -0.125 NA
ATOM      4  C   UNL     1       1.704  -2.904  -1.025  0.00  0.00    +0.205 A 
ATOM      5  N   UNL     1       1.237  -2.082  -0.021  0.00  0.00    -0.268 N 
ENDROOT
BRANCH   5   6
ATOM      6  C   UNL     1       1.214  -0.680  -0.013  0.00  0.00    +0.051 A 
ATOM      7  C   UNL     1       0.002  -0.004   0.002  0.00  0.00    +0.026 A 
ATOM      8  C   UNL     1      -0.017   1.377   0.010  0.00  0.00    +0.002 A 
ATOM      9  C   UNL     1       1.171   2.086   0.002  0.00  0.00    +0.000 A 
ATOM     10  C   UNL     1       2.380   1.415  -0.013  0.00  0.00    +0.002 A 
ATOM     11  C   UNL     1       2.405   0.034  -0.021  0.00  0.00    +0.026 A 
ENDBRANCH   5   6
BRANCH   4  12
ATOM     12  C   UNL     1       2.283  -2.476  -2.308  0.00  0.00    +0.172 A 
ATOM     13  C   UNL     1       3.001  -3.258  -3.162  0.00  0.00    +0.053 A 
ATOM     14  C   UNL     1       3.352  -2.445  -4.258  0.00  0.00    +0.042 A 
ATOM     15  C   UNL     1       2.845  -1.219  -4.019  0.00  0.00    +0.196 A 
ATOM     16  O   UNL     1       2.200  -1.241  -2.841  0.00  0.00    -0.460 OA
ENDBRANCH   4  12
BRANCH   1  17
ATOM     17  S   UNL     1       0.106  -2.444   2.515  0.00  0.00    -0.076 S 
BRANCH  17  18
ATOM     18  C   UNL     1      -0.198  -4.074   3.241  0.00  0.00    +0.174 C 
BRANCH  18  20
ATOM     19  N   UNL     1      -1.126  -4.995   5.341  0.00  0.00    -0.234 N 
ATOM     20  C   UNL     1      -0.812  -3.909   4.608  0.00  0.00    +0.239 C 
ATOM     21  O   UNL     1      -1.024  -2.798   5.047  0.00  0.00    -0.273 OA
ATOM     22  H   UNL     1      -0.933  -6.002   4.942  0.00  0.00    +0.173 HD
BRANCH  19  26
ATOM     23  C   UNL     1      -2.625  -5.763   8.711  0.00  0.00    +0.110 C 
ATOM     24  C   UNL     1      -2.011  -5.928   7.345  0.00  0.00    +0.226 C 
ATOM     25  O   UNL     1      -1.799  -7.038   6.905  0.00  0.00    -0.275 OA
ATOM     26  N   UNL     1      -1.697  -4.841   6.611  0.00  0.00    -0.235 N 
ATOM     27  H   UNL     1      -1.889  -3.834   7.010  0.00  0.00    +0.173 HD
ENDBRANCH  19  26
ENDBRANCH  18  20
ENDBRANCH  17  18
ENDBRANCH   1  17
TORSDOF 6
