REMARK  Name = ZINC66746010
REMARK  5 active torsions:
REMARK  status: ('A' for Active; 'I' for Inactive)
REMARK    1  A    between atoms: C_10  and  C_11
REMARK    2  A    between atoms: C_10  and  O_25
REMARK    3  A    between atoms: C_11  and  N_12
REMARK    4  A    between atoms: C_13  and  C_14
REMARK    5  A    between atoms: C_18  and  N_21
REMARK                            x       y       z     vdW  Elec       q    Type
REMARK                         _______ _______ _______ _____ _____    ______ ____
ROOT
ATOM      1  N   UNL     1       5.957  -0.681   0.958  0.00  0.00    -0.387 N 
ATOM      2  C   UNL     1       7.099  -0.073   0.607  0.00  0.00    +0.090 C 
ATOM      3  H   UNL     1       5.955  -1.630   1.162  0.00  0.00    +0.159 HD
ENDROOT
BRANCH   2   4
ATOM      4  C   UNL     1       8.294  -0.796   0.571  0.00  0.00    +0.041 A 
ATOM      5  C   UNL     1       9.483  -0.203   0.092  0.00  0.00    +0.033 A 
ATOM      6  C   UNL     1      10.636  -0.923   0.066  0.00  0.00    +0.044 A 
ATOM      7  C   UNL     1      10.678  -2.246   0.502  0.00  0.00    +0.056 A 
ATOM      8  C   UNL     1       9.567  -2.875   0.974  0.00  0.00    +0.175 A 
ATOM      9  C   UNL     1       8.342  -2.188   1.036  0.00  0.00    +0.217 A 
ATOM     10  O   UNL     1       7.337  -2.739   1.463  0.00  0.00    -0.285 OA
ATOM     11 CL   UNL     1      12.088  -0.179  -0.526  0.00  0.00    -0.083 Cl
BRANCH   8  12
ATOM     12  N   UNL     1       9.650  -4.282   1.429  0.00  0.00    +0.060 N 
ATOM     13  O   UNL     1      10.704  -4.871   1.381  0.00  0.00    -0.126 OA
ATOM     14  O   UNL     1       8.663  -4.840   1.848  0.00  0.00    -0.126 OA
ENDBRANCH   8  12
ENDBRANCH   2   4
BRANCH   1  15
ATOM     15  C   UNL     1       4.711   0.086   1.032  0.00  0.00    +0.151 C 
BRANCH  15  25
ATOM     16  C   UNL     1       0.219   2.007   0.123  0.00  0.00    +0.000 A 
ATOM     17  C   UNL     1       1.477   2.570   0.227  0.00  0.00    +0.000 A 
ATOM     18  C   UNL     1       2.595   1.764   0.179  0.00  0.00    +0.007 A 
ATOM     19  C   UNL     1       2.467   0.388   0.030  0.00  0.00    -0.011 A 
ATOM     20  C   UNL     1       1.214  -0.173  -0.068  0.00  0.00    -0.041 A 
ATOM     21  C   UNL     1       0.090   0.641  -0.024  0.00  0.00    +0.004 A 
ATOM     22  C   UNL     1       1.000  -1.657  -0.215  0.00  0.00    +0.035 C 
ATOM     23  C   UNL     1       2.286  -2.342  -0.674  0.00  0.00    +0.008 C 
ATOM     24  C   UNL     1       3.425  -1.903   0.253  0.00  0.00    +0.042 C 
ATOM     25  C   UNL     1       3.730  -0.432  -0.022  0.00  0.00    +0.108 C 
BRANCH  25  26
ATOM     26  O   UNL     1       4.320  -0.306  -1.317  0.00  0.00    -0.382 OA
ATOM     27  H   UNL     1       4.557   0.601  -1.555  0.00  0.00    +0.211 HD
ENDBRANCH  25  26
ENDBRANCH  15  25
ENDBRANCH   1  15
TORSDOF 5
