REMARK  Name = ZINC66465823
REMARK  6 active torsions:
REMARK  status: ('A' for Active; 'I' for Inactive)
REMARK    1  A    between atoms: C_1  and  C_2
REMARK    2  A    between atoms: C_6  and  C_29
REMARK    3  A    between atoms: N_8  and  C_9
REMARK    4  A    between atoms: C_9  and  C_10
REMARK    5  A    between atoms: C_10  and  N_11
REMARK    6  A    between atoms: C_22  and  N_26
REMARK                            x       y       z     vdW  Elec       q    Type
REMARK                         _______ _______ _______ _____ _____    ______ ____
ROOT
ATOM      1  N   UNL     1       4.311  -1.023   1.986  0.00  0.00    -0.301 NA
ATOM      2  C   UNL     1       4.870   0.285   1.619  0.00  0.00    +0.103 C 
ATOM      3  C   UNL     1       6.327   0.109   1.177  0.00  0.00    +0.122 C 
ATOM      4  N   UNL     1       7.054  -0.601   2.239  0.00  0.00    -0.307 N 
ATOM      5  C   UNL     1       6.483  -1.854   2.757  0.00  0.00    +0.122 C 
ATOM      6  C   UNL     1       5.020  -1.600   3.137  0.00  0.00    +0.103 C 
ATOM      7  C   UNL     1       8.243  -0.107   2.736  0.00  0.00    +0.162 A 
ATOM      8  N   UNL     1       8.886   0.987   2.396  0.00  0.00    -0.225 NA
ATOM      9  C   UNL     1      10.052   1.352   2.974  0.00  0.00    +0.080 A 
ATOM     10  C   UNL     1      10.840   2.494   2.703  0.00  0.00    +0.031 A 
ATOM     11  C   UNL     1      12.008   2.717   3.386  0.00  0.00    +0.035 A 
ATOM     12  C   UNL     1      12.457   1.838   4.361  0.00  0.00    +0.127 A 
ATOM     13  C   UNL     1      11.710   0.710   4.651  0.00  0.00    +0.050 A 
ATOM     14  C   UNL     1      10.540   0.479   3.973  0.00  0.00    +0.043 A 
ATOM     15  S   UNL     1       9.294  -0.787   4.011  0.00  0.00    -0.052 S 
ENDROOT
BRANCH  12  16
ATOM     16  N   UNL     1      13.722   2.103   5.082  0.00  0.00    +0.056 N 
ATOM     17  O   UNL     1      14.370   3.091   4.822  0.00  0.00    -0.126 OA
ATOM     18  O   UNL     1      14.108   1.333   5.930  0.00  0.00    -0.126 OA
ENDBRANCH  12  16
BRANCH   1  19
ATOM     19  C   UNL     1       2.870  -0.924   2.251  0.00  0.00    +0.066 C 
BRANCH  19  20
ATOM     20  C   UNL     1       2.138  -0.558   0.959  0.00  0.00    -0.063 C 
BRANCH  20  26
ATOM     21  C   UNL     1       0.206  -0.134   3.574  0.00  0.00    -0.013 C 
ATOM     22  C   UNL     1       0.323   0.464   2.171  0.00  0.00    -0.071 C 
ATOM     23  C   UNL     1      -1.052   0.993   1.693  0.00  0.00    -0.017 C 
ATOM     24  C   UNL     1      -0.887   0.948   0.151  0.00  0.00    -0.017 C 
ATOM     25  C   UNL     1      -0.027  -0.314  -0.070  0.00  0.00    -0.071 C 
ATOM     26  N   UNL     1       0.688  -0.583   1.193  0.00  0.00    +0.384 N 
ATOM     27  C   UNL     1       0.979  -0.068  -1.196  0.00  0.00    -0.013 C 
ATOM     28  H   UNL     1       0.419  -1.488   1.549  0.00  0.00    -0.081 HD
ENDBRANCH  20  26
ENDBRANCH  19  20
ENDBRANCH   1  19
TORSDOF 4
