REMARK  Name = ZINC67239371
REMARK  9 active torsions:
REMARK  status: ('A' for Active; 'I' for Inactive)
REMARK    1  A    between atoms: C_1  and  C_2
REMARK    2  A    between atoms: N_10  and  C_25
REMARK    3  A    between atoms: C_11  and  S_13
REMARK    4  A    between atoms: S_13  and  C_14
REMARK    5  A    between atoms: C_14  and  C_15
REMARK    6  A    between atoms: N_17  and  C_18
REMARK    7  A    between atoms: C_25  and  C_26
REMARK    8  A    between atoms: C_26  and  C_27
REMARK    9  A    between atoms: C_26  and  C_28
REMARK                            x       y       z     vdW  Elec       q    Type
REMARK                         _______ _______ _______ _____ _____    ______ ____
ROOT
ATOM      1  C   UNL     1      -0.126   1.496   0.018  0.00  0.00    +0.063 C 
ATOM      2  C   UNL     1      -0.099  -0.011   0.008  0.00  0.00    +0.016 A 
ATOM      3  C   UNL     1      -0.075  -0.782  -1.098  0.00  0.00    +0.051 A 
ATOM      4  C   UNL     1      -0.054  -2.132  -0.686  0.00  0.00    +0.097 A 
ATOM      5  C   UNL     1      -0.067  -2.124   0.714  0.00  0.00    +0.131 A 
ATOM      6  N   UNL     1      -0.088  -0.804   1.115  0.00  0.00    -0.353 N 
ATOM      7  H   UNL     1      -0.097  -0.492   2.033  0.00  0.00    +0.166 HD
ATOM      8  C   UNL     1      -0.050  -3.353   1.399  0.00  0.00    +0.279 A 
ATOM      9  O   UNL     1      -0.060  -3.388   2.618  0.00  0.00    -0.265 OA
ATOM     10  N   UNL     1      -0.023  -4.494   0.675  0.00  0.00    -0.286 N 
ATOM     11  C   UNL     1      -0.011  -4.447  -0.689  0.00  0.00    +0.173 A 
ATOM     12  N   UNL     1      -0.027  -3.308  -1.343  0.00  0.00    -0.222 NA
ENDROOT
BRANCH  11  13
ATOM     13  S   UNL     1       0.026  -5.956  -1.598  0.00  0.00    -0.078 S 
BRANCH  13  14
ATOM     14  C   UNL     1       0.031  -5.424  -3.332  0.00  0.00    +0.173 C 
BRANCH  14  15
ATOM     15  C   UNL     1       0.062  -6.635  -4.229  0.00  0.00    +0.228 C 
ATOM     16  O   UNL     1       0.079  -7.747  -3.745  0.00  0.00    -0.275 OA
ATOM     17  N   UNL     1       0.071  -6.481  -5.568  0.00  0.00    -0.282 N 
ATOM     18  H   UNL     1      -0.004  -5.595  -5.955  0.00  0.00    +0.155 HD
BRANCH  17  19
ATOM     19  C   UNL     1       0.190  -7.601  -6.400  0.00  0.00    +0.071 A 
ATOM     20  C   UNL     1      -0.380  -8.817  -6.033  0.00  0.00    +0.028 A 
ATOM     21  C   UNL     1      -0.236  -9.897  -6.889  0.00  0.00    +0.022 A 
ATOM     22  C   UNL     1       0.464  -9.734  -8.070  0.00  0.00    +0.112 A 
ATOM     23  N   UNL     1       0.993  -8.569  -8.390  0.00  0.00    -0.242 NA
ATOM     24  C   UNL     1       0.874  -7.514  -7.606  0.00  0.00    +0.150 A 
ATOM     25 CL   UNL     1       1.586  -6.004  -8.084  0.00  0.00    -0.060 Cl
ENDBRANCH  17  19
ENDBRANCH  14  15
ENDBRANCH  13  14
ENDBRANCH  11  13
BRANCH  10  26
ATOM     26  C   UNL     1      -0.005  -5.789   1.359  0.00  0.00    +0.130 C 
BRANCH  26  27
ATOM     27  C   UNL     1      -1.441  -6.267   1.585  0.00  0.00    +0.003 C 
ATOM     28  C   UNL     1      -2.108  -6.531   0.234  0.00  0.00    +0.009 C 
ATOM     29  C   UNL     1      -1.426  -7.556   2.408  0.00  0.00    +0.009 C 
ENDBRANCH  26  27
ENDBRANCH  10  26
TORSDOF 6
