REMARK  Name = ZINC15959464
REMARK  8 active torsions:
REMARK  status: ('A' for Active; 'I' for Inactive)
REMARK    1  A    between atoms: C_1  and  C_2
REMARK    2  A    between atoms: C_2  and  C_3
REMARK    3  A    between atoms: C_17  and  C_20
REMARK    4  A    between atoms: C_20  and  C_21
REMARK    5  A    between atoms: C_21  and  C_22
REMARK    6  A    between atoms: N_27  and  C_30
REMARK    7  A    between atoms: C_30  and  C_31
REMARK    8  A    between atoms: C_31  and  C_32
REMARK                            x       y       z     vdW  Elec       q    Type
REMARK                         _______ _______ _______ _____ _____    ______ ____
ROOT
ATOM      1  C   UNL     1       0.707  -0.490  -1.238  0.00  0.00    -0.026 A 
ATOM      2  C   UNL     1      -0.024  -0.816  -2.362  0.00  0.00    +0.005 A 
ATOM      3  C   UNL     1       0.615  -1.262  -3.504  0.00  0.00    +0.001 A 
ATOM      4  C   UNL     1       1.993  -1.383  -3.521  0.00  0.00    +0.008 A 
ATOM      5  C   UNL     1       2.726  -1.060  -2.401  0.00  0.00    +0.004 A 
ATOM      6  C   UNL     1       2.095  -0.603  -1.247  0.00  0.00    +0.042 A 
ATOM      7  N   UNL     1       3.040  -0.334  -0.255  0.00  0.00    -0.283 N 
ATOM      8  C   UNL     1       4.298  -0.579  -0.671  0.00  0.00    +0.243 C 
ATOM      9  O   UNL     1       5.315  -0.434  -0.026  0.00  0.00    -0.273 OA
ATOM     10  C   UNL     1       4.195  -1.077  -2.087  0.00  0.00    +0.136 C 
ATOM     11  C   UNL     1       4.988  -0.180  -3.044  0.00  0.00    +0.122 C 
ATOM     12  C   UNL     1       5.570  -1.156  -4.104  0.00  0.00    +0.107 C 
ATOM     13  C   UNL     1       5.061  -2.550  -3.680  0.00  0.00    +0.068 C 
ATOM     14  N   UNL     1       4.763  -2.430  -2.235  0.00  0.00    -0.295 NA
ATOM     15  C   UNL     1       4.885  -0.729  -5.383  0.00  0.00    +0.227 C 
ATOM     16  O   UNL     1       5.056  -1.234  -6.472  0.00  0.00    -0.275 OA
ATOM     17  N   UNL     1       4.060   0.293  -5.126  0.00  0.00    -0.241 N 
ATOM     18  C   UNL     1       4.039   0.692  -3.834  0.00  0.00    +0.228 C 
ATOM     19  O   UNL     1       3.373   1.595  -3.376  0.00  0.00    -0.275 OA
ATOM     20  H   UNL     1       2.817  -0.007   0.631  0.00  0.00    +0.155 HD
ATOM     21  H   UNL     1       5.609  -2.529  -1.693  0.00  0.00    +0.123 HD
ENDROOT
BRANCH   1  23
ATOM     22  C   UNL     1      -0.019   1.526   0.010  0.00  0.00    +0.009 C 
ATOM     23  C   UNL     1       0.002  -0.004   0.002  0.00  0.00    +0.033 C 
ENDBRANCH   1  23
BRANCH  13  24
ATOM     24  C   UNL     1       6.134  -3.610  -3.936  0.00  0.00    +0.031 C 
BRANCH  24  25
ATOM     25  C   UNL     1       5.566  -4.996  -3.627  0.00  0.00    +0.126 C 
BRANCH  25  26
ATOM     26  C   UNL     1       6.623  -6.040  -3.878  0.00  0.00    +0.356 C 
ATOM     27  O   UNL     1       7.729  -5.706  -4.269  0.00  0.00    -0.246 OA
ATOM     28  O   UNL     1       6.373  -7.218  -3.691  0.00  0.00    -0.246 OA
ENDBRANCH  25  26
ENDBRANCH  24  25
ENDBRANCH  13  24
BRANCH  17  29
ATOM     29  C   UNL     1       3.247   0.935  -6.162  0.00  0.00    +0.121 C 
BRANCH  29  30
ATOM     30  C   UNL     1       1.893   0.228  -6.258  0.00  0.00    +0.054 C 
BRANCH  30  31
ATOM     31  C   UNL     1       1.057   0.888  -7.324  0.00  0.00    -0.046 A 
ATOM     32  C   UNL     1       0.227   1.944  -6.996  0.00  0.00    +0.004 A 
ATOM     33  C   UNL     1      -0.540   2.550  -7.973  0.00  0.00    +0.000 A 
ATOM     34  C   UNL     1      -0.478   2.099  -9.278  0.00  0.00    +0.000 A 
ATOM     35  C   UNL     1       0.352   1.044  -9.607  0.00  0.00    +0.000 A 
ATOM     36  C   UNL     1       1.123   0.441  -8.630  0.00  0.00    +0.004 A 
ENDBRANCH  30  31
ENDBRANCH  29  30
ENDBRANCH  17  29
TORSDOF 7
