REMARK  Name = ZINC58110410
REMARK  5 active torsions:
REMARK  status: ('A' for Active; 'I' for Inactive)
REMARK    1  A    between atoms: C_1  and  C_2
REMARK    2  A    between atoms: C_2  and  C_21
REMARK    3  A    between atoms: C_5  and  C_13
REMARK    4  A    between atoms: C_13  and  C_15
REMARK    5  A    between atoms: C_13  and  O_20
REMARK                            x       y       z     vdW  Elec       q    Type
REMARK                         _______ _______ _______ _____ _____    ______ ____
ROOT
ATOM      1  C   UNL     1      -0.019   1.526   0.010  0.00  0.00    +0.025 C 
ATOM      2  C   UNL     1       0.002  -0.004   0.002  0.00  0.00    +0.068 C 
ATOM      3  C   UNL     1      -1.402  -0.553   0.108  0.00  0.00    -0.010 A 
ATOM      4  C   UNL     1      -2.516  -0.439  -0.693  0.00  0.00    +0.013 A 
ATOM      5  C   UNL     1      -3.694  -1.068  -0.333  0.00  0.00    -0.010 A 
ATOM      6  C   UNL     1      -3.749  -1.810   0.833  0.00  0.00    +0.028 A 
ATOM      7  C   UNL     1      -2.635  -1.927   1.639  0.00  0.00    +0.063 A 
ATOM      8  C   UNL     1      -1.443  -1.296   1.281  0.00  0.00    +0.056 A 
ATOM      9  N   UNL     1      -0.201  -1.263   1.917  0.00  0.00    -0.283 N 
ATOM     10  C   UNL     1       0.699  -0.532   1.238  0.00  0.00    +0.227 C 
ATOM     11  O   UNL     1       1.852  -0.333   1.556  0.00  0.00    -0.275 OA
ATOM     12 CL   UNL     1      -2.716  -2.861   3.100  0.00  0.00    -0.082 Cl
ATOM     13  C   UNL     1       0.689  -0.522  -1.263  0.00  0.00    +0.025 C 
ATOM     14  H   UNL     1      -0.010  -1.716   2.753  0.00  0.00    +0.155 HD
ENDROOT
BRANCH   5  15
ATOM     15  C   UNL     1      -4.915  -0.945  -1.208  0.00  0.00    +0.210 C 
BRANCH  15  16
ATOM     16  C   UNL     1      -5.056  -2.187  -2.051  0.00  0.00    +0.138 A 
ATOM     17  C   UNL     1      -4.599  -2.341  -3.306  0.00  0.00    +0.047 A 
ATOM     18  C   UNL     1      -4.947  -3.651  -3.711  0.00  0.00    +0.041 A 
ATOM     19  C   UNL     1      -5.596  -4.218  -2.678  0.00  0.00    +0.195 A 
ATOM     20  O   UNL     1      -5.654  -3.328  -1.673  0.00  0.00    -0.465 OA
ENDBRANCH  15  16
BRANCH  15  21
ATOM     21  O   UNL     1      -6.075  -0.791  -0.389  0.00  0.00    -0.379 OA
ATOM     22  H   UNL     1      -6.231  -1.530   0.216  0.00  0.00    +0.211 HD
ENDBRANCH  15  21
ENDBRANCH   5  15
TORSDOF 3
