REMARK  Name = ZINC63385745
REMARK  9 active torsions:
REMARK  status: ('A' for Active; 'I' for Inactive)
REMARK    1  A    between atoms: C_1  and  C_2
REMARK    2  A    between atoms: C_5  and  N_8
REMARK    3  A    between atoms: C_9  and  C_11
REMARK    4  A    between atoms: C_11  and  C_12
REMARK    5  A    between atoms: C_12  and  C_13
REMARK    6  A    between atoms: N_17  and  C_21
REMARK    7  A    between atoms: C_18  and  O_20
REMARK    8  A    between atoms: C_21  and  C_22
REMARK    9  A    between atoms: C_22  and  C_23
REMARK                            x       y       z     vdW  Elec       q    Type
REMARK                         _______ _______ _______ _____ _____    ______ ____
ROOT
ATOM      1  C   UNL     1       0.560  -8.391   2.540  0.00  0.00    +0.197 C 
ATOM      2  C   UNL     1       0.750  -8.923   3.947  0.00  0.00    +0.248 C 
ATOM      3  O   UNL     1       1.658  -8.678   4.712  0.00  0.00    -0.273 OA
ATOM      4  N   UNL     1      -0.310  -9.730   4.162  0.00  0.00    -0.224 N 
ATOM      5  C   UNL     1      -1.128  -9.758   3.062  0.00  0.00    +0.285 C 
ATOM      6  N   UNL     1      -0.694  -9.016   2.090  0.00  0.00    -0.224 NA
ENDROOT
BRANCH   5   7
ATOM      7  O   UNL     1      -2.266 -10.484   2.995  0.00  0.00    -0.481 OA
ATOM      8  H   UNL     1      -2.736 -10.402   2.154  0.00  0.00    +0.295 HD
ENDBRANCH   5   7
BRANCH   1   9
ATOM      9  C   UNL     1       0.424  -6.867   2.557  0.00  0.00    +0.045 C 
BRANCH   9  10
ATOM     10  C   UNL     1       0.309  -6.349   1.121  0.00  0.00    +0.098 C 
BRANCH  10  12
ATOM     11  N   UNL     1       0.059  -4.170  -0.021  0.00  0.00    -0.285 N 
ATOM     12  C   UNL     1       0.175  -4.848   1.138  0.00  0.00    +0.217 C 
ATOM     13  O   UNL     1       0.173  -4.251   2.193  0.00  0.00    -0.275 OA
ATOM     14  H   UNL     1      -0.017  -4.651  -0.860  0.00  0.00    +0.155 HD
BRANCH  11  19
ATOM     15  C   UNL     1       0.008   1.503   0.007  0.00  0.00    +0.044 C 
ATOM     16  C   UNL     1       0.022  -0.004  -0.001  0.00  0.00    -0.050 A 
ATOM     17  C   UNL     1       0.777  -0.692   0.931  0.00  0.00    +0.005 A 
ATOM     18  C   UNL     1       0.791  -2.073   0.927  0.00  0.00    +0.023 A 
ATOM     19  C   UNL     1       0.046  -2.771  -0.014  0.00  0.00    +0.033 A 
ATOM     20  C   UNL     1      -0.712  -2.077  -0.948  0.00  0.00    +0.023 A 
ATOM     21  C   UNL     1      -0.726  -0.696  -0.936  0.00  0.00    +0.005 A 
ENDBRANCH  11  19
ENDBRANCH  10  12
ENDBRANCH   9  10
ENDBRANCH   1   9
BRANCH   4  22
ATOM     22  C   UNL     1      -0.554 -10.473   5.401  0.00  0.00    +0.122 C 
BRANCH  22  23
ATOM     23  C   UNL     1      -1.383  -9.614   6.357  0.00  0.00    +0.052 C 
BRANCH  23  24
ATOM     24  C   UNL     1      -1.633 -10.378   7.631  0.00  0.00    -0.040 C 
ATOM     25  C   UNL     1      -0.915 -10.310   8.775  0.00  0.00    -0.001 A 
ATOM     26  C   UNL     1       0.269  -9.533   9.161  0.00  0.00    +0.010 A 
ATOM     27  C   UNL     1       0.773  -9.681  10.407  0.00  0.00    +0.001 A 
ATOM     28  C   UNL     1       0.195 -10.556  11.337  0.00  0.00    +0.002 A 
ATOM     29  C   UNL     1      -0.894 -11.303  11.056  0.00  0.00    +0.026 A 
ATOM     30  C   UNL     1      -1.507 -11.226   9.776  0.00  0.00    +0.043 A 
ATOM     31  N   UNL     1      -2.551 -11.838   9.270  0.00  0.00    -0.380 N 
ATOM     32  C   UNL     1      -2.742 -11.373   7.891  0.00  0.00    +0.144 C 
ATOM     33  H   UNL     1      -3.106 -12.486   9.731  0.00  0.00    +0.160 HD
ENDBRANCH  23  24
ENDBRANCH  22  23
ENDBRANCH   4  22
TORSDOF 8
