REMARK  Name = ZINC08977654
REMARK  8 active torsions:
REMARK  status: ('A' for Active; 'I' for Inactive)
REMARK    1  A    between atoms: C_1  and  C_2
REMARK    2  A    between atoms: C_2  and  O_3
REMARK    3  A    between atoms: O_3  and  C_4
REMARK    4  A    between atoms: C_7  and  C_9
REMARK    5  A    between atoms: C_13  and  N_14
REMARK    6  A    between atoms: C_15  and  C_17
REMARK    7  A    between atoms: N_22  and  S_23
REMARK    8  A    between atoms: S_23  and  C_26
REMARK                            x       y       z     vdW  Elec       q    Type
REMARK                         _______ _______ _______ _____ _____    ______ ____
ROOT
ATOM      1  N   UNL     1       1.968  -1.485  -0.095  0.00  0.00    -0.278 N 
ATOM      2  C   UNL     1       3.108  -2.133   0.215  0.00  0.00    +0.236 C 
ATOM      3  O   UNL     1       4.062  -1.515   0.638  0.00  0.00    -0.274 OA
ATOM      4  H   UNL     1       1.206  -1.980  -0.433  0.00  0.00    +0.155 HD
ENDROOT
BRANCH   1   9
ATOM      5  C   UNL     1       0.807   0.727  -0.193  0.00  0.00    +0.066 A 
ATOM      6  C   UNL     1       0.999   2.133   0.072  0.00  0.00    +0.022 A 
ATOM      7  C   UNL     1       2.199   2.510   0.548  0.00  0.00    +0.048 A 
ATOM      8  S   UNL     1       3.100   0.978   0.650  0.00  0.00    -0.081 S 
ATOM      9  C   UNL     1       1.886  -0.111   0.069  0.00  0.00    +0.084 A 
BRANCH   5  13
ATOM     10  C   UNL     1      -2.651   0.575  -1.433  0.00  0.00    +0.407 C 
ATOM     11  O   UNL     1      -2.779  -0.615  -1.646  0.00  0.00    -0.226 OA
ATOM     12  N   UNL     1      -1.484   1.051  -0.955  0.00  0.00    -0.217 N 
ATOM     13  C   UNL     1      -0.460   0.209  -0.713  0.00  0.00    +0.255 C 
ATOM     14  O   UNL     1      -0.589  -0.982  -0.926  0.00  0.00    -0.270 OA
ATOM     15  H   UNL     1      -1.382   2.001  -0.785  0.00  0.00    +0.161 HD
BRANCH  10  16
ATOM     16  O   UNL     1      -3.673   1.416  -1.675  0.00  0.00    -0.450 OA
BRANCH  16  18
ATOM     17  C   UNL     1      -5.939   1.935  -2.401  0.00  0.00    +0.048 C 
ATOM     18  C   UNL     1      -4.899   0.833  -2.189  0.00  0.00    +0.230 C 
ENDBRANCH  16  18
ENDBRANCH  10  16
ENDBRANCH   5  13
ENDBRANCH   1   9
BRANCH   2  19
ATOM     19  C   UNL     1       3.198  -3.627   0.037  0.00  0.00    +0.166 C 
ATOM     20  C   UNL     1       2.717  -4.338   1.320  0.00  0.00    +0.031 C 
ATOM     21  C   UNL     1       3.699  -5.537   1.438  0.00  0.00    +0.019 C 
ATOM     22  C   UNL     1       5.016  -4.918   0.907  0.00  0.00    +0.110 C 
ATOM     23  N   UNL     1       4.597  -4.021  -0.186  0.00  0.00    -0.165 NA
BRANCH  23  24
ATOM     24  S   UNL     1       5.545  -3.538  -1.455  0.00  0.00    +0.062 S 
ATOM     25  O   UNL     1       4.922  -2.389  -2.013  0.00  0.00    -0.153 OA
ATOM     26  O   UNL     1       6.884  -3.524  -0.980  0.00  0.00    -0.153 OA
BRANCH  24  27
ATOM     27  C   UNL     1       5.458  -4.802  -2.680  0.00  0.00    +0.106 A 
ATOM     28  C   UNL     1       6.316  -5.884  -2.617  0.00  0.00    +0.030 A 
ATOM     29  C   UNL     1       6.245  -6.879  -3.575  0.00  0.00    +0.022 A 
ATOM     30  C   UNL     1       5.323  -6.785  -4.602  0.00  0.00    +0.041 A 
ATOM     31  C   UNL     1       4.469  -5.699  -4.667  0.00  0.00    +0.022 A 
ATOM     32  C   UNL     1       4.537  -4.708  -3.706  0.00  0.00    +0.030 A 
ATOM     33 CL   UNL     1       5.238  -8.031  -5.808  0.00  0.00    -0.084 Cl
ENDBRANCH  24  27
ENDBRANCH  23  24
ENDBRANCH   2  19
TORSDOF 7
