REMARK  Name = ZINC52306756
REMARK  5 active torsions:
REMARK  status: ('A' for Active; 'I' for Inactive)
REMARK    1  A    between atoms: C_1  and  C_2
REMARK    2  A    between atoms: C_4  and  C_18
REMARK    3  A    between atoms: C_9  and  S_14
REMARK    4  A    between atoms: C_11  and  C_13
REMARK    5  A    between atoms: S_14  and  N_17
REMARK                            x       y       z     vdW  Elec       q    Type
REMARK                         _______ _______ _______ _____ _____    ______ ____
ROOT
ATOM      1  C   UNL     1      -0.018   1.503   0.010  0.00  0.00    +0.066 C 
ATOM      2  C   UNL     1       0.002  -0.004   0.002  0.00  0.00    +0.044 A 
ATOM      3  C   UNL     1       0.006  -0.699  -1.197  0.00  0.00    +0.046 A 
ATOM      4  C   UNL     1       0.025  -2.085  -1.159  0.00  0.00    +0.044 A 
ATOM      5  N   UNL     1       0.039  -2.697   0.013  0.00  0.00    -0.216 NA
ATOM      6  C   UNL     1       0.035  -2.003   1.140  0.00  0.00    +0.254 A 
ATOM      7  N   UNL     1       0.022  -0.680   1.139  0.00  0.00    -0.216 NA
ATOM      8  N   UNL     1       0.049  -2.683   2.358  0.00  0.00    -0.178 N 
ATOM      9  C   UNL     1       0.042  -2.114   3.592  0.00  0.00    +0.200 A 
ATOM     10  C   UNL     1       0.061  -3.113   4.503  0.00  0.00    +0.073 A 
ATOM     11  C   UNL     1       0.081  -4.329   3.810  0.00  0.00    +0.062 A 
ATOM     12  N   UNL     1       0.069  -4.073   2.527  0.00  0.00    -0.167 NA
ATOM     13  C   UNL     1       0.107  -5.700   4.435  0.00  0.00    +0.067 C 
ATOM     14  C   UNL     1       0.029  -2.883  -2.437  0.00  0.00    +0.066 C 
ENDROOT
BRANCH   9  15
ATOM     15  S   UNL     1       0.013  -0.387   3.943  0.00  0.00    +0.073 S 
ATOM     16  O   UNL     1       1.361   0.005   4.164  0.00  0.00    -0.152 OA
ATOM     17  O   UNL     1      -0.802   0.216   2.947  0.00  0.00    -0.152 OA
BRANCH  15  18
ATOM     18  N   UNL     1      -0.779  -0.193   5.384  0.00  0.00    -0.202 NA
ATOM     19  H   UNL     1      -1.121  -0.968   5.858  0.00  0.00    +0.144 HD
ATOM     20  H   UNL     1      -0.901   0.695   5.755  0.00  0.00    +0.144 HD
ENDBRANCH  15  18
ENDBRANCH   9  15
TORSDOF 2
