REMARK  Name = ZINC26737918
REMARK  7 active torsions:
REMARK  status: ('A' for Active; 'I' for Inactive)
REMARK    1  A    between atoms: C_3  and  C_7
REMARK    2  A    between atoms: C_12  and  C_16
REMARK    3  A    between atoms: C_16  and  C_18
REMARK    4  A    between atoms: N_20  and  C_34
REMARK    5  A    between atoms: C_25  and  C_27
REMARK    6  A    between atoms: C_34  and  C_35
REMARK    7  A    between atoms: C_35  and  N_36
REMARK                            x       y       z     vdW  Elec       q    Type
REMARK                         _______ _______ _______ _____ _____    ______ ____
ROOT
ATOM      1  C   UNL     1       2.845   4.387   0.107  0.00  0.00    +0.047 A 
ATOM      2  C   UNL     1       3.601   3.250   0.113  0.00  0.00    +0.098 A 
ATOM      3  N   UNL     1       4.913   3.573   0.210  0.00  0.00    -0.348 N 
ATOM      4  C   UNL     1       5.068   4.942   0.282  0.00  0.00    +0.050 A 
ATOM      5  C   UNL     1       3.787   5.516   0.222  0.00  0.00    +0.011 A 
ATOM      6  C   UNL     1       3.633   6.900   0.274  0.00  0.00    +0.011 A 
ATOM      7  C   UNL     1       4.731   7.704   0.384  0.00  0.00    +0.009 A 
ATOM      8  C   UNL     1       6.011   7.146   0.445  0.00  0.00    -0.016 A 
ATOM      9  C   UNL     1       6.180   5.768   0.394  0.00  0.00    +0.035 A 
ENDROOT
BRANCH   8  10
ATOM     10  C   UNL     1       7.196   8.030   0.566  0.00  0.00    -0.018 A 
ATOM     11  C   UNL     1       8.475   7.479   0.633  0.00  0.00    +0.011 A 
ATOM     12  C   UNL     1       9.575   8.306   0.740  0.00  0.00    +0.039 A 
ATOM     13  C   UNL     1       9.409   9.680   0.791  0.00  0.00    +0.123 A 
ATOM     14  C   UNL     1       8.139  10.232   0.729  0.00  0.00    +0.039 A 
ATOM     15  C   UNL     1       7.034   9.413   0.618  0.00  0.00    +0.011 A 
ATOM     16  F   UNL     1      10.488  10.485   0.901  0.00  0.00    -0.205 F 
ENDBRANCH   8  10
BRANCH   1  17
ATOM     17  C   UNL     1       1.381   4.469   0.013  0.00  0.00    +0.197 C 
ATOM     18  O   UNL     1       0.824   5.547   0.114  0.00  0.00    -0.287 OA
BRANCH  17  23
ATOM     19  C   UNL     1      -0.638   0.586  -2.320  0.00  0.00    +0.177 C 
ATOM     20  N   UNL     1      -0.344   1.495  -1.174  0.00  0.00    -0.333 N 
ATOM     21  C   UNL     1      -0.754   1.490   0.151  0.00  0.00    +0.088 A 
ATOM     22  C   UNL     1      -0.213   2.533   0.787  0.00  0.00    +0.031 A 
ATOM     23  C   UNL     1       0.587   3.247  -0.205  0.00  0.00    +0.044 A 
ATOM     24  C   UNL     1       0.449   2.546  -1.391  0.00  0.00    +0.041 A 
ATOM     25  C   UNL     1       1.001   2.733  -2.807  0.00  0.00    +0.125 C 
ATOM     26  S   UNL     1      -0.098   1.601  -3.756  0.00  0.00    -0.125 S 
BRANCH  19  29
ATOM     27  C   UNL     1       0.337  -3.056  -2.165  0.00  0.00    +0.020 A 
ATOM     28  C   UNL     1      -0.450  -1.918  -2.255  0.00  0.00    +0.009 A 
ATOM     29  C   UNL     1       0.173  -0.680  -2.220  0.00  0.00    +0.003 A 
ATOM     30  C   UNL     1       1.548  -0.622  -2.086  0.00  0.00    +0.117 A 
ATOM     31  N   UNL     1       2.264  -1.726  -1.998  0.00  0.00    -0.263 NA
ATOM     32  C   UNL     1       1.705  -2.920  -2.034  0.00  0.00    +0.111 A 
ENDBRANCH  19  29
ENDBRANCH  17  23
ENDBRANCH   1  17
BRANCH   3  33
ATOM     33  C   UNL     1       6.012   2.604   0.241  0.00  0.00    +0.102 C 
BRANCH  33  34
ATOM     34  C   UNL     1       6.380   2.297   1.694  0.00  0.00    -0.065 C 
BRANCH  34  35
ATOM     35  N   UNL     1       7.481   1.326   1.725  0.00  0.00    +0.379 N 
ATOM     36  H   UNL     1       7.746   1.105   2.770  0.00  0.00    -0.090 HD
ATOM     37  H   UNL     1       8.355   1.746   1.206  0.00  0.00    -0.090 HD
ATOM     38  H   UNL     1       7.167   0.399   1.222  0.00  0.00    -0.090 HD
ENDBRANCH  34  35
ENDBRANCH  33  34
ENDBRANCH   3  33
TORSDOF 7
