REMARK  Name = ZINC33255740
REMARK  6 active torsions:
REMARK  status: ('A' for Active; 'I' for Inactive)
REMARK    1  A    between atoms: C_1  and  C_2
REMARK    2  A    between atoms: C_5  and  C_23
REMARK    3  A    between atoms: C_7  and  S_8
REMARK    4  A    between atoms: S_8  and  N_11
REMARK    5  A    between atoms: N_14  and  C_17
REMARK    6  A    between atoms: C_23  and  N_24
REMARK                            x       y       z     vdW  Elec       q    Type
REMARK                         _______ _______ _______ _____ _____    ______ ____
ROOT
ATOM      1  C   UNL     1       3.688   7.994   0.653  0.00  0.00    +0.046 C 
ATOM      2  C   UNL     1       3.607   6.511   0.912  0.00  0.00    -0.024 A 
ATOM      3  C   UNL     1       3.737   5.619  -0.136  0.00  0.00    +0.005 A 
ATOM      4  C   UNL     1       3.667   4.259   0.102  0.00  0.00    +0.005 A 
ATOM      5  C   UNL     1       3.456   3.792   1.386  0.00  0.00    -0.028 A 
ATOM      6  C   UNL     1       3.326   4.684   2.434  0.00  0.00    +0.034 A 
ATOM      7  C   UNL     1       3.402   6.044   2.196  0.00  0.00    +0.109 A 
ENDROOT
BRANCH   7   8
ATOM      8  S   UNL     1       3.236   7.182   3.531  0.00  0.00    +0.061 S 
ATOM      9  O   UNL     1       2.345   8.198   3.091  0.00  0.00    -0.153 OA
ATOM     10  O   UNL     1       2.992   6.407   4.697  0.00  0.00    -0.153 OA
BRANCH   8  11
ATOM     11  N   UNL     1       4.710   7.906   3.744  0.00  0.00    -0.180 NA
ATOM     12  C   UNL     1       5.752   7.269   4.563  0.00  0.00    +0.091 C 
ATOM     13  C   UNL     1       7.051   7.225   3.742  0.00  0.00    -0.061 C 
ATOM     14  N   UNL     1       7.373   8.579   3.271  0.00  0.00    +0.383 N 
ATOM     15  C   UNL     1       6.335   9.088   2.364  0.00  0.00    -0.061 C 
ATOM     16  C   UNL     1       5.010   9.205   3.123  0.00  0.00    +0.091 C 
ATOM     17  H   UNL     1       7.402   9.240   4.150  0.00  0.00    -0.081 HD
BRANCH  14  18
ATOM     18  C   UNL     1       8.695   8.614   2.632  0.00  0.00    -0.068 C 
ATOM     19  C   UNL     1       8.713   7.649   1.445  0.00  0.00    -0.015 C 
ATOM     20  C   UNL     1      10.090   7.685   0.779  0.00  0.00    -0.002 C 
ATOM     21  C   UNL     1      11.157   7.267   1.792  0.00  0.00    -0.000 C 
ATOM     22  C   UNL     1      11.139   8.232   2.979  0.00  0.00    -0.002 C 
ATOM     23  C   UNL     1       9.762   8.196   3.645  0.00  0.00    -0.015 C 
ENDBRANCH  14  18
ENDBRANCH   8  11
ENDBRANCH   7   8
BRANCH   5  24
ATOM     24  C   UNL     1       3.374   2.310   1.645  0.00  0.00    +0.151 C 
BRANCH  24  25
ATOM     25  N   UNL     1       1.982   1.869   1.526  0.00  0.00    -0.237 N 
ATOM     26  C   UNL     1       1.134   1.851   2.563  0.00  0.00    +0.226 C 
ATOM     27  O   UNL     1       1.414   2.132   3.709  0.00  0.00    -0.275 OA
ATOM     28  C   UNL     1      -0.241   1.418   2.066  0.00  0.00    +0.087 C 
ATOM     29  C   UNL     1      -1.193   2.581   2.261  0.00  0.00    +0.013 C 
ATOM     30  C   UNL     1      -2.299   2.622   1.215  0.00  0.00    +0.001 C 
ATOM     31  C   UNL     1      -1.641   2.718  -0.168  0.00  0.00    +0.001 C 
ATOM     32  C   UNL     1      -0.939   1.409  -0.428  0.00  0.00    +0.013 C 
ATOM     33  C   UNL     1       0.032   1.011   0.636  0.00  0.00    +0.087 C 
ATOM     34  C   UNL     1       1.448   1.449   0.367  0.00  0.00    +0.226 C 
ATOM     35  O   UNL     1       2.008   1.427  -0.708  0.00  0.00    -0.275 OA
ENDBRANCH  24  25
ENDBRANCH   5  24
TORSDOF 5
