REMARK  Name = ZINC67578307
REMARK  6 active torsions:
REMARK  status: ('A' for Active; 'I' for Inactive)
REMARK    1  A    between atoms: C_1  and  C_2
REMARK    2  A    between atoms: C_2  and  C_4
REMARK    3  A    between atoms: C_2  and  S_28
REMARK    4  A    between atoms: C_8  and  N_10
REMARK    5  A    between atoms: C_17  and  C_19
REMARK    6  A    between atoms: S_28  and  C_29
REMARK                            x       y       z     vdW  Elec       q    Type
REMARK                         _______ _______ _______ _____ _____    ______ ____
ROOT
ATOM      1  N   UNL     1       3.688  -2.520   2.065  0.00  0.00    -0.269 N 
ATOM      2  C   UNL     1       4.395  -2.881   3.154  0.00  0.00    +0.307 C 
ATOM      3  O   UNL     1       3.985  -2.603   4.265  0.00  0.00    -0.252 OA
ATOM      4  N   UNL     1       5.557  -3.549   3.012  0.00  0.00    -0.278 N 
ATOM      5  C   UNL     1       6.171  -3.942   1.731  0.00  0.00    +0.110 C 
ATOM      6  C   UNL     1       7.682  -4.088   2.044  0.00  0.00    +0.021 C 
ATOM      7  C   UNL     1       7.647  -4.695   3.471  0.00  0.00    +0.029 C 
ATOM      8  C   UNL     1       6.425  -4.001   4.109  0.00  0.00    +0.108 C 
ATOM      9  H   UNL     1       3.974  -2.807   1.184  0.00  0.00    +0.156 HD
ENDROOT
BRANCH   8  10
ATOM     10  C   UNL     1       5.681  -4.980   4.981  0.00  0.00    -0.023 A 
ATOM     11  C   UNL     1       4.833  -5.909   4.407  0.00  0.00    +0.009 A 
ATOM     12  C   UNL     1       4.149  -6.809   5.202  0.00  0.00    +0.050 A 
ATOM     13  C   UNL     1       4.311  -6.782   6.578  0.00  0.00    +0.166 A 
ATOM     14  C   UNL     1       5.166  -5.847   7.156  0.00  0.00    +0.167 A 
ATOM     15  C   UNL     1       5.853  -4.951   6.353  0.00  0.00    +0.055 A 
ATOM     16  O   UNL     1       5.153  -6.023   8.510  0.00  0.00    -0.453 OA
ATOM     17  C   UNL     1       3.975  -6.803   8.785  0.00  0.00    +0.466 C 
ATOM     18  O   UNL     1       3.764  -7.545   7.569  0.00  0.00    -0.453 OA
ENDBRANCH   8  10
BRANCH   1  23
ATOM     19  C   UNL     1       1.337  -0.002   3.351  0.00  0.00    -0.033 A 
ATOM     20  C   UNL     1       0.273  -0.170   2.483  0.00  0.00    +0.005 A 
ATOM     21  C   UNL     1       0.341  -1.116   1.478  0.00  0.00    +0.002 A 
ATOM     22  C   UNL     1       1.471  -1.897   1.336  0.00  0.00    +0.023 A 
ATOM     23  C   UNL     1       2.541  -1.730   2.205  0.00  0.00    +0.035 A 
ATOM     24  C   UNL     1       2.473  -0.775   3.211  0.00  0.00    +0.028 A 
BRANCH  19  26
ATOM     25  C   UNL     1       0.084   0.708   5.369  0.00  0.00    +0.024 C 
ATOM     26  C   UNL     1       1.260   1.031   4.445  0.00  0.00    +0.073 C 
BRANCH  26  27
ATOM     27  S   UNL     1       1.020   2.673   3.712  0.00  0.00    -0.156 S 
ATOM     28  C   UNL     1       1.100   3.803   5.129  0.00  0.00    +0.085 C 
ENDBRANCH  26  27
ENDBRANCH  19  26
ENDBRANCH   1  23
TORSDOF 4
