REMARK  Name = ZINC36828197
REMARK  7 active torsions:
REMARK  status: ('A' for Active; 'I' for Inactive)
REMARK    1  A    between atoms: C_1  and  C_2
REMARK    2  A    between atoms: C_3  and  N_19
REMARK    3  A    between atoms: C_4  and  N_8
REMARK    4  A    between atoms: N_5  and  C_7
REMARK    5  A    between atoms: N_8  and  C_9
REMARK    6  A    between atoms: N_12  and  S_15
REMARK    7  A    between atoms: S_15  and  C_18
REMARK                            x       y       z     vdW  Elec       q    Type
REMARK                         _______ _______ _______ _____ _____    ______ ____
ROOT
ATOM      1  N   UNL     1       0.588  -3.248  -1.605  0.00  0.00    -0.325 N 
ATOM      2  H   UNL     1       0.578  -3.159  -2.571  0.00  0.00    +0.148 HD
ENDROOT
BRANCH   1   6
ATOM      3  C   UNL     1      -0.135   1.461  -0.099  0.00  0.00    +0.069 C 
ATOM      4  C   UNL     1       0.043  -0.035  -0.094  0.00  0.00    +0.082 A 
ATOM      5  C   UNL     1       0.258  -0.838  -1.221  0.00  0.00    +0.087 A 
ATOM      6  C   UNL     1       0.369  -2.130  -0.797  0.00  0.00    +0.138 A 
ATOM      7  N   UNL     1       0.226  -2.129   0.556  0.00  0.00    -0.252 N 
ATOM      8  N   UNL     1       0.029  -0.804   0.966  0.00  0.00    -0.173 NA
ATOM      9  C   UNL     1       0.275  -3.304   1.429  0.00  0.00    +0.174 C 
BRANCH   5  10
ATOM     10  N   UNL     1       0.344  -0.389  -2.559  0.00  0.00    -0.354 N 
ATOM     11  H   UNL     1       0.252   0.555  -2.760  0.00  0.00    +0.142 HD
ATOM     12  H   UNL     1       0.496  -1.026  -3.275  0.00  0.00    +0.142 HD
ENDBRANCH   5  10
ENDBRANCH   1   6
BRANCH   1  13
ATOM     13  C   UNL     1       0.834  -4.557  -0.994  0.00  0.00    +0.074 C 
ATOM     14  C   UNL     1      -0.484  -5.330  -0.896  0.00  0.00    +0.039 C 
ATOM     15  C   UNL     1      -0.229  -6.683  -0.225  0.00  0.00    +0.111 C 
ATOM     16  N   UNL     1       0.830  -7.385  -0.963  0.00  0.00    -0.181 NA
ATOM     17  C   UNL     1       2.107  -6.696  -1.193  0.00  0.00    +0.111 C 
ATOM     18  C   UNL     1       1.826  -5.343  -1.853  0.00  0.00    +0.039 C 
BRANCH  16  19
ATOM     19  S   UNL     1       0.588  -8.924  -1.526  0.00  0.00    +0.029 S 
ATOM     20  O   UNL     1       1.889  -9.490  -1.604  0.00  0.00    -0.158 OA
ATOM     21  O   UNL     1      -0.393  -9.477  -0.658  0.00  0.00    -0.158 OA
ATOM     22  C   UNL     1      -0.101  -8.709  -3.190  0.00  0.00    +0.215 C 
ENDBRANCH  16  19
ENDBRANCH   1  13
TORSDOF 4
