REMARK  Name = ZINC41267060
REMARK  7 active torsions:
REMARK  status: ('A' for Active; 'I' for Inactive)
REMARK    1  A    between atoms: C_1  and  C_2
REMARK    2  A    between atoms: C_4  and  C_17
REMARK    3  A    between atoms: C_8  and  C_14
REMARK    4  A    between atoms: C_8  and  O_16
REMARK    5  A    between atoms: C_10  and  C_12
REMARK    6  A    between atoms: C_10  and  C_13
REMARK    7  A    between atoms: C_14  and  N_15
REMARK                            x       y       z     vdW  Elec       q    Type
REMARK                         _______ _______ _______ _____ _____    ______ ____
ROOT
ATOM      1  C   UNL     1      -0.136   1.679   0.175  0.00  0.00    +0.044 C 
ATOM      2  C   UNL     1       0.089   0.189   0.152  0.00  0.00    -0.050 A 
ATOM      3  C   UNL     1       0.319  -0.458  -1.048  0.00  0.00    +0.010 A 
ATOM      4  C   UNL     1       0.523  -1.823  -1.068  0.00  0.00    -0.008 A 
ATOM      5  C   UNL     1       0.498  -2.551   0.117  0.00  0.00    +0.130 A 
ATOM      6  C   UNL     1       0.271  -1.901   1.317  0.00  0.00    +0.024 A 
ATOM      7  C   UNL     1       0.071  -0.531   1.331  0.00  0.00    +0.013 A 
ATOM      8  C   UNL     1       0.248  -2.651   2.625  0.00  0.00    +0.083 C 
ATOM      9  C   UNL     1       0.056  -4.146   2.359  0.00  0.00    +0.085 C 
ATOM     10  C   UNL     1       1.044  -4.572   1.265  0.00  0.00    +0.108 C 
ATOM     11  O   UNL     1       0.698  -3.894   0.057  0.00  0.00    -0.486 OA
ATOM     12  C   UNL     1       2.467  -4.192   1.680  0.00  0.00    +0.055 C 
ATOM     13  C   UNL     1       0.956  -6.084   1.051  0.00  0.00    +0.055 C 
ATOM     14  C   UNL     1       0.772  -2.526  -2.377  0.00  0.00    +0.047 C 
ENDROOT
BRANCH   8  15
ATOM     15  O   UNL     1       1.484  -2.445   3.313  0.00  0.00    -0.386 OA
ATOM     16  H   UNL     1       1.670  -1.519   3.518  0.00  0.00    +0.211 HD
ENDBRANCH   8  15
BRANCH   8  17
ATOM     17  C   UNL     1      -0.905  -2.135   3.487  0.00  0.00    -0.046 C 
BRANCH  17  18
ATOM     18  N   UNL     1      -0.970  -2.910   4.733  0.00  0.00    +0.380 N 
ATOM     19  H   UNL     1      -1.214  -3.866   4.522  0.00  0.00    -0.090 HD
ATOM     20  H   UNL     1      -0.072  -2.886   5.192  0.00  0.00    -0.090 HD
ATOM     21  H   UNL     1      -1.669  -2.511   5.342  0.00  0.00    -0.090 HD
ENDBRANCH  17  18
ENDBRANCH   8  17
TORSDOF 3
