REMARK  Name = ZINC50986809
REMARK  5 active torsions:
REMARK  status: ('A' for Active; 'I' for Inactive)
REMARK    1  A    between atoms: C_1  and  C_2
REMARK    2  A    between atoms: C_4  and  C_11
REMARK    3  A    between atoms: N_6  and  C_7
REMARK    4  A    between atoms: C_7  and  C_8
REMARK    5  A    between atoms: C_7  and  C_9
REMARK                            x       y       z     vdW  Elec       q    Type
REMARK                         _______ _______ _______ _____ _____    ______ ____
ROOT
ATOM      1  C   UNL     1       0.233   1.135  -0.078  0.00  0.00    +0.081 C 
ATOM      2  C   UNL     1      -0.614   1.591  -1.239  0.00  0.00    +0.073 C 
ATOM      3  N   UNL     1      -1.050   0.796  -2.151  0.00  0.00    -0.363 N 
ATOM      4  C   UNL     1      -1.833   1.586  -3.113  0.00  0.00    +0.172 C 
ATOM      5  C   UNL     1      -1.759   2.999  -2.568  0.00  0.00    +0.101 C 
ATOM      6  N   UNL     1      -0.998   2.889  -1.423  0.00  0.00    -0.276 N 
ATOM      7  N   UNL     1      -2.292   4.067  -3.063  0.00  0.00    -0.388 N 
ATOM      8  H   UNL     1      -2.813   4.015  -3.880  0.00  0.00    +0.157 HD
ATOM      9  H   UNL     1      -2.172   4.921  -2.618  0.00  0.00    +0.157 HD
ATOM     10  H   UNL     1      -0.889  -0.160  -2.196  0.00  0.00    +0.162 HD
ENDROOT
BRANCH   4  11
ATOM     11  C   UNL     1      -1.214   1.514  -4.485  0.00  0.00    -0.013 A 
ATOM     12  C   UNL     1      -2.022   1.440  -5.604  0.00  0.00    +0.055 A 
ATOM     13  C   UNL     1      -1.456   1.375  -6.866  0.00  0.00    +0.168 A 
ATOM     14  C   UNL     1      -0.070   1.383  -7.005  0.00  0.00    +0.180 A 
ATOM     15  C   UNL     1       0.735   1.457  -5.879  0.00  0.00    +0.064 A 
ATOM     16  C   UNL     1       0.162   1.528  -4.622  0.00  0.00    +0.025 A 
ATOM     17 BR   UNL     1       2.617   1.469  -6.061  0.00  0.00    -0.046 Br
ATOM     18  O   UNL     1       0.236   1.311  -8.333  0.00  0.00    -0.451 OA
ATOM     19  C   UNL     1      -0.964   0.847  -8.979  0.00  0.00    +0.466 C 
ATOM     20  O   UNL     1      -2.018   1.297  -8.107  0.00  0.00    -0.453 OA
ENDBRANCH   4  11
BRANCH   6  21
ATOM     21  C   UNL     1      -0.651   4.002  -0.536  0.00  0.00    +0.075 C 
ATOM     22  C   UNL     1       0.142   5.050  -1.320  0.00  0.00    +0.028 C 
ATOM     23  C   UNL     1      -1.930   4.635   0.013  0.00  0.00    +0.028 C 
ENDBRANCH   6  21
TORSDOF 2
