REMARK  Name = ZINC66499467
REMARK  6 active torsions:
REMARK  status: ('A' for Active; 'I' for Inactive)
REMARK    1  A    between atoms: C_1  and  C_2
REMARK    2  A    between atoms: C_8  and  C_12
REMARK    3  A    between atoms: C_12  and  N_13
REMARK    4  A    between atoms: C_19  and  C_21
REMARK    5  A    between atoms: C_21  and  C_22
REMARK    6  A    between atoms: C_21  and  C_23
REMARK                            x       y       z     vdW  Elec       q    Type
REMARK                         _______ _______ _______ _____ _____    ______ ____
ROOT
ATOM      1  C   UNL     1       0.367  -6.334   0.096  0.00  0.00    +0.140 C 
ENDROOT
BRANCH   1   9
ATOM      2  C   UNL     1      -0.082   1.481   0.108  0.00  0.00    +0.075 C 
ATOM      3  C   UNL     1      -0.049  -0.026   0.109  0.00  0.00    +0.099 A 
ATOM      4  N   UNL     1      -1.038  -0.864   0.174  0.00  0.00    -0.159 NA
ATOM      5  N   UNL     1      -0.832  -2.240   0.164  0.00  0.00    -0.171 N 
ATOM      6  C   UNL     1      -1.783  -3.218   0.226  0.00  0.00    +0.275 A 
ATOM      7  O   UNL     1      -2.964  -2.919   0.300  0.00  0.00    -0.266 OA
ATOM      8  C   UNL     1      -1.402  -4.560   0.204  0.00  0.00    +0.096 A 
ATOM      9  C   UNL     1      -0.066  -4.891   0.120  0.00  0.00    +0.063 A 
ATOM     10  N   UNL     1       0.835  -3.913   0.061  0.00  0.00    -0.225 NA
ATOM     11  C   UNL     1       0.469  -2.656   0.082  0.00  0.00    +0.199 A 
ATOM     12  S   UNL     1       1.361  -1.118   0.015  0.00  0.00    -0.033 S 
ENDBRANCH   1   9
BRANCH   1  13
ATOM     13  N   UNL     1       0.987  -6.638  -1.201  0.00  0.00    -0.284 NA
ATOM     14  C   UNL     1      -0.003  -6.574  -2.288  0.00  0.00    +0.104 C 
ATOM     15  C   UNL     1       0.736  -6.588  -3.627  0.00  0.00    +0.119 C 
ATOM     16  N   UNL     1       1.694  -7.689  -3.659  0.00  0.00    -0.313 N 
ATOM     17  C   UNL     1       2.123  -8.311  -2.555  0.00  0.00    +0.231 C 
ATOM     18  O   UNL     1       2.944  -9.196  -2.669  0.00  0.00    -0.274 OA
ATOM     19  C   UNL     1       1.632  -7.957  -1.180  0.00  0.00    +0.146 C 
ATOM     20  H   UNL     1       2.033  -7.984  -4.518  0.00  0.00    +0.149 HD
BRANCH  19  21
ATOM     21  C   UNL     1       2.815  -7.929  -0.210  0.00  0.00    +0.009 C 
ATOM     22  C   UNL     1       3.392  -9.339  -0.068  0.00  0.00    +0.009 C 
ATOM     23  C   UNL     1       3.895  -6.989  -0.749  0.00  0.00    +0.009 C 
ENDBRANCH  19  21
ENDBRANCH   1  13
TORSDOF 3
