REMARK  Name = ZINC47274112
REMARK  5 active torsions:
REMARK  status: ('A' for Active; 'I' for Inactive)
REMARK    1  A    between atoms: C_4  and  N_28
REMARK    2  A    between atoms: C_5  and  N_7
REMARK    3  A    between atoms: C_8  and  C_10
REMARK    4  A    between atoms: C_10  and  N_11
REMARK    5  A    between atoms: C_14  and  C_17
REMARK                            x       y       z     vdW  Elec       q    Type
REMARK                         _______ _______ _______ _____ _____    ______ ____
ROOT
ATOM      1  N   UNL     1      -1.352  -4.679  -0.085  0.00  0.00    +0.388 N 
ATOM      2  C   UNL     1      -1.385  -6.134   0.130  0.00  0.00    -0.073 C 
ATOM      3  C   UNL     1      -2.844  -6.575   0.268  0.00  0.00    +0.017 C 
ATOM      4  C   UNL     1      -3.651  -6.011  -0.869  0.00  0.00    -0.046 C 
ATOM      5  C   UNL     1      -3.211  -5.027  -1.625  0.00  0.00    -0.041 C 
ATOM      6  C   UNL     1      -1.869  -4.382  -1.427  0.00  0.00    -0.050 C 
ATOM      7  H   UNL     1      -1.927  -4.221   0.607  0.00  0.00    -0.081 HD
ENDROOT
BRANCH   4   8
ATOM      8  C   UNL     1      -4.983  -6.583  -1.149  0.00  0.00    +0.003 A 
ATOM      9  C   UNL     1      -5.245  -7.777  -1.738  0.00  0.00    +0.091 A 
ATOM     10  N   UNL     1      -6.595  -7.961  -1.825  0.00  0.00    -0.360 N 
ATOM     11  H   UNL     1      -7.025  -8.741  -2.209  0.00  0.00    +0.165 HD
ATOM     12  C   UNL     1      -7.259  -6.879  -1.288  0.00  0.00    +0.050 A 
ATOM     13  C   UNL     1      -6.286  -5.971  -0.836  0.00  0.00    +0.007 A 
ATOM     14  C   UNL     1      -6.673  -4.774  -0.236  0.00  0.00    +0.013 A 
ATOM     15  C   UNL     1      -8.011  -4.487  -0.086  0.00  0.00    +0.039 A 
ATOM     16  C   UNL     1      -8.975  -5.385  -0.530  0.00  0.00    +0.125 A 
ATOM     17  C   UNL     1      -8.606  -6.570  -1.133  0.00  0.00    +0.064 A 
ATOM     18  F   UNL     1     -10.284  -5.091  -0.376  0.00  0.00    -0.205 F 
ENDBRANCH   4   8
BRANCH   1  19
ATOM     19  C   UNL     1       0.030  -4.196   0.026  0.00  0.00    +0.019 C 
BRANCH  19  21
ATOM     20  N   UNL     1       1.217  -2.026  -0.008  0.00  0.00    -0.285 N 
ATOM     21  C   UNL     1       0.048  -2.693  -0.084  0.00  0.00    +0.201 C 
ATOM     22  O   UNL     1      -0.989  -2.084  -0.239  0.00  0.00    -0.278 OA
ATOM     23  H   UNL     1       2.053  -2.515   0.039  0.00  0.00    +0.155 HD
BRANCH  20  28
ATOM     24  C   UNL     1       0.212   1.452   0.639  0.00  0.00    +0.002 A 
ATOM     25  C   UNL     1       1.238   2.140   0.017  0.00  0.00    +0.002 A 
ATOM     26  C   UNL     1       2.256   1.449  -0.613  0.00  0.00    +0.034 A 
ATOM     27  C   UNL     1       2.252   0.068  -0.623  0.00  0.00    +0.147 A 
ATOM     28  C   UNL     1       1.224  -0.626   0.001  0.00  0.00    +0.064 A 
ATOM     29  C   UNL     1       0.203   0.071   0.633  0.00  0.00    +0.025 A 
BRANCH  27  30
ATOM     30  N   UNL     1       3.342  -0.671  -1.299  0.00  0.00    +0.058 N 
ATOM     31  O   UNL     1       4.188  -0.068  -1.918  0.00  0.00    -0.126 OA
ATOM     32  O   UNL     1       3.387  -1.877  -1.231  0.00  0.00    -0.126 OA
ENDBRANCH  27  30
ENDBRANCH  20  28
ENDBRANCH  19  21
ENDBRANCH   1  19
TORSDOF 5
