REMARK  Name = ZINC17319391
REMARK  12 active torsions:
REMARK  status: ('A' for Active; 'I' for Inactive)
REMARK    1  A    between atoms: C_1  and  N_60
REMARK    2  A    between atoms: C_2  and  N_60
REMARK    3  A    between atoms: C_3  and  C_4
REMARK    4  A    between atoms: C_3  and  N_60
REMARK    5  A    between atoms: C_7  and  C_10
REMARK    6  A    between atoms: C_10  and  N_62
REMARK    7  A    between atoms: C_11  and  C_12
REMARK    8  A    between atoms: C_11  and  N_62
REMARK    9  A    between atoms: N_14  and  C_25
REMARK   10  A    between atoms: C_16  and  C_17
REMARK   11  A    between atoms: C_20  and  O_23
REMARK   12  A    between atoms: O_23  and  C_24
REMARK                            x       y       z     vdW  Elec       q    Type
REMARK                         _______ _______ _______ _____ _____    ______ ____
ROOT
ATOM      1  C   UNL     1      -0.016  -0.008   0.002  0.00  0.00    -0.019 A 
ATOM      2  C   UNL     1      -0.274  -0.793  -1.066  0.00  0.00    +0.116 A 
ATOM      3  N   UNL     1      -0.072  -2.084  -0.693  0.00  0.00    -0.239 N 
ATOM      4  N   UNL     1       0.316  -2.091   0.653  0.00  0.00    -0.166 NA
ATOM      5  C   UNL     1       0.351  -0.844   1.075  0.00  0.00    +0.094 A 
ENDROOT
BRANCH   5   6
ATOM      6  C   UNL     1       0.714  -0.398   2.443  0.00  0.00    +0.003 A 
ATOM      7  C   UNL     1       1.796  -0.978   3.103  0.00  0.00    +0.013 A 
ATOM      8  C   UNL     1       2.134  -0.557   4.372  0.00  0.00    +0.046 A 
ATOM      9  C   UNL     1       1.391   0.435   4.996  0.00  0.00    +0.120 A 
ATOM     10  C   UNL     1       0.310   1.012   4.344  0.00  0.00    +0.046 A 
ATOM     11  C   UNL     1      -0.030   0.599   3.072  0.00  0.00    +0.013 A 
BRANCH   9  12
ATOM     12  O   UNL     1       1.724   0.844   6.249  0.00  0.00    -0.495 OA
ATOM     13  C   UNL     1       2.848   0.209   6.862  0.00  0.00    +0.277 C 
ENDBRANCH   9  12
ENDBRANCH   5   6
BRANCH   3  14
ATOM     14  C   UNL     1      -0.230  -3.212  -1.510  0.00  0.00    +0.065 A 
ATOM     15  C   UNL     1      -0.627  -3.062  -2.832  0.00  0.00    +0.028 A 
ATOM     16  C   UNL     1      -0.776  -4.175  -3.637  0.00  0.00    +0.002 A 
ATOM     17  C   UNL     1      -0.542  -5.438  -3.123  0.00  0.00    +0.000 A 
ATOM     18  C   UNL     1      -0.151  -5.590  -1.806  0.00  0.00    +0.002 A 
ATOM     19  C   UNL     1       0.005  -4.480  -0.998  0.00  0.00    +0.028 A 
ENDBRANCH   3  14
BRANCH   1  20
ATOM     20  C   UNL     1      -0.109   1.495   0.041  0.00  0.00    -0.043 C 
BRANCH  20  21
ATOM     21  N   UNL     1       1.252   2.064   0.039  0.00  0.00    +0.384 N 
ATOM     22  H   UNL     1       1.786   1.667   0.821  0.00  0.00    -0.085 HD
ATOM     23  H   UNL     1       1.716   1.830  -0.847  0.00  0.00    -0.085 HD
BRANCH  21  24
ATOM     24  C   UNL     1       1.194   3.531   0.184  0.00  0.00    -0.046 C 
BRANCH  24  28
ATOM     25  C   UNL     1       5.168   5.098   0.169  0.00  0.00    -0.064 A 
ATOM     26  C   UNL     1       4.474   4.960  -1.019  0.00  0.00    +0.002 A 
ATOM     27  C   UNL     1       3.188   4.454  -1.014  0.00  0.00    +0.002 A 
ATOM     28  C   UNL     1       2.596   4.084   0.179  0.00  0.00    -0.064 A 
ATOM     29  C   UNL     1       3.287   4.227   1.367  0.00  0.00    +0.002 A 
ATOM     30  C   UNL     1       4.575   4.730   1.362  0.00  0.00    +0.002 A 
BRANCH  25  31
ATOM     31  C   UNL     1       6.570   5.650   0.163  0.00  0.00    -0.044 C 
BRANCH  31  34
ATOM     32  C   UNL     1       6.001   7.494   1.626  0.00  0.00    -0.096 C 
ATOM     33  C   UNL     1       7.843   7.707   0.069  0.00  0.00    -0.096 C 
ATOM     34  N   UNL     1       6.504   7.121   0.287  0.00  0.00    +0.379 N 
ATOM     35  H   UNL     1       5.860   7.487  -0.425  0.00  0.00    -0.082 HD
ENDBRANCH  31  34
ENDBRANCH  25  31
ENDBRANCH  24  28
ENDBRANCH  21  24
ENDBRANCH  20  21
ENDBRANCH   1  20
TORSDOF 9
