REMARK  Name = ZINC67234469
REMARK  10 active torsions:
REMARK  status: ('A' for Active; 'I' for Inactive)
REMARK    1  A    between atoms: C_1  and  C_2
REMARK    2  A    between atoms: C_2  and  C_3
REMARK    3  A    between atoms: C_2  and  C_4
REMARK    4  A    between atoms: C_2  and  O_5
REMARK    5  A    between atoms: O_5  and  C_6
REMARK    6  A    between atoms: N_8  and  C_9
REMARK    7  A    between atoms: C_9  and  C_10
REMARK    8  A    between atoms: N_12  and  C_13
REMARK    9  A    between atoms: N_18  and  S_20
REMARK   10  A    between atoms: S_20  and  C_23
REMARK                            x       y       z     vdW  Elec       q    Type
REMARK                         _______ _______ _______ _____ _____    ______ ____
ROOT
ATOM      1  C   UNL     1       4.570  -0.648  -3.886  0.00  0.00    +0.231 C 
ATOM      2  O   UNL     1       3.858  -1.337  -4.585  0.00  0.00    -0.274 OA
ATOM      3  N   UNL     1       5.841  -0.399  -4.259  0.00  0.00    -0.310 N 
ATOM      4  H   UNL     1       6.411   0.152  -3.700  0.00  0.00    +0.149 HD
ENDROOT
BRANCH   3   5
ATOM      5  C   UNL     1       6.362  -0.959  -5.508  0.00  0.00    +0.089 C 
ATOM      6  C   UNL     1       6.871  -2.381  -5.257  0.00  0.00    +0.025 C 
ATOM      7  C   UNL     1       7.385  -2.979  -6.569  0.00  0.00    +0.019 C 
ATOM      8  C   UNL     1       8.551  -2.133  -7.090  0.00  0.00    +0.109 C 
ATOM      9  N   UNL     1       8.110  -0.735  -7.196  0.00  0.00    -0.180 NA
ATOM     10  C   UNL     1       7.516  -0.090  -6.018  0.00  0.00    +0.131 C 
BRANCH   9  11
ATOM     11  S   UNL     1       8.280   0.097  -8.618  0.00  0.00    +0.029 S 
ATOM     12  O   UNL     1       8.358   1.462  -8.232  0.00  0.00    -0.158 OA
ATOM     13  O   UNL     1       9.369  -0.532  -9.279  0.00  0.00    -0.158 OA
ATOM     14  C   UNL     1       6.738  -0.209  -9.524  0.00  0.00    +0.215 C 
ENDBRANCH   9  11
ENDBRANCH   3   5
BRANCH   1  15
ATOM     15  C   UNL     1       4.035  -0.071  -2.601  0.00  0.00    +0.203 C 
BRANCH  15  18
ATOM     16  C   UNL     1       1.952  -0.085  -1.337  0.00  0.00    +0.401 C 
ATOM     17  O   UNL     1       2.488   0.619  -0.503  0.00  0.00    -0.226 OA
ATOM     18  N   UNL     1       2.641  -0.485  -2.424  0.00  0.00    -0.273 N 
ATOM     19  H   UNL     1       2.213  -1.047  -3.089  0.00  0.00    +0.153 HD
BRANCH  16  20
ATOM     20  O   UNL     1       0.671  -0.465  -1.174  0.00  0.00    -0.445 OA
BRANCH  20  22
ATOM     21  C   UNL     1      -0.019   1.526   0.010  0.00  0.00    +0.055 C 
ATOM     22  C   UNL     1       0.002  -0.004   0.002  0.00  0.00    +0.107 C 
ATOM     23  C   UNL     1       0.742  -0.511   1.242  0.00  0.00    +0.055 C 
ATOM     24  C   UNL     1      -1.433  -0.534   0.013  0.00  0.00    +0.055 C 
ENDBRANCH  20  22
ENDBRANCH  16  20
ENDBRANCH  15  18
ENDBRANCH   1  15
TORSDOF 6
