REMARK  Name = ZINC20235373
REMARK  10 active torsions:
REMARK  status: ('A' for Active; 'I' for Inactive)
REMARK    1  A    between atoms: C_1  and  C_2
REMARK    2  A    between atoms: C_5  and  S_8
REMARK    3  A    between atoms: S_8  and  N_11
REMARK    4  A    between atoms: N_11  and  C_12
REMARK    5  A    between atoms: N_11  and  C_30
REMARK    6  A    between atoms: C_12  and  C_13
REMARK    7  A    between atoms: N_15  and  C_16
REMARK    8  A    between atoms: C_17  and  C_29
REMARK    9  A    between atoms: N_18  and  C_28
REMARK   10  A    between atoms: N_19  and  C_22
REMARK                            x       y       z     vdW  Elec       q    Type
REMARK                         _______ _______ _______ _____ _____    ______ ____
ROOT
ATOM      1  C   UNL     1      -1.004   0.497  -0.337  0.00  0.00    +0.227 C 
ENDROOT
BRANCH   1   2
ATOM      2  C   UNL     1      -1.475   0.823   1.058  0.00  0.00    +0.237 C 
ATOM      3  O   UNL     1      -2.662   0.845   1.307  0.00  0.00    -0.274 OA
ATOM      4  N   UNL     1      -0.577   1.089   2.027  0.00  0.00    -0.278 N 
ATOM      5  H   UNL     1       0.499   0.992   1.822  0.00  0.00    +0.155 HD
BRANCH   4   6
ATOM      6  C   UNL     1      -1.018   1.492   3.304  0.00  0.00    +0.121 A 
ATOM      7  C   UNL     1      -0.744   0.878   4.477  0.00  0.00    +0.059 A 
ATOM      8  N   UNL     1      -1.351   1.576   5.487  0.00  0.00    -0.282 N 
ATOM      9  N   UNL     1      -2.042   2.665   4.943  0.00  0.00    -0.216 N 
ATOM     10  C   UNL     1      -1.862   2.648   3.606  0.00  0.00    +0.293 A 
ATOM     11  O   UNL     1      -2.315   3.445   2.803  0.00  0.00    -0.264 OA
ATOM     12  C   UNL     1      -1.292   1.233   6.910  0.00  0.00    +0.171 C 
ATOM     13  C   UNL     1       0.092  -0.364   4.645  0.00  0.00    +0.067 C 
BRANCH   9  14
ATOM     14  C   UNL     1      -2.787   3.606   5.660  0.00  0.00    +0.067 A 
ATOM     15  C   UNL     1      -3.727   3.185   6.592  0.00  0.00    +0.028 A 
ATOM     16  C   UNL     1      -4.458   4.117   7.302  0.00  0.00    +0.002 A 
ATOM     17  C   UNL     1      -4.264   5.467   7.078  0.00  0.00    +0.000 A 
ATOM     18  C   UNL     1      -3.333   5.889   6.146  0.00  0.00    +0.002 A 
ATOM     19  C   UNL     1      -2.595   4.963   5.436  0.00  0.00    +0.028 A 
ENDBRANCH   9  14
ENDBRANCH   4   6
ENDBRANCH   1   2
BRANCH   1  20
ATOM     20  N   UNL     1      -2.163   0.330  -1.217  0.00  0.00    -0.193 N 
BRANCH  20  21
ATOM     21  C   UNL     1      -2.757   1.448  -1.809  0.00  0.00    +0.070 A 
ATOM     22  C   UNL     1      -3.709   2.181  -1.113  0.00  0.00    +0.026 A 
ATOM     23  C   UNL     1      -4.291   3.288  -1.700  0.00  0.00    +0.002 A 
ATOM     24  C   UNL     1      -3.934   3.661  -2.983  0.00  0.00    +0.002 A 
ATOM     25  C   UNL     1      -2.991   2.930  -3.682  0.00  0.00    +0.022 A 
ATOM     26  C   UNL     1      -2.401   1.825  -3.099  0.00  0.00    +0.064 A 
ATOM     27 CL   UNL     1      -1.217   0.907  -3.977  0.00  0.00    -0.082 Cl
ENDBRANCH  20  21
BRANCH  20  28
ATOM     28  S   UNL     1      -2.769  -1.183  -1.510  0.00  0.00    +0.075 S 
ATOM     29  O   UNL     1      -3.455  -1.112  -2.752  0.00  0.00    -0.150 OA
ATOM     30  O   UNL     1      -1.706  -2.098  -1.278  0.00  0.00    -0.150 OA
BRANCH  28  35
ATOM     31  C   UNL     1      -6.942  -2.282   2.707  0.00  0.00    +0.044 C 
ATOM     32  C   UNL     1      -5.900  -2.008   1.654  0.00  0.00    -0.050 A 
ATOM     33  C   UNL     1      -6.262  -1.407   0.463  0.00  0.00    +0.005 A 
ATOM     34  C   UNL     1      -5.306  -1.155  -0.504  0.00  0.00    +0.029 A 
ATOM     35  C   UNL     1      -3.987  -1.504  -0.278  0.00  0.00    +0.109 A 
ATOM     36  C   UNL     1      -3.626  -2.108   0.911  0.00  0.00    +0.029 A 
ATOM     37  C   UNL     1      -4.581  -2.356   1.879  0.00  0.00    +0.005 A 
ENDBRANCH  28  35
ENDBRANCH  20  28
ENDBRANCH   1  20
TORSDOF 7
