REMARK  Name = ZINC64098113
REMARK  7 active torsions:
REMARK  status: ('A' for Active; 'I' for Inactive)
REMARK    1  A    between atoms: C_1  and  C_2
REMARK    2  A    between atoms: C_10  and  C_14
REMARK    3  A    between atoms: C_14  and  N_15
REMARK    4  A    between atoms: C_16  and  C_18
REMARK    5  A    between atoms: C_18  and  C_19
REMARK    6  A    between atoms: C_19  and  C_20
REMARK    7  A    between atoms: C_20  and  C_21
REMARK                            x       y       z     vdW  Elec       q    Type
REMARK                         _______ _______ _______ _____ _____    ______ ____
ROOT
ATOM      1  N   UNL     1       5.013  -2.479   4.041  0.00  0.00    -0.311 N 
ATOM      2  C   UNL     1       5.596  -3.197   5.022  0.00  0.00    +0.213 C 
ATOM      3  O   UNL     1       5.636  -2.758   6.152  0.00  0.00    -0.276 OA
ATOM      4  H   UNL     1       4.981  -2.830   3.137  0.00  0.00    +0.149 HD
ENDROOT
BRANCH   1   5
ATOM      5  C   UNL     1       4.428  -1.170   4.340  0.00  0.00    +0.139 C 
BRANCH   5  14
ATOM      6  C   UNL     1      -0.019   1.526   0.010  0.00  0.00    +0.054 C 
ATOM      7  C   UNL     1       0.002  -0.004   0.002  0.00  0.00    +0.189 C 
ATOM      8  N   UNL     1      -1.365  -0.519   0.051  0.00  0.00    -0.272 NA
ATOM      9  C   UNL     1      -1.558  -1.234   1.085  0.00  0.00    +0.099 C 
ATOM     10  C   UNL     1      -0.299  -1.304   1.912  0.00  0.00    +0.155 C 
ATOM     11  N   UNL     1       0.707  -0.500   1.193  0.00  0.00    -0.290 N 
ATOM     12  C   UNL     1       2.027  -0.264   1.559  0.00  0.00    +0.101 A 
ATOM     13  C   UNL     1       2.530  -0.825   2.729  0.00  0.00    +0.047 A 
ATOM     14  C   UNL     1       3.845  -0.581   3.081  0.00  0.00    -0.026 A 
ATOM     15  C   UNL     1       4.617   0.219   2.248  0.00  0.00    +0.023 A 
ATOM     16  C   UNL     1       4.053   0.743   1.102  0.00  0.00    +0.084 A 
ATOM     17  N   UNL     1       2.797   0.489   0.788  0.00  0.00    -0.350 N 
ATOM     18  H   UNL     1       2.427   0.867  -0.025  0.00  0.00    +0.166 HD
ENDBRANCH   5  14
ENDBRANCH   1   5
BRANCH   2  19
ATOM     19  C   UNL     1       6.197  -4.544   4.715  0.00  0.00    +0.096 C 
BRANCH  19  20
ATOM     20  C   UNL     1       6.789  -5.141   5.993  0.00  0.00    +0.014 C 
BRANCH  20  21
ATOM     21  C   UNL     1       7.400  -6.509   5.681  0.00  0.00    +0.033 C 
BRANCH  21  22
ATOM     22  C   UNL     1       7.982  -7.098   6.940  0.00  0.00    -0.042 C 
ATOM     23  C   UNL     1       7.382  -7.967   7.785  0.00  0.00    -0.001 A 
ATOM     24  C   UNL     1       6.057  -8.599   7.785  0.00  0.00    +0.010 A 
ATOM     25  C   UNL     1       5.734  -9.445   8.790  0.00  0.00    +0.001 A 
ATOM     26  C   UNL     1       6.630  -9.732   9.828  0.00  0.00    +0.002 A 
ATOM     27  C   UNL     1       7.865  -9.190   9.897  0.00  0.00    +0.026 A 
ATOM     28  C   UNL     1       8.310  -8.287   8.893  0.00  0.00    +0.043 A 
ATOM     29  N   UNL     1       9.440  -7.641   8.739  0.00  0.00    -0.380 N 
ATOM     30  C   UNL     1       9.359  -6.841   7.512  0.00  0.00    +0.144 C 
ATOM     31  H   UNL     1      10.204  -7.687   9.335  0.00  0.00    +0.160 HD
ENDBRANCH  21  22
ENDBRANCH  20  21
ENDBRANCH  19  20
ENDBRANCH   2  19
TORSDOF 6
