REMARK  Name = ZINC09660459
REMARK  8 active torsions:
REMARK  status: ('A' for Active; 'I' for Inactive)
REMARK    1  A    between atoms: C_1  and  C_2
REMARK    2  A    between atoms: C_2  and  O_3
REMARK    3  A    between atoms: O_3  and  C_4
REMARK    4  A    between atoms: C_6  and  C_11
REMARK    5  A    between atoms: C_9  and  O_10
REMARK    6  A    between atoms: C_16  and  C_21
REMARK    7  A    between atoms: C_24  and  O_27
REMARK    8  A    between atoms: O_27  and  C_28
REMARK                            x       y       z     vdW  Elec       q    Type
REMARK                         _______ _______ _______ _____ _____    ______ ____
ROOT
ATOM      1  C   UNL     1      -0.229  -4.963  -0.528  0.00  0.00    +0.177 C 
ATOM      2  C   UNL     1      -1.262  -5.853   0.127  0.00  0.00    +0.041 C 
ATOM      3  C   UNL     1      -1.037  -7.163   0.364  0.00  0.00    +0.020 C 
ATOM      4  C   UNL     1      -2.090  -8.025   1.020  0.00  0.00    +0.060 C 
ATOM      5  C   UNL     1      -2.932  -7.175   1.972  0.00  0.00    +0.032 C 
ATOM      6  C   UNL     1      -3.571  -6.038   1.167  0.00  0.00    +0.088 C 
ATOM      7  C   UNL     1      -2.484  -5.254   0.486  0.00  0.00    +0.164 C 
ATOM      8  O   UNL     1      -2.664  -4.078   0.240  0.00  0.00    -0.292 OA
ATOM      9  N   UNL     1       0.147  -7.770   0.016  0.00  0.00    -0.286 N 
ATOM     10  C   UNL     1       0.994  -7.096  -0.847  0.00  0.00    +0.240 A 
ATOM     11  N   UNL     1       0.826  -5.776  -1.116  0.00  0.00    -0.201 N 
ATOM     12  N   UNL     1       1.839  -5.446  -2.015  0.00  0.00    -0.042 NA
ATOM     13  N   UNL     1       2.519  -6.528  -2.215  0.00  0.00    -0.021 NA
ATOM     14  N   UNL     1       2.026  -7.502  -1.528  0.00  0.00    -0.092 NA
ATOM     15  H   UNL     1       0.381  -8.644   0.366  0.00  0.00    +0.155 HD
ENDROOT
BRANCH   1  18
ATOM     16  C   UNL     1       0.802  -1.825   1.306  0.00  0.00    +0.162 A 
ATOM     17  C   UNL     1       0.251  -2.673   0.359  0.00  0.00    +0.055 A 
ATOM     18  C   UNL     1       0.367  -4.043   0.506  0.00  0.00    -0.015 A 
ATOM     19  C   UNL     1       1.023  -4.570   1.602  0.00  0.00    +0.010 A 
ATOM     20  C   UNL     1       1.571  -3.730   2.554  0.00  0.00    +0.049 A 
ATOM     21  C   UNL     1       1.462  -2.356   2.410  0.00  0.00    +0.158 A 
BRANCH  21  22
ATOM     22  O   UNL     1       2.000  -1.528   3.345  0.00  0.00    -0.503 OA
ATOM     23  H   UNL     1       1.395  -1.302   4.064  0.00  0.00    +0.292 HD
ENDBRANCH  21  22
BRANCH  16  24
ATOM     24  O   UNL     1       0.693  -0.477   1.160  0.00  0.00    -0.489 OA
BRANCH  24  26
ATOM     25  C   UNL     1      -0.019   1.526   0.010  0.00  0.00    +0.048 C 
ATOM     26  C   UNL     1       0.002  -0.004   0.002  0.00  0.00    +0.226 C 
ENDBRANCH  24  26
ENDBRANCH  16  24
ENDBRANCH   1  18
BRANCH   5  27
ATOM     27  C   UNL     1      -4.011  -8.026   2.593  0.00  0.00    -0.043 A 
ATOM     28  C   UNL     1      -4.950  -8.644   1.789  0.00  0.00    +0.007 A 
ATOM     29  C   UNL     1      -5.936  -9.429   2.355  0.00  0.00    +0.046 A 
ATOM     30  C   UNL     1      -5.990  -9.587   3.732  0.00  0.00    +0.120 A 
ATOM     31  C   UNL     1      -5.049  -8.961   4.537  0.00  0.00    +0.046 A 
ATOM     32  C   UNL     1      -4.062  -8.182   3.966  0.00  0.00    +0.007 A 
BRANCH  30  33
ATOM     33  O   UNL     1      -6.962 -10.355   4.291  0.00  0.00    -0.495 OA
ATOM     34  C   UNL     1      -7.896 -10.969   3.401  0.00  0.00    +0.277 C 
ENDBRANCH  30  33
ENDBRANCH   5  27
TORSDOF 6
