REMARK  Name = ZINC13123541
REMARK  4 active torsions:
REMARK  status: ('A' for Active; 'I' for Inactive)
REMARK    1  A    between atoms: C_1  and  C_2
REMARK    2  A    between atoms: C_3  and  C_24
REMARK    3  A    between atoms: C_4  and  C_18
REMARK    4  A    between atoms: C_9  and  C_11
REMARK                            x       y       z     vdW  Elec       q    Type
REMARK                         _______ _______ _______ _____ _____    ______ ____
ROOT
ATOM      1  C   UNL     1      -0.018   1.503   0.010  0.00  0.00    +0.061 C 
ATOM      2  C   UNL     1       0.002  -0.004   0.002  0.00  0.00    +0.018 C 
ATOM      3  C   UNL     1      -1.163  -0.668   0.004  0.00  0.00    +0.060 C 
ATOM      4  C   UNL     1      -1.254  -2.170   0.009  0.00  0.00    +0.177 C 
ATOM      5  N   UNL     1       0.060  -2.738  -0.282  0.00  0.00    -0.220 N 
ATOM      6  C   UNL     1       1.209  -2.013  -0.280  0.00  0.00    +0.219 A 
ATOM      7  N   UNL     1       2.195  -2.813  -0.570  0.00  0.00    -0.193 NA
ATOM      8  C   UNL     1       1.722  -4.056  -0.768  0.00  0.00    +0.183 A 
ATOM      9  N   UNL     1       0.415  -4.048  -0.601  0.00  0.00    -0.147 NA
ATOM     10  N   UNL     1       1.213  -0.651  -0.013  0.00  0.00    -0.287 N 
ATOM     11  H   UNL     1       2.041  -0.175   0.160  0.00  0.00    +0.155 HD
ENDROOT
BRANCH   8  12
ATOM     12  C   UNL     1       2.539  -5.244  -1.118  0.00  0.00    +0.024 A 
ATOM     13  C   UNL     1       1.944  -6.494  -1.309  0.00  0.00    +0.031 A 
ATOM     14  C   UNL     1       2.740  -7.572  -1.635  0.00  0.00    +0.111 A 
ATOM     15  N   UNL     1       4.046  -7.435  -1.765  0.00  0.00    -0.263 NA
ATOM     16  C   UNL     1       4.647  -6.273  -1.593  0.00  0.00    +0.111 A 
ATOM     17  C   UNL     1       3.925  -5.142  -1.272  0.00  0.00    +0.031 A 
ENDBRANCH   8  12
BRANCH   4  18
ATOM     18  C   UNL     1      -1.715  -2.641   1.364  0.00  0.00    -0.018 A 
ATOM     19  C   UNL     1      -0.971  -2.344   2.490  0.00  0.00    +0.006 A 
ATOM     20  C   UNL     1      -1.395  -2.776   3.733  0.00  0.00    +0.000 A 
ATOM     21  C   UNL     1      -2.563  -3.505   3.849  0.00  0.00    +0.000 A 
ATOM     22  C   UNL     1      -3.308  -3.802   2.724  0.00  0.00    +0.000 A 
ATOM     23  C   UNL     1      -2.886  -3.367   1.481  0.00  0.00    +0.006 A 
ENDBRANCH   4  18
BRANCH   3  24
ATOM     24  C   UNL     1      -2.364   0.080   0.002  0.00  0.00    +0.241 C 
ATOM     25  O   UNL     1      -2.324   1.297  -0.001  0.00  0.00    -0.271 OA
ATOM     26  N   UNL     1      -3.553  -0.555   0.004  0.00  0.00    -0.325 N 
ATOM     27  H   UNL     1      -3.585  -1.524   0.007  0.00  0.00    +0.145 HD
ATOM     28  H   UNL     1      -4.377  -0.042   0.003  0.00  0.00    +0.145 HD
ENDBRANCH   3  24
TORSDOF 3
