REMARK  Name = ZINC66660403
REMARK  8 active torsions:
REMARK  status: ('A' for Active; 'I' for Inactive)
REMARK    1  A    between atoms: C_1  and  C_2
REMARK    2  A    between atoms: C_2  and  C_3
REMARK    3  A    between atoms: C_3  and  C_4
REMARK    4  A    between atoms: C_6  and  C_10
REMARK    5  A    between atoms: N_12  and  C_13
REMARK    6  A    between atoms: C_15  and  C_26
REMARK    7  A    between atoms: C_20  and  C_25
REMARK    8  A    between atoms: C_22  and  C_24
REMARK                            x       y       z     vdW  Elec       q    Type
REMARK                         _______ _______ _______ _____ _____    ______ ____
ROOT
ATOM      1  C   UNL     1       0.156  -7.734  -2.698  0.00  0.00    +0.132 A 
ATOM      2  C   UNL     1      -0.418  -7.828  -3.929  0.00  0.00    +0.068 A 
ATOM      3  C   UNL     1      -0.546  -9.185  -4.241  0.00  0.00    +0.062 A 
ATOM      4  N   UNL     1      -0.071  -9.887  -3.245  0.00  0.00    -0.167 NA
ATOM      5  N   UNL     1       0.385  -9.004  -2.258  0.00  0.00    -0.183 N 
ATOM      6  C   UNL     1       0.965  -9.359  -1.041  0.00  0.00    +0.253 A 
ATOM      7  N   UNL     1       1.340  -8.407  -0.202  0.00  0.00    -0.216 NA
ATOM      8  C   UNL     1       1.894  -8.709   0.960  0.00  0.00    +0.044 A 
ATOM      9  C   UNL     1       2.080 -10.041   1.294  0.00  0.00    +0.046 A 
ATOM     10  C   UNL     1       1.675 -11.012   0.391  0.00  0.00    +0.044 A 
ATOM     11  N   UNL     1       1.123 -10.641  -0.751  0.00  0.00    -0.216 NA
ATOM     12  C   UNL     1       1.858 -12.474   0.711  0.00  0.00    +0.066 C 
ATOM     13  C   UNL     1       2.319  -7.618   1.909  0.00  0.00    +0.066 C 
ATOM     14  C   UNL     1      -1.132  -9.744  -5.512  0.00  0.00    +0.067 C 
ENDROOT
BRANCH   1  17
ATOM     15  C   UNL     1       0.175  -5.364  -2.575  0.00  0.00    +0.267 C 
ATOM     16  O   UNL     1      -0.345  -5.314  -3.674  0.00  0.00    -0.268 OA
ATOM     17  N   UNL     1       0.458  -6.558  -2.017  0.00  0.00    -0.265 N 
ATOM     18  H   UNL     1       0.873  -6.598  -1.141  0.00  0.00    +0.157 HD
BRANCH  15  21
ATOM     19  C   UNL     1       0.739  -2.004  -1.265  0.00  0.00    +0.064 A 
ATOM     20  C   UNL     1       0.268  -2.827  -2.291  0.00  0.00    +0.057 A 
ATOM     21  C   UNL     1       0.495  -4.122  -1.855  0.00  0.00    +0.121 A 
ATOM     22  N   UNL     1       1.075  -4.014  -0.623  0.00  0.00    -0.272 N 
ATOM     23  H   UNL     1       1.350  -4.760  -0.067  0.00  0.00    +0.189 HD
ATOM     24  N   UNL     1       1.206  -2.774  -0.315  0.00  0.00    -0.178 NA
BRANCH  19  25
ATOM     25  C   UNL     1       0.718  -0.497  -1.257  0.00  0.00    +0.057 C 
BRANCH  25  27
ATOM     26  C   UNL     1      -0.019   1.526   0.010  0.00  0.00    +0.004 C 
ATOM     27  C   UNL     1       0.002  -0.004   0.002  0.00  0.00    +0.003 C 
ENDBRANCH  25  27
ENDBRANCH  19  25
ENDBRANCH  15  21
ENDBRANCH   1  17
TORSDOF 4
