REMARK  Name = ZINC12483259
REMARK  5 active torsions:
REMARK  status: ('A' for Active; 'I' for Inactive)
REMARK    1  A    between atoms: C_4  and  O_7
REMARK    2  A    between atoms: O_7  and  C_8
REMARK    3  A    between atoms: C_10  and  O_31
REMARK    4  A    between atoms: C_12  and  N_21
REMARK    5  A    between atoms: N_24  and  C_25
REMARK                            x       y       z     vdW  Elec       q    Type
REMARK                         _______ _______ _______ _____ _____    ______ ____
ROOT
ATOM      1  C   UNL     1      -0.206   0.973   0.056  0.00  0.00    +0.259 C 
ATOM      2  C   UNL     1      -0.937   1.565   1.265  0.00  0.00    +0.183 C 
ATOM      3  C   UNL     1      -0.540   3.038   1.425  0.00  0.00    +0.138 C 
ATOM      4  C   UNL     1       0.994   3.132   1.437  0.00  0.00    +0.170 C 
ATOM      5  C   UNL     1       1.527   2.015   2.365  0.00  0.00    +0.196 C 
ATOM      6  O   UNL     1       1.723   0.858   1.498  0.00  0.00    -0.345 OA
ATOM      7  C   UNL     1       1.295   1.273   0.187  0.00  0.00    +0.294 C 
ATOM      8  O   UNL     1       1.459   2.707   0.132  0.00  0.00    -0.340 OA
ENDROOT
BRANCH   3   9
ATOM      9  N   UNL     1      -1.073   3.815   0.303  0.00  0.00    -0.291 N 
ATOM     10  C   UNL     1      -2.328   4.302   0.356  0.00  0.00    +0.300 C 
ATOM     11  O   UNL     1      -3.019   4.097   1.335  0.00  0.00    -0.253 OA
ATOM     12  N   UNL     1      -2.817   5.018  -0.676  0.00  0.00    -0.297 N 
ATOM     13  H   UNL     1      -0.521   3.979  -0.478  0.00  0.00    +0.151 HD
ATOM     14  H   UNL     1      -2.266   5.182  -1.457  0.00  0.00    +0.151 HD
BRANCH  12  15
ATOM     15  C   UNL     1      -4.182   5.547  -0.618  0.00  0.00    +0.074 C 
ATOM     16  C   UNL     1      -5.166   4.473  -1.086  0.00  0.00    +0.022 C 
ATOM     17  C   UNL     1      -6.591   5.027  -1.026  0.00  0.00    +0.002 C 
ATOM     18  C   UNL     1      -6.702   6.252  -1.936  0.00  0.00    +0.000 C 
ATOM     19  C   UNL     1      -5.718   7.325  -1.468  0.00  0.00    +0.002 C 
ATOM     20  C   UNL     1      -4.293   6.772  -1.528  0.00  0.00    +0.022 C 
ENDBRANCH  12  15
ENDBRANCH   3   9
BRANCH   2  21
ATOM     21  O   UNL     1      -0.573   0.843   2.443  0.00  0.00    -0.386 OA
ATOM     22  H   UNL     1      -0.792  -0.099   2.411  0.00  0.00    +0.210 HD
ENDBRANCH   2  21
BRANCH   1  23
ATOM     23  O   UNL     1      -0.709   1.562  -1.146  0.00  0.00    -0.481 OA
BRANCH  23  27
ATOM     24  C   UNL     1      -0.288  -0.623  -4.620  0.00  0.00    +0.000 A 
ATOM     25  C   UNL     1       0.273  -1.083  -3.443  0.00  0.00    +0.004 A 
ATOM     26  C   UNL     1       0.133  -0.354  -2.278  0.00  0.00    +0.045 A 
ATOM     27  C   UNL     1      -0.570   0.842  -2.290  0.00  0.00    +0.121 A 
ATOM     28  C   UNL     1      -1.137   1.299  -3.471  0.00  0.00    +0.045 A 
ATOM     29  C   UNL     1      -0.991   0.568  -4.634  0.00  0.00    +0.004 A 
ENDBRANCH  23  27
ENDBRANCH   1  23
TORSDOF 5
