REMARK  Name = ZINC14974249
REMARK  8 active torsions:
REMARK  status: ('A' for Active; 'I' for Inactive)
REMARK    1  A    between atoms: C_1  and  C_2
REMARK    2  A    between atoms: C_3  and  C_7
REMARK    3  A    between atoms: N_9  and  C_10
REMARK    4  A    between atoms: N_9  and  C_11
REMARK    5  A    between atoms: C_11  and  C_13
REMARK    6  A    between atoms: C_11  and  C_20
REMARK    7  A    between atoms: C_13  and  C_14
REMARK    8  A    between atoms: C_26  and  C_28
REMARK                            x       y       z     vdW  Elec       q    Type
REMARK                         _______ _______ _______ _____ _____    ______ ____
ROOT
ATOM      1  C   UNL     1       2.984   4.342   2.202  0.00  0.00    +0.083 C 
ENDROOT
BRANCH   1   2
ATOM      2  C   UNL     1       1.979   3.550   1.364  0.00  0.00    +0.013 C 
ATOM      3  C   UNL     1       1.891   2.117   1.894  0.00  0.00    +0.024 C 
ATOM      4  C   UNL     1       0.909   1.317   1.032  0.00  0.00    +0.108 C 
ATOM      5  N   UNL     1      -0.376   2.027   0.995  0.00  0.00    -0.298 N 
ATOM      6  C   UNL     1      -0.393   3.436   0.581  0.00  0.00    +0.108 C 
ATOM      7  C   UNL     1       0.603   4.214   1.454  0.00  0.00    +0.024 C 
ATOM      8  C   UNL     1      -1.519   1.396   1.330  0.00  0.00    +0.260 C 
ATOM      9  O   UNL     1      -2.561   2.014   1.382  0.00  0.00    -0.271 OA
BRANCH   8  10
ATOM     10  C   UNL     1      -1.501  -0.078   1.646  0.00  0.00    +0.296 C 
ATOM     11  C   UNL     1      -1.126  -0.872   0.388  0.00  0.00    +0.283 C 
ATOM     12  O   UNL     1      -1.132  -2.265   0.719  0.00  0.00    -0.484 OA
ATOM     13  C   UNL     1      -2.201  -2.721   1.429  0.00  0.00    +0.162 A 
ATOM     14  C   UNL     1      -2.455  -4.083   1.476  0.00  0.00    +0.049 A 
ATOM     15  C   UNL     1      -3.533  -4.561   2.198  0.00  0.00    +0.004 A 
ATOM     16  C   UNL     1      -4.360  -3.683   2.873  0.00  0.00    +0.004 A 
ATOM     17  C   UNL     1      -4.112  -2.324   2.829  0.00  0.00    +0.049 A 
ATOM     18  C   UNL     1      -3.033  -1.838   2.106  0.00  0.00    +0.163 A 
ATOM     19  O   UNL     1      -2.804  -0.496   2.069  0.00  0.00    -0.473 OA
ENDBRANCH   8  10
ENDBRANCH   1   2
BRANCH   1  22
ATOM     20  C   UNL     1       3.415   3.602   4.483  0.00  0.00    +0.250 C 
ATOM     21  O   UNL     1       4.496   3.183   4.115  0.00  0.00    -0.270 OA
ATOM     22  N   UNL     1       2.615   4.255   3.618  0.00  0.00    -0.297 N 
ATOM     23  C   UNL     1       1.377   4.879   4.092  0.00  0.00    +0.132 C 
BRANCH  20  26
ATOM     24  C   UNL     1       5.142   2.398   6.809  0.00  0.00    +0.087 C 
ATOM     25  C   UNL     1       3.715   2.874   6.901  0.00  0.00    +0.114 A 
ATOM     26  C   UNL     1       2.981   3.396   5.876  0.00  0.00    +0.077 A 
ATOM     27  C   UNL     1       1.663   3.702   6.451  0.00  0.00    +0.054 A 
ATOM     28  C   UNL     1       1.732   3.347   7.743  0.00  0.00    +0.196 A 
ATOM     29  O   UNL     1       2.955   2.860   8.000  0.00  0.00    -0.467 OA
ENDBRANCH  20  26
ENDBRANCH   1  22
BRANCH   1  30
ATOM     30  C   UNL     1       2.972   5.807   1.761  0.00  0.00    +0.058 C 
BRANCH  30  31
ATOM     31  C   UNL     1       4.049   6.562   2.498  0.00  0.00    -0.046 A 
ATOM     32  C   UNL     1       3.763   7.170   3.706  0.00  0.00    +0.004 A 
ATOM     33  C   UNL     1       4.752   7.858   4.384  0.00  0.00    +0.000 A 
ATOM     34  C   UNL     1       6.024   7.947   3.849  0.00  0.00    +0.000 A 
ATOM     35  C   UNL     1       6.308   7.343   2.638  0.00  0.00    +0.000 A 
ATOM     36  C   UNL     1       5.320   6.651   1.963  0.00  0.00    +0.004 A 
ENDBRANCH  30  31
ENDBRANCH   1  30
TORSDOF 6
