REMARK  Name = ZINC38975667
REMARK  7 active torsions:
REMARK  status: ('A' for Active; 'I' for Inactive)
REMARK    1  A    between atoms: C_1  and  C_2
REMARK    2  A    between atoms: C_5  and  N_9
REMARK    3  A    between atoms: C_7  and  C_8
REMARK    4  A    between atoms: N_9  and  C_10
REMARK    5  A    between atoms: C_12  and  C_21
REMARK    6  A    between atoms: C_26  and  O_33
REMARK    7  A    between atoms: O_33  and  C_34
REMARK                            x       y       z     vdW  Elec       q    Type
REMARK                         _______ _______ _______ _____ _____    ______ ____
ROOT
ATOM      1  C   UNL     1      -0.270  -4.798  -1.383  0.00  0.00    +0.188 C 
ATOM      2  C   UNL     1      -1.026  -6.109  -1.099  0.00  0.00    +0.135 C 
ATOM      3  N   UNL     1       0.019  -7.137  -1.127  0.00  0.00    -0.366 N 
ATOM      4  C   UNL     1       1.192  -6.592  -1.377  0.00  0.00    +0.100 C 
ATOM      5  N   UNL     1       1.129  -5.229  -1.544  0.00  0.00    -0.272 N 
ATOM      6  C   UNL     1       2.252  -4.501  -1.811  0.00  0.00    +0.078 C 
ATOM      7  C   UNL     1       3.456  -5.099  -1.920  0.00  0.00    +0.015 C 
ATOM      8  C   UNL     1       3.568  -6.491  -1.758  0.00  0.00    +0.005 C 
ATOM      9  C   UNL     1       2.457  -7.235  -1.488  0.00  0.00    +0.042 C 
ATOM     10  H   UNL     1      -0.131  -8.084  -0.982  0.00  0.00    +0.161 HD
ENDROOT
BRANCH   2  11
ATOM     11  C   UNL     1      -1.692  -6.056   0.278  0.00  0.00    +0.124 C 
ATOM     12  C   UNL     1      -0.601  -5.892   1.317  0.00  0.00    -0.002 C 
ATOM     13  C   UNL     1      -0.514  -6.845   2.288  0.00  0.00    -0.003 A 
ATOM     14  C   UNL     1       0.510  -6.763   3.329  0.00  0.00    +0.055 A 
ATOM     15  C   UNL     1       0.560  -7.738   4.279  0.00  0.00    +0.121 A 
ATOM     16  C   UNL     1      -0.346  -8.805   4.273  0.00  0.00    +0.047 A 
ATOM     17  C   UNL     1      -1.318  -8.934   3.334  0.00  0.00    +0.027 A 
ATOM     18  C   UNL     1      -1.453  -7.980   2.308  0.00  0.00    +0.041 A 
ATOM     19  N   UNL     1      -2.412  -8.119   1.392  0.00  0.00    -0.284 N 
ATOM     20  C   UNL     1      -2.595  -7.262   0.403  0.00  0.00    +0.226 C 
ATOM     21  O   UNL     1      -3.487  -7.443  -0.404  0.00  0.00    -0.275 OA
ATOM     22  H   UNL     1      -3.003  -8.886   1.455  0.00  0.00    +0.155 HD
BRANCH  15  23
ATOM     23  O   UNL     1       1.507  -7.673   5.252  0.00  0.00    -0.495 OA
ATOM     24  C   UNL     1       1.513  -8.722   6.222  0.00  0.00    +0.277 C 
ENDBRANCH  15  23
ENDBRANCH   2  11
BRANCH   1  25
ATOM     25  N   UNL     1      -0.397  -3.874  -0.253  0.00  0.00    -0.324 N 
ATOM     26  H   UNL     1       0.338  -3.765   0.370  0.00  0.00    +0.148 HD
BRANCH  25  31
ATOM     27  C   UNL     1      -5.192  -0.936   0.480  0.00  0.00    +0.044 C 
ATOM     28  C   UNL     1      -3.918  -1.717   0.285  0.00  0.00    -0.047 A 
ATOM     29  C   UNL     1      -3.742  -2.476  -0.857  0.00  0.00    +0.005 A 
ATOM     30  C   UNL     1      -2.575  -3.192  -1.039  0.00  0.00    +0.023 A 
ATOM     31  C   UNL     1      -1.578  -3.150  -0.072  0.00  0.00    +0.029 A 
ATOM     32  C   UNL     1      -1.758  -2.386   1.074  0.00  0.00    +0.026 A 
ATOM     33  C   UNL     1      -2.925  -1.668   1.247  0.00  0.00    -0.046 A 
ATOM     34  C   UNL     1      -3.119  -0.834   2.487  0.00  0.00    +0.044 C 
ENDBRANCH  25  31
ENDBRANCH   1  25
TORSDOF 4
