REMARK  Name = ZINC09350021
REMARK  4 active torsions:
REMARK  status: ('A' for Active; 'I' for Inactive)
REMARK    1  A    between atoms: C_15  and  C_17
REMARK    2  A    between atoms: N_19  and  C_20
REMARK    3  A    between atoms: C_24  and  N_26
REMARK    4  A    between atoms: N_32  and  C_35
REMARK                            x       y       z     vdW  Elec       q    Type
REMARK                         _______ _______ _______ _____ _____    ______ ____
ROOT
ATOM      1  C   UNL     1       1.632   3.098   5.461  0.00  0.00    +0.001 A 
ATOM      2  C   UNL     1       2.143   3.934   4.484  0.00  0.00    +0.000 A 
ATOM      3  C   UNL     1       1.627   3.901   3.200  0.00  0.00    +0.006 A 
ATOM      4  C   UNL     1       0.605   3.034   2.887  0.00  0.00    -0.021 A 
ATOM      5  C   UNL     1       0.083   2.185   3.867  0.00  0.00    -0.019 A 
ATOM      6  C   UNL     1       0.608   2.225   5.161  0.00  0.00    +0.008 A 
ATOM      7  C   UNL     1      -1.012   1.246   3.550  0.00  0.00    +0.022 C 
ATOM      8  C   UNL     1      -1.278   0.965   2.258  0.00  0.00    +0.054 C 
ATOM      9  C   UNL     1       0.031   2.991   1.488  0.00  0.00    +0.100 C 
ATOM     10  C   UNL     1       1.029   3.137   0.423  0.00  0.00    +0.113 C 
ATOM     11  C   UNL     1       1.407   1.670  -0.008  0.00  0.00    +0.117 C 
ATOM     12  C   UNL     1      -0.007   1.090   0.006  0.00  0.00    +0.156 C 
ATOM     13  C   UNL     1       2.091   2.029  -1.288  0.00  0.00    +0.228 C 
ATOM     14  O   UNL     1       2.080   1.405  -2.328  0.00  0.00    -0.275 OA
ATOM     15  N   UNL     1       2.736   3.212  -1.036  0.00  0.00    -0.238 N 
ATOM     16  C   UNL     1       2.235   3.861   0.068  0.00  0.00    +0.228 C 
ATOM     17  O   UNL     1       2.705   4.823   0.637  0.00  0.00    -0.275 OA
ATOM     18  N   UNL     1      -0.735   1.822   1.115  0.00  0.00    -0.383 NA
ATOM     19  H   UNL     1      -1.582   2.200   0.673  0.00  0.00    +0.127 HD
ENDROOT
BRANCH  15  20
ATOM     20  C   UNL     1       3.837   3.729  -1.852  0.00  0.00    +0.084 C 
ATOM     21  C   UNL     1       3.355   3.932  -3.289  0.00  0.00    +0.023 C 
ATOM     22  C   UNL     1       4.505   4.472  -4.142  0.00  0.00    +0.002 C 
ATOM     23  C   UNL     1       5.662   3.471  -4.129  0.00  0.00    +0.000 C 
ATOM     24  C   UNL     1       6.145   3.268  -2.691  0.00  0.00    +0.002 C 
ATOM     25  C   UNL     1       4.995   2.728  -1.839  0.00  0.00    +0.023 C 
ENDBRANCH  15  20
BRANCH  12  26
ATOM     26  C   UNL     1      -0.821   1.619  -1.146  0.00  0.00    +0.237 C 
ATOM     27  O   UNL     1      -1.565   2.563  -0.981  0.00  0.00    -0.273 OA
ATOM     28  N   UNL     1      -0.723   1.043  -2.361  0.00  0.00    -0.284 N 
ATOM     29  H   UNL     1      -0.081   0.332  -2.510  0.00  0.00    +0.155 HD
BRANCH  28  30
ATOM     30  C   UNL     1      -1.549   1.471  -3.407  0.00  0.00    +0.036 A 
ATOM     31  C   UNL     1      -2.012   0.558  -4.346  0.00  0.00    +0.025 A 
ATOM     32  C   UNL     1      -2.831   0.981  -5.373  0.00  0.00    +0.024 A 
ATOM     33  C   UNL     1      -3.182   2.316  -5.475  0.00  0.00    +0.071 A 
ATOM     34  C   UNL     1      -2.717   3.229  -4.545  0.00  0.00    +0.146 A 
ATOM     35  C   UNL     1      -1.902   2.809  -3.511  0.00  0.00    +0.057 A 
ATOM     36 CL   UNL     1      -4.206   2.847  -6.772  0.00  0.00    -0.081 Cl
BRANCH  34  37
ATOM     37  N   UNL     1      -3.094   4.656  -4.657  0.00  0.00    +0.058 N 
ATOM     38  O   UNL     1      -2.684   5.460  -3.838  0.00  0.00    -0.126 OA
ATOM     39  O   UNL     1      -3.812   5.027  -5.568  0.00  0.00    -0.126 OA
ENDBRANCH  34  37
ENDBRANCH  28  30
ENDBRANCH  12  26
TORSDOF 4
