REMARK  Name = ZINC12664745
REMARK  10 active torsions:
REMARK  status: ('A' for Active; 'I' for Inactive)
REMARK    1  A    between atoms: C_1  and  O_2
REMARK    2  A    between atoms: O_2  and  C_3
REMARK    3  A    between atoms: N_11  and  C_12
REMARK    4  A    between atoms: C_12  and  C_14
REMARK    5  A    between atoms: N_19  and  S_21
REMARK    6  A    between atoms: S_21  and  C_24
REMARK    7  A    between atoms: N_31  and  C_32
REMARK    8  A    between atoms: C_32  and  C_33
REMARK    9  A    between atoms: C_33  and  O_35
REMARK   10  A    between atoms: O_35  and  C_36
REMARK                            x       y       z     vdW  Elec       q    Type
REMARK                         _______ _______ _______ _____ _____    ______ ____
ROOT
ATOM      1  C   UNL     1       0.842   0.996  -3.166  0.00  0.00    +0.243 C 
ATOM      2  O   UNL     1       1.760   0.220  -2.981  0.00  0.00    -0.273 OA
ENDROOT
BRANCH   1  11
ATOM      3  C   UNL     1      -2.692  -3.817  -6.812  0.00  0.00    +0.121 A 
ATOM      4  C   UNL     1      -2.427  -4.190  -5.500  0.00  0.00    +0.048 A 
ATOM      5  C   UNL     1      -1.769  -3.345  -4.639  0.00  0.00    +0.030 A 
ATOM      6  C   UNL     1      -1.344  -2.076  -5.062  0.00  0.00    +0.058 A 
ATOM      7  C   UNL     1      -1.624  -1.725  -6.391  0.00  0.00    +0.042 A 
ATOM      8  C   UNL     1      -2.282  -2.567  -7.255  0.00  0.00    +0.062 A 
ATOM      9  S   UNL     1      -0.943  -0.091  -6.532  0.00  0.00    -0.052 S 
ATOM     10  C   UNL     1      -0.339   0.073  -4.915  0.00  0.00    +0.167 A 
ATOM     11  N   UNL     1       0.300   1.108  -4.374  0.00  0.00    -0.156 NA
ATOM     12  N   UNL     1      -0.669  -1.111  -4.335  0.00  0.00    -0.310 N 
BRANCH   3  14
ATOM     13  C   UNL     1      -3.734  -5.933  -7.118  0.00  0.00    +0.277 C 
ATOM     14  O   UNL     1      -3.345  -4.665  -7.651  0.00  0.00    -0.495 OA
ENDBRANCH   3  14
BRANCH  12  15
ATOM     15  C   UNL     1      -0.314  -1.364  -2.937  0.00  0.00    +0.244 C 
BRANCH  15  16
ATOM     16  C   UNL     1      -1.465  -2.042  -2.241  0.00  0.00    +0.327 C 
ATOM     17  O   UNL     1      -2.514  -2.197  -2.820  0.00  0.00    -0.249 OA
BRANCH  16  18
ATOM     18  O   UNL     1      -1.326  -2.474  -0.977  0.00  0.00    -0.467 OA
ATOM     19  C   UNL     1      -2.429  -3.232  -0.414  0.00  0.00    +0.280 C 
ENDBRANCH  16  18
ENDBRANCH  15  16
ENDBRANCH  12  15
ENDBRANCH   1  11
BRANCH   1  20
ATOM     20  C   UNL     1       0.320   1.831  -2.025  0.00  0.00    +0.093 C 
ATOM     21  C   UNL     1       0.662   3.302  -2.271  0.00  0.00    +0.015 C 
ATOM     22  C   UNL     1       0.103   4.155  -1.129  0.00  0.00    +0.018 C 
ATOM     23  C   UNL     1       0.749   3.722   0.190  0.00  0.00    +0.109 C 
ATOM     24  N   UNL     1       0.552   2.276   0.364  0.00  0.00    -0.176 NA
ATOM     25  C   UNL     1       0.968   1.371  -0.716  0.00  0.00    +0.122 C 
BRANCH  24  26
ATOM     26  S   UNL     1      -0.131   1.678   1.750  0.00  0.00    +0.061 S 
ATOM     27  O   UNL     1      -0.904   2.731   2.309  0.00  0.00    -0.153 OA
ATOM     28  O   UNL     1      -0.692   0.416   1.414  0.00  0.00    -0.153 OA
BRANCH  26  29
ATOM     29  C   UNL     1       1.181   1.361   2.882  0.00  0.00    +0.106 A 
ATOM     30  C   UNL     1       1.794   0.121   2.900  0.00  0.00    +0.031 A 
ATOM     31  C   UNL     1       2.827  -0.127   3.783  0.00  0.00    +0.040 A 
ATOM     32  C   UNL     1       3.241   0.863   4.659  0.00  0.00    +0.124 A 
ATOM     33  C   UNL     1       2.623   2.102   4.644  0.00  0.00    +0.040 A 
ATOM     34  C   UNL     1       1.594   2.349   3.756  0.00  0.00    +0.031 A 
ATOM     35  F   UNL     1       4.247   0.619   5.527  0.00  0.00    -0.205 F 
ENDBRANCH  26  29
ENDBRANCH  24  26
ENDBRANCH   1  20
TORSDOF 8
