REMARK  Name = ZINC39944045
REMARK  3 active torsions:
REMARK  status: ('A' for Active; 'I' for Inactive)
REMARK    1  A    between atoms: C_8  and  C_12
REMARK    2  A    between atoms: C_12  and  S_13
REMARK    3  A    between atoms: S_13  and  C_14
REMARK                            x       y       z     vdW  Elec       q    Type
REMARK                         _______ _______ _______ _____ _____    ______ ____
ROOT
ATOM      1  C   UNL     1      -0.019   1.528   0.010  0.00  0.00    +0.002 C 
ATOM      2  C   UNL     1       1.399   2.094  -0.000  0.00  0.00    +0.004 C 
ATOM      3  C   UNL     1       2.151   1.676   1.271  0.00  0.00    +0.033 C 
ATOM      4  C   UNL     1       2.037   0.156   1.366  0.00  0.00    -0.042 C 
ATOM      5  C   UNL     1       3.070  -0.680   1.479  0.00  0.00    +0.071 C 
ATOM      6  C   UNL     1       2.810  -2.139   1.367  0.00  0.00    +0.111 C 
ATOM      7  N   UNL     1       3.771  -3.031   1.422  0.00  0.00    -0.227 NA
ATOM      8  C   UNL     1       5.017  -2.588   1.587  0.00  0.00    +0.134 C 
ATOM      9  N   UNL     1       5.367  -1.333   1.698  0.00  0.00    -0.160 NA
ATOM     10  C   UNL     1       4.510  -0.296   1.656  0.00  0.00    +0.271 C 
ATOM     11  O   UNL     1       4.875   0.864   1.754  0.00  0.00    -0.268 OA
ATOM     12  S   UNL     1       1.060  -2.271   1.177  0.00  0.00    -0.097 S 
ATOM     13  C   UNL     1       0.651  -0.488   1.301  0.00  0.00    +0.079 C 
ATOM     14  C   UNL     1       0.002  -0.004   0.002  0.00  0.00    +0.019 C 
ENDROOT
BRANCH   8  15
ATOM     15  C   UNL     1       6.114  -3.619   1.651  0.00  0.00    +0.151 C 
BRANCH  15  16
ATOM     16  S   UNL     1       7.712  -2.790   1.877  0.00  0.00    -0.077 S 
BRANCH  16  17
ATOM     17  C   UNL     1       8.875  -4.113   1.932  0.00  0.00    +0.210 A 
ATOM     18  N   UNL     1      10.196  -3.980   2.094  0.00  0.00    -0.188 NA
ATOM     19  C   UNL     1      10.764  -5.167   2.088  0.00  0.00    +0.209 A 
ATOM     20  N   UNL     1       9.796  -6.092   1.921  0.00  0.00    -0.246 N 
ATOM     21  H   UNL     1       9.913  -7.053   1.878  0.00  0.00    +0.192 HD
ATOM     22  N   UNL     1       8.585  -5.387   1.828  0.00  0.00    -0.144 NA
ATOM     23  N   UNL     1      12.116  -5.422   2.229  0.00  0.00    -0.328 N 
ATOM     24  H   UNL     1      12.739  -4.687   2.345  0.00  0.00    +0.145 HD
ATOM     25  H   UNL     1      12.442  -6.335   2.212  0.00  0.00    +0.145 HD
ENDBRANCH  16  17
ENDBRANCH  15  16
ENDBRANCH   8  15
TORSDOF 3
