REMARK  Name = ZINC39699710
REMARK  5 active torsions:
REMARK  status: ('A' for Active; 'I' for Inactive)
REMARK    1  A    between atoms: C_1  and  N_2
REMARK    2  A    between atoms: N_2  and  C_3
REMARK    3  A    between atoms: N_2  and  C_4
REMARK    4  A    between atoms: C_7  and  C_10
REMARK    5  A    between atoms: N_11  and  N_12
REMARK                            x       y       z     vdW  Elec       q    Type
REMARK                         _______ _______ _______ _____ _____    ______ ____
ROOT
ATOM      1  N   UNL     1      -7.181  -2.974   0.047  0.00  0.00    -0.206 N 
ATOM      2  C   UNL     1      -8.385  -2.300   0.056  0.00  0.00    +0.227 C 
ATOM      3  N   UNL     1      -8.360  -0.988   0.053  0.00  0.00    -0.220 NA
ATOM      4  C   UNL     1      -9.637  -0.284   0.143  0.00  0.00    +0.253 C 
ATOM      5  C   UNL     1     -10.678  -1.204  -0.478  0.00  0.00    +0.115 C 
ATOM      6  C   UNL     1     -11.375  -0.428  -1.354  0.00  0.00    +0.026 A 
ATOM      7  C   UNL     1     -12.522  -0.681  -2.144  0.00  0.00    +0.027 A 
ATOM      8  C   UNL     1     -12.967   0.327  -2.943  0.00  0.00    +0.019 A 
ATOM      9  C   UNL     1     -12.364   1.587  -3.030  0.00  0.00    +0.017 A 
ATOM     10  C   UNL     1     -11.265   1.942  -2.313  0.00  0.00    +0.027 A 
ATOM     11  C   UNL     1     -10.716   0.913  -1.413  0.00  0.00    +0.046 A 
ATOM     12  N   UNL     1      -9.703   0.964  -0.604  0.00  0.00    -0.358 N 
ATOM     13 BR   UNL     1     -14.499   0.004  -4.005  0.00  0.00    -0.050 Br
ATOM     14  N   UNL     1     -10.680  -2.516  -0.228  0.00  0.00    -0.171 NA
ATOM     15  N   UNL     1      -9.526  -3.031   0.063  0.00  0.00    -0.247 N 
ATOM     16  H   UNL     1      -7.168  -3.943   0.045  0.00  0.00    +0.177 HD
ATOM     17  H   UNL     1      -9.479  -3.971   0.296  0.00  0.00    +0.192 HD
ATOM     18  H   UNL     1      -9.090   1.711  -0.511  0.00  0.00    +0.162 HD
ENDROOT
BRANCH   1  20
ATOM     19  C   UNL     1      -4.844  -2.890   0.031  0.00  0.00    +0.138 C 
ATOM     20  N   UNL     1      -5.977  -2.257   0.040  0.00  0.00    -0.188 NA
BRANCH  19  24
ATOM     21  C   UNL     1      -1.196  -0.718   0.010  0.00  0.00    +0.029 A 
ATOM     22  C   UNL     1      -1.175  -2.109   0.008  0.00  0.00    +0.024 A 
ATOM     23  C   UNL     1      -2.357  -2.817   0.015  0.00  0.00    +0.011 A 
ATOM     24  C   UNL     1      -3.578  -2.136   0.024  0.00  0.00    -0.005 A 
ATOM     25  C   UNL     1      -3.595  -0.739   0.027  0.00  0.00    +0.011 A 
ATOM     26  C   UNL     1      -2.409  -0.037   0.025  0.00  0.00    +0.024 A 
BRANCH  21  28
ATOM     27  C   UNL     1      -0.018   1.461   0.010  0.00  0.00    +0.129 C 
ATOM     28  N   UNL     1       0.002  -0.004   0.002  0.00  0.00    -0.336 N 
ATOM     29  C   UNL     1       1.281  -0.719  -0.014  0.00  0.00    +0.129 C 
ENDBRANCH  21  28
ENDBRANCH  19  24
ENDBRANCH   1  20
TORSDOF 3
