REMARK  Name = ZINC28854165
REMARK  8 active torsions:
REMARK  status: ('A' for Active; 'I' for Inactive)
REMARK    1  A    between atoms: C_1  and  C_2
REMARK    2  A    between atoms: C_2  and  N_3
REMARK    3  A    between atoms: C_7  and  C_9
REMARK    4  A    between atoms: C_9  and  C_11
REMARK    5  A    between atoms: C_9  and  O_12
REMARK    6  A    between atoms: O_12  and  C_13
REMARK    7  A    between atoms: C_13  and  C_15
REMARK    8  A    between atoms: C_16  and  C_28
REMARK                            x       y       z     vdW  Elec       q    Type
REMARK                         _______ _______ _______ _____ _____    ______ ____
ROOT
ATOM      1  C   UNL     1       1.128   8.691   0.037  0.00  0.00    +0.376 C 
ATOM      2  O   UNL     1       0.528   9.749   0.048  0.00  0.00    -0.241 OA
ENDROOT
BRANCH   1   3
ATOM      3  C   UNL     1       0.385   7.426   0.038  0.00  0.00    +0.216 A 
ATOM      4  C   UNL     1      -0.970   7.309   0.051  0.00  0.00    +0.010 A 
ATOM      5  C   UNL     1      -1.263   5.922   0.046  0.00  0.00    +0.025 A 
ATOM      6  C   UNL     1      -2.468   5.190   0.053  0.00  0.00    +0.012 A 
ATOM      7  C   UNL     1      -2.456   3.837   0.046  0.00  0.00    +0.009 A 
ATOM      8  C   UNL     1      -1.232   3.135   0.030  0.00  0.00    -0.014 A 
ATOM      9  C   UNL     1      -1.207   1.731   0.017  0.00  0.00    +0.008 A 
ATOM     10  C   UNL     1      -0.013   1.076   0.008  0.00  0.00    +0.001 A 
ATOM     11  C   UNL     1       1.189   1.778   0.000  0.00  0.00    +0.001 A 
ATOM     12  C   UNL     1       1.202   3.141   0.006  0.00  0.00    +0.012 A 
ATOM     13  C   UNL     1      -0.009   3.848   0.021  0.00  0.00    +0.025 A 
ATOM     14  C   UNL     1      -0.031   5.260   0.029  0.00  0.00    +0.144 A 
ATOM     15  O   UNL     1       0.937   6.194   0.025  0.00  0.00    -0.447 OA
ATOM     16  C   UNL     1      -1.969   8.437   0.067  0.00  0.00    +0.048 C 
ENDBRANCH   1   3
BRANCH   1  17
ATOM     17  O   UNL     1       2.477   8.681   0.024  0.00  0.00    -0.447 OA
BRANCH  17  18
ATOM     18  C   UNL     1       3.146   9.969   0.024  0.00  0.00    +0.259 C 
ATOM     19  C   UNL     1       3.367  10.429  -1.419  0.00  0.00    +0.062 C 
BRANCH  18  24
ATOM     20  N   UNL     1       7.178  11.924   1.764  0.00  0.00    -0.299 N 
ATOM     21  C   UNL     1       6.422  10.828   1.554  0.00  0.00    +0.306 C 
ATOM     22  O   UNL     1       6.813   9.739   1.926  0.00  0.00    -0.252 OA
ATOM     23  N   UNL     1       5.232  10.940   0.931  0.00  0.00    -0.237 N 
ATOM     24  C   UNL     1       4.476   9.844   0.721  0.00  0.00    +0.261 C 
ATOM     25  O   UNL     1       4.866   8.758   1.092  0.00  0.00    -0.271 OA
ATOM     26  H   UNL     1       6.824  12.909   1.427  0.00  0.00    +0.150 HD
ATOM     27  H   UNL     1       4.878  11.925   0.594  0.00  0.00    +0.159 HD
BRANCH  20  29
ATOM     28  C   UNL     1       9.121  13.184   2.552  0.00  0.00    +0.024 C 
ATOM     29  C   UNL     1       8.472  11.803   2.442  0.00  0.00    +0.102 C 
ENDBRANCH  20  29
ENDBRANCH  18  24
ENDBRANCH  17  18
ENDBRANCH   1  17
TORSDOF 5
