REMARK  Name = ZINC48311358
REMARK  8 active torsions:
REMARK  status: ('A' for Active; 'I' for Inactive)
REMARK    1  A    between atoms: C_1  and  S_2
REMARK    2  A    between atoms: S_2  and  C_3
REMARK    3  A    between atoms: C_5  and  C_12
REMARK    4  A    between atoms: C_12  and  O_14
REMARK    5  A    between atoms: O_14  and  C_15
REMARK    6  A    between atoms: C_15  and  C_16
REMARK    7  A    between atoms: C_19  and  C_29
REMARK    8  A    between atoms: C_22  and  C_24
REMARK                            x       y       z     vdW  Elec       q    Type
REMARK                         _______ _______ _______ _____ _____    ______ ____
ROOT
ATOM      1  C   UNL     1       3.292   3.698   5.735  0.00  0.00    +0.273 C 
ATOM      2  O   UNL     1       2.741   4.276   4.822  0.00  0.00    -0.270 OA
ATOM      3  N   UNL     1       3.863   4.402   6.732  0.00  0.00    -0.182 N 
ATOM      4  C   UNL     1       3.886   5.870   6.839  0.00  0.00    +0.144 C 
ATOM      5  C   UNL     1       4.654   6.127   8.150  0.00  0.00    +0.088 C 
ATOM      6  C   UNL     1       4.990   4.741   8.653  0.00  0.00    +0.075 C 
ATOM      7  N   UNL     1       4.522   3.860   7.833  0.00  0.00    -0.180 NA
ENDROOT
BRANCH   6   8
ATOM      8  C   UNL     1       5.728   4.443   9.885  0.00  0.00    +0.035 A 
ATOM      9  C   UNL     1       6.081   3.215  10.415  0.00  0.00    +0.017 A 
ATOM     10  C   UNL     1       6.781   3.191  11.599  0.00  0.00    +0.008 A 
ATOM     11  C   UNL     1       7.101   4.363  12.206  0.00  0.00    +0.046 A 
ATOM     12  S   UNL     1       6.410   5.572  11.089  0.00  0.00    -0.095 S 
ENDBRANCH   6   8
BRANCH   4  13
ATOM     13  C   UNL     1       4.614   6.475   5.666  0.00  0.00    +0.013 A 
ATOM     14  C   UNL     1       4.329   7.607   4.976  0.00  0.00    +0.013 A 
ATOM     15  C   UNL     1       5.147   7.973   3.924  0.00  0.00    +0.008 A 
ATOM     16  C   UNL     1       6.208   7.190   3.612  0.00  0.00    +0.045 A 
ATOM     17  S   UNL     1       6.079   5.891   4.830  0.00  0.00    -0.100 S 
ENDBRANCH   4  13
BRANCH   1  18
ATOM     18  C   UNL     1       3.337   2.192   5.755  0.00  0.00    +0.330 C 
BRANCH  18  19
ATOM     19  O   UNL     1       2.669   1.679   4.600  0.00  0.00    -0.451 OA
BRANCH  19  20
ATOM     20  C   UNL     1       2.620   0.337   4.465  0.00  0.00    +0.360 C 
ATOM     21  O   UNL     1       3.131  -0.379   5.308  0.00  0.00    -0.243 OA
BRANCH  20  24
ATOM     22  C   UNL     1       0.877  -0.427   1.472  0.00  0.00    +0.174 A 
ATOM     23  N   UNL     1       1.363   0.431   2.332  0.00  0.00    -0.214 NA
ATOM     24  C   UNL     1       1.974  -0.239   3.345  0.00  0.00    +0.174 A 
ATOM     25  C   UNL     1       1.843  -1.606   3.071  0.00  0.00    +0.081 A 
ATOM     26  N   UNL     1       1.145  -1.700   1.890  0.00  0.00    -0.294 N 
ATOM     27  C   UNL     1       0.856  -2.929   1.363  0.00  0.00    +0.094 A 
ATOM     28  C   UNL     1       1.247  -4.056   1.994  0.00  0.00    +0.018 A 
ATOM     29  C   UNL     1       1.958  -3.985   3.204  0.00  0.00    +0.004 A 
ATOM     30  C   UNL     1       2.260  -2.767   3.737  0.00  0.00    +0.028 A 
BRANCH  22  32
ATOM     31  C   UNL     1      -0.022   1.810   0.012  0.00  0.00    +0.093 C 
ATOM     32  S   UNL     1       0.002  -0.004   0.002  0.00  0.00    -0.091 S 
ENDBRANCH  22  32
ENDBRANCH  20  24
ENDBRANCH  19  20
ENDBRANCH  18  19
ENDBRANCH   1  18
TORSDOF 7
