REMARK  Name = ZINC13989444
REMARK  6 active torsions:
REMARK  status: ('A' for Active; 'I' for Inactive)
REMARK    1  A    between atoms: C_4  and  N_8
REMARK    2  A    between atoms: N_8  and  C_9
REMARK    3  A    between atoms: C_9  and  N_11
REMARK    4  A    between atoms: C_12  and  C_14
REMARK    5  A    between atoms: C_16  and  N_23
REMARK    6  A    between atoms: C_18  and  N_20
REMARK                            x       y       z     vdW  Elec       q    Type
REMARK                         _______ _______ _______ _____ _____    ______ ____
ROOT
ATOM      1  N   UNL     1       3.599   3.546   0.217  0.00  0.00    -0.264 N 
ATOM      2  C   UNL     1       3.581   2.220   0.458  0.00  0.00    +0.250 C 
ATOM      3  O   UNL     1       4.619   1.629   0.682  0.00  0.00    -0.270 OA
ATOM      4  H   UNL     1       2.771   4.017   0.037  0.00  0.00    +0.157 HD
ENDROOT
BRANCH   2   5
ATOM      5  C   UNL     1       2.299   1.484   0.449  0.00  0.00    +0.041 A 
ATOM      6  C   UNL     1       1.105   2.160   0.191  0.00  0.00    +0.046 A 
ATOM      7  C   UNL     1      -0.088   1.468   0.183  0.00  0.00    +0.129 A 
ATOM      8  C   UNL     1      -0.103   0.107   0.431  0.00  0.00    +0.065 A 
ATOM      9  C   UNL     1       1.077  -0.569   0.688  0.00  0.00    +0.129 A 
ATOM     10  C   UNL     1       2.277   0.111   0.698  0.00  0.00    +0.046 A 
BRANCH   9  11
ATOM     11  N   UNL     1       1.051  -2.025   0.952  0.00  0.00    +0.057 N 
ATOM     12  O   UNL     1      -0.008  -2.627   0.943  0.00  0.00    -0.126 OA
ATOM     13  O   UNL     1       2.088  -2.622   1.179  0.00  0.00    -0.126 OA
ENDBRANCH   9  11
BRANCH   7  14
ATOM     14  N   UNL     1      -1.354   2.182  -0.097  0.00  0.00    +0.057 N 
ATOM     15  O   UNL     1      -2.408   1.571  -0.109  0.00  0.00    -0.126 OA
ATOM     16  O   UNL     1      -1.343   3.380  -0.315  0.00  0.00    -0.126 OA
ENDBRANCH   7  14
ENDBRANCH   2   5
BRANCH   1  17
ATOM     17  C   UNL     1       4.768   4.216   0.225  0.00  0.00    +0.141 C 
ATOM     18  S   UNL     1       6.230   3.383   0.541  0.00  0.00    -0.018 S 
BRANCH  17  19
ATOM     19  N   UNL     1       4.787   5.542  -0.016  0.00  0.00    -0.295 N 
ATOM     20  H   UNL     1       3.968   6.002  -0.257  0.00  0.00    +0.154 HD
BRANCH  19  24
ATOM     21  C   UNL     1       8.362   7.664   0.274  0.00  0.00    +0.021 A 
ATOM     22  C   UNL     1       7.219   8.151   0.883  0.00  0.00    +0.023 A 
ATOM     23  C   UNL     1       6.032   7.450   0.789  0.00  0.00    +0.062 A 
ATOM     24  C   UNL     1       5.987   6.254   0.081  0.00  0.00    +0.053 A 
ATOM     25  C   UNL     1       7.137   5.766  -0.524  0.00  0.00    +0.044 A 
ATOM     26  C   UNL     1       8.320   6.475  -0.432  0.00  0.00    +0.043 A 
ATOM     27 CL   UNL     1       9.757   5.868  -1.195  0.00  0.00    -0.083 Cl
ATOM     28 CL   UNL     1       4.599   8.061   1.553  0.00  0.00    -0.082 Cl
ENDBRANCH  19  24
ENDBRANCH  17  19
ENDBRANCH   1  17
TORSDOF 6
