REMARK  Name = ZINC52550569
REMARK  6 active torsions:
REMARK  status: ('A' for Active; 'I' for Inactive)
REMARK    1  A    between atoms: C_4  and  C_10
REMARK    2  A    between atoms: N_13  and  C_16
REMARK    3  A    between atoms: C_16  and  C_18
REMARK    4  A    between atoms: C_16  and  C_37
REMARK    5  A    between atoms: C_24  and  C_26
REMARK    6  A    between atoms: C_27  and  C_28
REMARK                            x       y       z     vdW  Elec       q    Type
REMARK                         _______ _______ _______ _____ _____    ______ ____
ROOT
ATOM      1  C   UNL     1       7.179   6.205  -0.029  0.00  0.00    +0.050 C 
ENDROOT
BRANCH   1   2
ATOM      2  C   UNL     1       8.045   6.357  -1.281  0.00  0.00    -0.011 C 
ATOM      3  C   UNL     1       9.119   5.267  -1.294  0.00  0.00    +0.021 C 
ATOM      4  C   UNL     1       9.962   5.401  -2.566  0.00  0.00    +0.108 C 
ATOM      5  N   UNL     1      10.491   6.770  -2.641  0.00  0.00    -0.298 N 
ATOM      6  C   UNL     1       9.552   7.896  -2.547  0.00  0.00    +0.108 C 
ATOM      7  C   UNL     1       8.713   7.734  -1.275  0.00  0.00    +0.021 C 
ATOM      8  C   UNL     1      11.812   6.989  -2.792  0.00  0.00    +0.239 C 
ATOM      9  O   UNL     1      12.590   6.053  -2.773  0.00  0.00    -0.271 OA
BRANCH   8  10
ATOM     10  C   UNL     1      12.312   8.351  -2.981  0.00  0.00    +0.068 C 
ATOM     11  C   UNL     1      13.620   8.561  -3.232  0.00  0.00    +0.013 C 
BRANCH  11  12
ATOM     12  C   UNL     1      14.122   9.931  -3.421  0.00  0.00    -0.019 A 
ATOM     13  C   UNL     1      13.246  11.018  -3.335  0.00  0.00    +0.049 A 
ATOM     14  C   UNL     1      13.723  12.301  -3.513  0.00  0.00    +0.162 A 
ATOM     15  C   UNL     1      15.069  12.513  -3.778  0.00  0.00    +0.193 A 
ATOM     16  C   UNL     1      15.943  11.438  -3.866  0.00  0.00    +0.162 A 
ATOM     17  C   UNL     1      15.478  10.152  -3.683  0.00  0.00    +0.049 A 
ATOM     18  F   UNL     1      17.251  11.653  -4.124  0.00  0.00    -0.202 F 
ATOM     19  F   UNL     1      15.530  13.771  -3.952  0.00  0.00    -0.199 F 
ATOM     20  F   UNL     1      12.878  13.352  -3.430  0.00  0.00    -0.202 F 
ENDBRANCH  11  12
ENDBRANCH   8  10
ENDBRANCH   1   2
BRANCH   1  24
ATOM     21  C   UNL     1       4.238   3.122  -0.031  0.00  0.00    +0.014 C 
ATOM     22  C   UNL     1       5.090   3.352  -1.283  0.00  0.00    -0.011 C 
ATOM     23  C   UNL     1       5.697   4.755  -1.230  0.00  0.00    -0.077 C 
ATOM     24  N   UNL     1       6.538   4.884  -0.035  0.00  0.00    +0.389 N 
ATOM     25  C   UNL     1       5.715   4.736   1.172  0.00  0.00    -0.077 C 
ATOM     26  C   UNL     1       5.109   3.331   1.211  0.00  0.00    -0.011 C 
ATOM     27  H   UNL     1       7.248   4.167  -0.046  0.00  0.00    -0.081 HD
BRANCH  21  31
ATOM     28  C   UNL     1      -0.017   1.388  -0.002  0.00  0.00    +0.020 A 
ATOM     29  C   UNL     1       1.144   2.096  -0.007  0.00  0.00    +0.013 A 
ATOM     30  C   UNL     1       2.402   1.338  -0.028  0.00  0.00    +0.018 A 
ATOM     31  C   UNL     1       3.701   1.714  -0.039  0.00  0.00    -0.037 C 
ATOM     32  C   UNL     1       4.505   0.433  -0.060  0.00  0.00    +0.146 C 
ATOM     33  N   UNL     1       3.524  -0.658  -0.059  0.00  0.00    -0.365 N 
ATOM     34  C   UNL     1       2.320  -0.140  -0.041  0.00  0.00    +0.134 A 
ATOM     35  N   UNL     1       1.098  -0.715  -0.034  0.00  0.00    -0.238 NA
ATOM     36  C   UNL     1       0.001  -0.010  -0.016  0.00  0.00    +0.113 A 
ATOM     37  H   UNL     1       3.732  -1.605  -0.071  0.00  0.00    +0.161 HD
ENDBRANCH  21  31
ENDBRANCH   1  24
BRANCH   1  38
ATOM     38  C   UNL     1       8.043   6.339   1.199  0.00  0.00    +0.343 C 
ATOM     39  O   UNL     1       8.565   5.351   1.688  0.00  0.00    -0.248 OA
ATOM     40  O   UNL     1       8.221   7.434   1.703  0.00  0.00    -0.248 OA
ENDBRANCH   1  38
TORSDOF 6
