REMARK  Name = ZINC39226905
REMARK  3 active torsions:
REMARK  status: ('A' for Active; 'I' for Inactive)
REMARK    1  A    between atoms: N_14  and  C_17
REMARK    2  A    between atoms: C_17  and  C_18
REMARK    3  A    between atoms: N_20  and  C_21
REMARK                            x       y       z     vdW  Elec       q    Type
REMARK                         _______ _______ _______ _____ _____    ______ ____
ROOT
ATOM      1  C   UNL     1       0.276   1.913  -0.275  0.00  0.00    +0.001 A 
ATOM      2  C   UNL     1       1.464   2.607  -0.104  0.00  0.00    +0.004 A 
ATOM      3  C   UNL     1       2.675   1.945  -0.117  0.00  0.00    +0.046 A 
ATOM      4  C   UNL     1       2.715   0.570  -0.300  0.00  0.00    +0.132 A 
ATOM      5  C   UNL     1       1.511  -0.134  -0.468  0.00  0.00    +0.059 A 
ATOM      6  C   UNL     1       0.292   0.546  -0.457  0.00  0.00    +0.015 A 
ATOM      7  C   UNL     1       1.556  -1.596  -0.649  0.00  0.00    +0.170 C 
ATOM      8  O   UNL     1       0.554  -2.277  -0.588  0.00  0.00    -0.292 OA
ATOM      9  C   UNL     1       2.921  -2.204  -0.917  0.00  0.00    +0.127 C 
ATOM     10  C   UNL     1       3.927  -1.472  -0.019  0.00  0.00    +0.114 C 
ATOM     11  O   UNL     1       3.904  -0.077  -0.318  0.00  0.00    -0.485 OA
ATOM     12  C   UNL     1       3.549  -1.691   1.448  0.00  0.00    +0.030 C 
ATOM     13  C   UNL     1       4.602  -1.036   2.344  0.00  0.00    -0.074 C 
ATOM     14  N   UNL     1       5.915  -1.635   2.079  0.00  0.00    +0.386 N 
ATOM     15  C   UNL     1       6.317  -1.363   0.694  0.00  0.00    -0.074 C 
ATOM     16  C   UNL     1       5.330  -2.030  -0.267  0.00  0.00    +0.030 C 
ATOM     17  H   UNL     1       5.864  -2.632   2.224  0.00  0.00    -0.081 HD
ENDROOT
BRANCH  14  18
ATOM     18  C   UNL     1       6.908  -1.060   2.997  0.00  0.00    +0.019 C 
BRANCH  18  19
ATOM     19  C   UNL     1       8.229  -1.760   2.811  0.00  0.00    +0.201 C 
ATOM     20  O   UNL     1       8.334  -2.651   1.994  0.00  0.00    -0.278 OA
ATOM     21  N   UNL     1       9.295  -1.397   3.552  0.00  0.00    -0.287 N 
ATOM     22  H   UNL     1       9.233  -0.636   4.149  0.00  0.00    +0.155 HD
BRANCH  21  23
ATOM     23  C   UNL     1      10.492  -2.120   3.458  0.00  0.00    +0.037 A 
ATOM     24  C   UNL     1      11.709  -1.469   3.608  0.00  0.00    +0.027 A 
ATOM     25  C   UNL     1      12.890  -2.180   3.517  0.00  0.00    +0.051 A 
ATOM     26  C   UNL     1      12.863  -3.544   3.276  0.00  0.00    +0.166 A 
ATOM     27  C   UNL     1      11.644  -4.200   3.125  0.00  0.00    +0.168 A 
ATOM     28  C   UNL     1      10.460  -3.487   3.223  0.00  0.00    +0.072 A 
ATOM     29  O   UNL     1      11.886  -5.524   2.898  0.00  0.00    -0.453 OA
ATOM     30  C   UNL     1      13.268  -5.601   2.505  0.00  0.00    +0.466 C 
ATOM     31  O   UNL     1      13.869  -4.458   3.143  0.00  0.00    -0.453 OA
ENDBRANCH  21  23
ENDBRANCH  18  19
ENDBRANCH  14  18
TORSDOF 3
