REMARK  Name = ZINC65136716
REMARK  10 active torsions:
REMARK  status: ('A' for Active; 'I' for Inactive)
REMARK    1  A    between atoms: C_1  and  C_2
REMARK    2  A    between atoms: C_2  and  C_3
REMARK    3  A    between atoms: C_2  and  C_4
REMARK    4  A    between atoms: C_4  and  C_5
REMARK    5  A    between atoms: C_5  and  N_6
REMARK    6  A    between atoms: N_9  and  N_10
REMARK    7  A    between atoms: C_11  and  C_13
REMARK    8  A    between atoms: C_14  and  C_15
REMARK    9  A    between atoms: C_19  and  O_21
REMARK   10  A    between atoms: O_21  and  C_22
REMARK                            x       y       z     vdW  Elec       q    Type
REMARK                         _______ _______ _______ _____ _____    ______ ____
ROOT
ATOM      1  N   UNL     1      -5.360  -3.464  -0.087  0.00  0.00    -0.230 N 
ATOM      2  C   UNL     1      -6.624  -3.930  -0.077  0.00  0.00    +0.253 C 
ATOM      3  O   UNL     1      -6.833  -5.126  -0.174  0.00  0.00    -0.269 OA
ATOM      4  H   UNL     1      -5.194  -2.511  -0.010  0.00  0.00    +0.173 HD
ENDROOT
BRANCH   1   8
ATOM      5  N   UNL     1      -2.790  -2.565  -0.111  0.00  0.00    -0.298 N 
ATOM      6  C   UNL     1      -3.021  -3.888  -0.217  0.00  0.00    +0.316 C 
ATOM      7  O   UNL     1      -2.088  -4.662  -0.322  0.00  0.00    -0.251 OA
ATOM      8  N   UNL     1      -4.285  -4.355  -0.208  0.00  0.00    -0.218 N 
ATOM      9  H   UNL     1      -3.534  -1.948  -0.027  0.00  0.00    +0.150 HD
ATOM     10  H   UNL     1      -4.451  -5.307  -0.285  0.00  0.00    +0.174 HD
BRANCH   5  11
ATOM     11  C   UNL     1      -1.416  -2.058  -0.121  0.00  0.00    +0.106 C 
BRANCH  11  12
ATOM     12  C   UNL     1      -1.433  -0.534   0.013  0.00  0.00    +0.022 C 
BRANCH  12  14
ATOM     13  C   UNL     1      -0.019   1.526   0.010  0.00  0.00    +0.007 C 
ATOM     14  C   UNL     1       0.002  -0.004   0.002  0.00  0.00    -0.016 C 
ATOM     15  C   UNL     1       0.742  -0.511   1.242  0.00  0.00    +0.007 C 
ENDBRANCH  12  14
ENDBRANCH  11  12
ENDBRANCH   5  11
ENDBRANCH   1   8
BRANCH   2  16
ATOM     16  C   UNL     1      -7.746  -3.000   0.049  0.00  0.00    +0.069 C 
ATOM     17  C   UNL     1      -9.012  -3.468   0.058  0.00  0.00    +0.013 C 
BRANCH  17  18
ATOM     18  C   UNL     1     -10.140  -2.533   0.185  0.00  0.00    -0.018 A 
ATOM     19  C   UNL     1     -11.453  -3.015   0.201  0.00  0.00    +0.057 A 
ATOM     20  C   UNL     1     -12.512  -2.134   0.322  0.00  0.00    +0.166 A 
ATOM     21  C   UNL     1     -12.273  -0.768   0.428  0.00  0.00    +0.204 A 
ATOM     22  C   UNL     1     -10.966  -0.284   0.411  0.00  0.00    +0.166 A 
ATOM     23  C   UNL     1      -9.903  -1.158   0.296  0.00  0.00    +0.057 A 
ATOM     24  O   UNL     1     -13.305   0.111   0.555  0.00  0.00    -0.482 OA
ATOM     25  C   UNL     1     -14.605  -0.366   0.194  0.00  0.00    +0.270 C 
ATOM     26  C   UNL     1     -14.803  -1.749   0.830  0.00  0.00    +0.270 C 
ATOM     27  O   UNL     1     -13.784  -2.621   0.331  0.00  0.00    -0.485 OA
BRANCH  22  28
ATOM     28  O   UNL     1     -10.736   1.053   0.513  0.00  0.00    -0.491 OA
ATOM     29  C   UNL     1      -9.373   1.480   0.488  0.00  0.00    +0.277 C 
ENDBRANCH  22  28
ENDBRANCH  17  18
ENDBRANCH   2  16
TORSDOF 7
