REMARK  Name = ZINC50328967
REMARK  3 active torsions:
REMARK  status: ('A' for Active; 'I' for Inactive)
REMARK    1  A    between atoms: C_8  and  C_11
REMARK    2  A    between atoms: C_11  and  C_13
REMARK    3  A    between atoms: C_11  and  O_19
REMARK                            x       y       z     vdW  Elec       q    Type
REMARK                         _______ _______ _______ _____ _____    ______ ____
ROOT
ATOM      1  C   UNL     1      -0.017   1.379   0.010  0.00  0.00    +0.000 A 
ATOM      2  C   UNL     1       1.174   2.082   0.002  0.00  0.00    +0.004 A 
ATOM      3  C   UNL     1       2.379   1.411  -0.009  0.00  0.00    +0.046 A 
ATOM      4  C   UNL     1       2.407   0.019  -0.013  0.00  0.00    +0.124 A 
ATOM      5  C   UNL     1       1.204  -0.676  -0.013  0.00  0.00    -0.002 A 
ATOM      6  C   UNL     1       0.002  -0.004   0.002  0.00  0.00    +0.007 A 
ATOM      7  C   UNL     1       1.545  -2.154  -0.043  0.00  0.00    +0.086 C 
ATOM      8  C   UNL     1       3.035  -2.130  -0.457  0.00  0.00    +0.210 C 
ATOM      9  O   UNL     1       3.469  -0.834  -0.012  0.00  0.00    -0.485 OA
ENDROOT
BRANCH   8  10
ATOM     10  C   UNL     1       3.813  -3.240   0.254  0.00  0.00    +0.181 C 
BRANCH  10  11
ATOM     11  C   UNL     1       5.278  -3.115  -0.073  0.00  0.00    -0.042 C 
ATOM     12  C   UNL     1       5.831  -4.066  -0.755  0.00  0.00    -0.025 C 
ATOM     13  C   UNL     1       7.279  -4.088  -1.147  0.00  0.00    +0.027 C 
ATOM     14  C   UNL     1       7.883  -2.688  -1.013  0.00  0.00    +0.004 C 
ATOM     15  C   UNL     1       7.518  -2.132   0.369  0.00  0.00    +0.005 C 
ATOM     16  C   UNL     1       6.005  -1.893   0.407  0.00  0.00    +0.033 C 
ENDBRANCH  10  11
BRANCH  10  17
ATOM     17  O   UNL     1       3.628  -3.120   1.666  0.00  0.00    -0.384 OA
ATOM     18  H   UNL     1       3.932  -2.279   2.033  0.00  0.00    +0.210 HD
ENDBRANCH  10  17
ENDBRANCH   8  10
TORSDOF 3
