REMARK  Name = ZINC64638255
REMARK  12 active torsions:
REMARK  status: ('A' for Active; 'I' for Inactive)
REMARK    1  A    between atoms: C_1  and  C_2
REMARK    2  A    between atoms: C_2  and  C_3
REMARK    3  A    between atoms: C_2  and  C_4
REMARK    4  A    between atoms: C_2  and  C_5
REMARK    5  A    between atoms: C_5  and  C_6
REMARK    6  A    between atoms: C_5  and  N_11
REMARK    7  A    between atoms: N_11  and  C_12
REMARK    8  A    between atoms: C_12  and  C_13
REMARK    9  A    between atoms: N_15  and  C_16
REMARK   10  A    between atoms: C_16  and  C_17
REMARK   11  A    between atoms: N_20  and  C_22
REMARK   12  A    between atoms: C_22  and  C_23
REMARK                            x       y       z     vdW  Elec       q    Type
REMARK                         _______ _______ _______ _____ _____    ______ ____
ROOT
ATOM      1  C   UNL     1      -2.065  -0.109  -3.690  0.00  0.00    +0.196 C 
ATOM      2  O   UNL     1      -1.491   0.600  -4.489  0.00  0.00    -0.278 OA
ATOM      3  N   UNL     1      -3.354  -0.446  -3.891  0.00  0.00    -0.317 N 
ATOM      4  H   UNL     1      -3.813  -1.013  -3.252  0.00  0.00    +0.149 HD
ENDROOT
BRANCH   1   5
ATOM      5  C   UNL     1      -1.336  -0.614  -2.471  0.00  0.00    +0.016 C 
BRANCH   5   6
ATOM      6  N   UNL     1       0.044  -0.111  -2.483  0.00  0.00    +0.390 N 
ATOM      7  H   UNL     1       0.035   0.896  -2.558  0.00  0.00    -0.084 HD
ATOM      8  H   UNL     1       0.539  -0.502  -3.270  0.00  0.00    -0.084 HD
BRANCH   6   9
ATOM      9  C   UNL     1       0.719  -0.502  -1.238  0.00  0.00    -0.028 C 
BRANCH   9  10
ATOM     10  C   UNL     1       0.862  -2.001  -1.194  0.00  0.00    -0.024 A 
ATOM     11  C   UNL     1       0.703  -2.844  -0.143  0.00  0.00    +0.009 A 
ATOM     12  C   UNL     1       0.886  -4.200  -0.338  0.00  0.00    +0.008 A 
ATOM     13  C   UNL     1       1.219  -4.647  -1.574  0.00  0.00    +0.045 A 
ATOM     14  S   UNL     1       1.276  -3.130  -2.513  0.00  0.00    -0.103 S 
ENDBRANCH   9  10
BRANCH   9  16
ATOM     15  C   UNL     1       2.889  -0.224  -2.444  0.00  0.00    +0.009 C 
ATOM     16  C   UNL     1       2.104   0.144  -1.183  0.00  0.00    -0.046 C 
ATOM     17  C   UNL     1       2.855  -0.362   0.050  0.00  0.00    +0.009 C 
ATOM     18  C   UNL     1       1.955   1.665  -1.101  0.00  0.00    +0.009 C 
ENDBRANCH   9  16
ENDBRANCH   6   9
ENDBRANCH   5   6
ENDBRANCH   1   5
BRANCH   3  19
ATOM     19  C   UNL     1      -4.063   0.045  -5.076  0.00  0.00    +0.105 C 
BRANCH  19  20
ATOM     20  C   UNL     1      -5.500  -0.480  -5.064  0.00  0.00    -0.012 C 
ATOM     21  C   UNL     1      -6.332   0.225  -3.961  0.00  0.00    -0.016 C 
ATOM     22  C   UNL     1      -7.769   0.105  -4.527  0.00  0.00    -0.078 C 
ATOM     23  N   UNL     1      -7.615   0.281  -5.987  0.00  0.00    +0.386 N 
ATOM     24  C   UNL     1      -6.236  -0.083  -6.361  0.00  0.00    -0.074 C 
ATOM     25  H   UNL     1      -7.791   1.243  -6.233  0.00  0.00    -0.081 HD
BRANCH  23  26
ATOM     26  C   UNL     1      -8.565  -0.590  -6.693  0.00  0.00    +0.036 C 
BRANCH  26  27
ATOM     27  C   UNL     1      -9.993  -0.120  -6.410  0.00  0.00    +0.376 C 
ATOM     28  F   UNL     1     -10.148   1.197  -6.855  0.00  0.00    -0.173 F 
ATOM     29  F   UNL     1     -10.898  -0.949  -7.082  0.00  0.00    -0.173 F 
ATOM     30  F   UNL     1     -10.240  -0.179  -5.034  0.00  0.00    -0.173 F 
ENDBRANCH  26  27
ENDBRANCH  23  26
ENDBRANCH  19  20
ENDBRANCH   3  19
TORSDOF 9
