REMARK  Name = ZINC37550495
REMARK  5 active torsions:
REMARK  status: ('A' for Active; 'I' for Inactive)
REMARK    1  A    between atoms: C_3  and  C_18
REMARK    2  A    between atoms: C_8  and  C_10
REMARK    3  A    between atoms: C_19  and  C_20
REMARK    4  A    between atoms: C_20  and  C_21
REMARK    5  A    between atoms: C_21  and  O_22
REMARK                            x       y       z     vdW  Elec       q    Type
REMARK                         _______ _______ _______ _____ _____    ______ ____
ROOT
ATOM      1  C   UNL     1      -0.017   1.381   0.004  0.00  0.00    +0.006 A 
ATOM      2  C   UNL     1       1.190   2.061  -0.004  0.00  0.00    +0.037 A 
ATOM      3  C   UNL     1       2.380   1.334  -0.017  0.00  0.00    +0.115 A 
ATOM      4  N   UNL     1       2.361   0.006  -0.022  0.00  0.00    -0.224 NA
ATOM      5  C   UNL     1       1.224  -0.669  -0.015  0.00  0.00    +0.127 A 
ATOM      6  C   UNL     1       0.002  -0.004  -0.002  0.00  0.00    +0.044 A 
ATOM      7  N   UNL     1       1.250  -2.062  -0.021  0.00  0.00    -0.265 N 
ATOM      8  C   UNL     1       2.424  -2.714  -0.137  0.00  0.00    +0.269 C 
ATOM      9  O   UNL     1       3.468  -2.090  -0.144  0.00  0.00    -0.268 OA
ATOM     10  H   UNL     1       0.423  -2.563   0.059  0.00  0.00    +0.157 HD
ENDROOT
BRANCH   8  11
ATOM     11  C   UNL     1       2.443  -4.184  -0.257  0.00  0.00    +0.142 A 
ATOM     12  C   UNL     1       3.649  -4.846  -0.370  0.00  0.00    +0.119 A 
ATOM     13  N   UNL     1       3.671  -6.191  -0.479  0.00  0.00    -0.326 N 
ATOM     14  H   UNL     1       4.516  -6.661  -0.559  0.00  0.00    +0.168 HD
ATOM     15  C   UNL     1       2.508  -6.875  -0.476  0.00  0.00    +0.267 A 
ATOM     16  O   UNL     1       2.510  -8.089  -0.574  0.00  0.00    -0.266 OA
ATOM     17  C   UNL     1       1.284  -6.168  -0.359  0.00  0.00    +0.181 A 
ATOM     18  N   UNL     1       1.288  -4.867  -0.248  0.00  0.00    -0.244 NA
ENDBRANCH   8  11
BRANCH   3  19
ATOM     19  C   UNL     1       3.633   2.026  -0.026  0.00  0.00    -0.046 C 
ATOM     20  C   UNL     1       4.661   2.594  -0.033  0.00  0.00    -0.093 C 
BRANCH  20  21
ATOM     21  C   UNL     1       5.950   3.305  -0.042  0.00  0.00    +0.117 C 
BRANCH  21  22
ATOM     22  C   UNL     1       7.093   2.288  -0.056  0.00  0.00    +0.168 C 
BRANCH  22  23
ATOM     23  O   UNL     1       8.345   2.979  -0.065  0.00  0.00    -0.394 OA
ATOM     24  H   UNL     1       9.116   2.396  -0.074  0.00  0.00    +0.209 HD
ENDBRANCH  22  23
ENDBRANCH  21  22
ENDBRANCH  20  21
ENDBRANCH   3  19
TORSDOF 5
