REMARK  Name = ZINC39468695
REMARK  8 active torsions:
REMARK  status: ('A' for Active; 'I' for Inactive)
REMARK    1  A    between atoms: C_1  and  C_2
REMARK    2  A    between atoms: C_2  and  C_3
REMARK    3  A    between atoms: C_2  and  S_4
REMARK    4  A    between atoms: S_4  and  C_7
REMARK    5  A    between atoms: P_16  and  S_32
REMARK    6  A    between atoms: C_24  and  C_25
REMARK    7  A    between atoms: C_25  and  C_26
REMARK    8  A    between atoms: S_32  and  C_33
REMARK                            x       y       z     vdW  Elec       q    Type
REMARK                         _______ _______ _______ _____ _____    ______ ____
ROOT
ATOM      1  C   UNL     1      -1.546  -2.383  -0.005  0.00  0.00    +0.088 C 
ATOM      2  C   UNL     1      -2.052  -3.104   0.996  0.00  0.00    +0.004 C 
ATOM      3  C   UNL     1      -1.890  -4.598   0.965  0.00  0.00    +0.017 C 
ATOM      4  C   UNL     1      -2.948  -5.297   1.813  0.00  0.00    -0.003 C 
ATOM      5  C   UNL     1      -2.760  -6.817   1.715  0.00  0.00    -0.020 C 
ATOM      6  C   UNL     1      -3.859  -7.468   2.564  0.00  0.00    +0.157 C 
ATOM      7  O   UNL     1      -3.671  -8.895   2.575  0.00  0.00    -0.312 OA
ATOM      8  P   UNL     1      -3.468  -9.643   1.144  0.00  0.00    +0.314 P 
ATOM      9  O   UNL     1      -4.777  -9.861   0.489  0.00  0.00    -0.262 OA
ATOM     10  N   UNL     1      -2.541  -8.616   0.244  0.00  0.00    -0.283 NA
ATOM     11  N   UNL     1      -2.841  -7.271   0.327  0.00  0.00    +0.398 N 
ATOM     12  C   UNL     1      -1.846  -6.591  -0.521  0.00  0.00    -0.046 C 
ATOM     13  C   UNL     1      -2.050  -5.083  -0.482  0.00  0.00    +0.005 C 
ATOM     14  C   UNL     1      -1.068  -4.348  -1.351  0.00  0.00    -0.019 C 
ATOM     15  C   UNL     1      -0.840  -3.058  -1.108  0.00  0.00    -0.022 C 
ATOM     16  H   UNL     1      -1.827  -8.948  -0.322  0.00  0.00    +0.112 HD
ATOM     17  H   UNL     1      -3.768  -7.095  -0.031  0.00  0.00    -0.055 HD
ENDROOT
BRANCH   1  18
ATOM     18  S   UNL     1      -1.728  -0.630  -0.013  0.00  0.00    -0.001 S 
ATOM     19  O   UNL     1      -2.514  -0.342   1.135  0.00  0.00    -0.169 OA
ATOM     20  O   UNL     1      -2.206  -0.321  -1.315  0.00  0.00    -0.169 OA
BRANCH  18  22
ATOM     21  C   UNL     1      -0.085   1.543   0.226  0.00  0.00    +0.032 C 
ATOM     22  C   UNL     1      -0.046   0.014   0.204  0.00  0.00    +0.130 C 
ATOM     23  C   UNL     1       0.530  -0.501   1.524  0.00  0.00    +0.032 C 
ENDBRANCH  18  22
ENDBRANCH   1  18
BRANCH   8  24
ATOM     24  S   UNL     1      -2.469 -11.493   1.417  0.00  0.00    -0.059 S 
ATOM     25  C   UNL     1      -3.568 -12.428   2.516  0.00  0.00    +0.096 C 
ENDBRANCH   8  24
BRANCH  15  26
ATOM     26  C   UNL     1       0.143  -2.294  -1.957  0.00  0.00    +0.071 C 
BRANCH  26  27
ATOM     27  C   UNL     1       0.618  -3.170  -3.088  0.00  0.00    -0.043 A 
ATOM     28  C   UNL     1       1.787  -3.896  -2.956  0.00  0.00    +0.004 A 
ATOM     29  C   UNL     1       2.222  -4.699  -3.994  0.00  0.00    +0.000 A 
ATOM     30  C   UNL     1       1.488  -4.777  -5.162  0.00  0.00    +0.000 A 
ATOM     31  C   UNL     1       0.318  -4.052  -5.293  0.00  0.00    +0.000 A 
ATOM     32  C   UNL     1      -0.119  -3.252  -4.255  0.00  0.00    +0.004 A 
ENDBRANCH  26  27
ENDBRANCH  15  26
TORSDOF 5
