REMARK  Name = ZINC39457651
REMARK  4 active torsions:
REMARK  status: ('A' for Active; 'I' for Inactive)
REMARK    1  A    between atoms: C_1  and  C_2
REMARK    2  A    between atoms: C_10  and  S_18
REMARK    3  A    between atoms: S_18  and  O_21
REMARK    4  A    between atoms: O_21  and  C_22
REMARK                            x       y       z     vdW  Elec       q    Type
REMARK                         _______ _______ _______ _____ _____    ______ ____
ROOT
ATOM      1  C   UNL     1      -1.023   0.877   0.281  0.00  0.00    +0.067 C 
ATOM      2  C   UNL     1      -0.695  -0.580   0.081  0.00  0.00    +0.064 A 
ATOM      3  C   UNL     1      -0.192  -1.129  -1.052  0.00  0.00    +0.045 A 
ATOM      4  C   UNL     1      -0.028  -2.497  -0.825  0.00  0.00    -0.003 A 
ATOM      5  C   UNL     1      -0.432  -2.742   0.464  0.00  0.00    +0.105 A 
ATOM      6  N   UNL     1      -0.848  -1.565   1.012  0.00  0.00    -0.180 N 
ATOM      7  F   UNL     1      -1.314  -1.409   2.215  0.00  0.00    -0.093 F 
ATOM      8  C   UNL     1      -0.357  -4.082   1.075  0.00  0.00    +0.103 A 
ATOM      9  C   UNL     1       0.886  -4.835   0.850  0.00  0.00    +0.074 A 
ATOM     10  C   UNL     1       0.998  -6.115   1.366  0.00  0.00    +0.150 A 
ATOM     11  C   UNL     1      -0.088  -6.622   2.106  0.00  0.00    +0.029 A 
ATOM     12  C   UNL     1      -0.035  -7.917   2.652  0.00  0.00    +0.012 A 
ATOM     13  C   UNL     1      -1.085  -8.386   3.379  0.00  0.00    +0.001 A 
ATOM     14  C   UNL     1      -2.217  -7.601   3.588  0.00  0.00    +0.002 A 
ATOM     15  C   UNL     1      -2.306  -6.346   3.068  0.00  0.00    +0.028 A 
ATOM     16  C   UNL     1      -1.244  -5.825   2.306  0.00  0.00    +0.074 A 
ATOM     17  N   UNL     1      -1.336  -4.596   1.782  0.00  0.00    -0.244 NA
ATOM     18  C   UNL     1       1.966  -4.188   0.106  0.00  0.00    +0.168 C 
ATOM     19  O   UNL     1       2.943  -3.788   0.703  0.00  0.00    -0.292 OA
ATOM     20  C   UNL     1       1.887  -4.008  -1.392  0.00  0.00    +0.084 C 
ATOM     21  C   UNL     1       0.474  -3.547  -1.775  0.00  0.00    +0.046 C 
ATOM     22 BR   UNL     1       0.214  -0.208  -2.652  0.00  0.00    -0.048 Br
ENDROOT
BRANCH  10  23
ATOM     23  S   UNL     1       2.451  -7.077   1.105  0.00  0.00    +0.152 S 
ATOM     24  O   UNL     1       2.019  -8.413   0.885  0.00  0.00    -0.131 OA
ATOM     25  O   UNL     1       3.244  -6.368   0.163  0.00  0.00    -0.131 OA
BRANCH  23  26
ATOM     26  O   UNL     1       3.229  -7.082   2.413  0.00  0.00    -0.342 OA
BRANCH  26  27
ATOM     27  C   UNL     1       2.692  -7.880   3.373  0.00  0.00    +0.157 A 
ATOM     28  C   UNL     1       1.895  -7.331   4.367  0.00  0.00    +0.048 A 
ATOM     29  C   UNL     1       1.349  -8.144   5.341  0.00  0.00    +0.004 A 
ATOM     30  C   UNL     1       1.598  -9.504   5.327  0.00  0.00    +0.000 A 
ATOM     31  C   UNL     1       2.392 -10.054   4.337  0.00  0.00    +0.004 A 
ATOM     32  C   UNL     1       2.935  -9.246   3.357  0.00  0.00    +0.048 A 
ENDBRANCH  26  27
ENDBRANCH  23  26
ENDBRANCH  10  23
TORSDOF 3
