REMARK  Name = ZINC00901588
REMARK  11 active torsions:
REMARK  status: ('A' for Active; 'I' for Inactive)
REMARK    1  A    between atoms: C_1  and  O_2
REMARK    2  A    between atoms: O_2  and  C_3
REMARK    3  A    between atoms: C_5  and  N_11
REMARK    4  A    between atoms: C_7  and  O_9
REMARK    5  A    between atoms: O_9  and  C_10
REMARK    6  A    between atoms: N_11  and  C_12
REMARK    7  A    between atoms: C_12  and  C_14
REMARK    8  A    between atoms: C_12  and  C_19
REMARK    9  A    between atoms: N_21  and  C_22
REMARK   10  A    between atoms: C_27  and  C_29
REMARK   11  A    between atoms: C_29  and  N_30
REMARK                            x       y       z     vdW  Elec       q    Type
REMARK                         _______ _______ _______ _____ _____    ______ ____
ROOT
ATOM      1  N   UNL     1      -5.728   2.804  -1.425  0.00  0.00    -0.253 N 
ATOM      2  C   UNL     1      -5.088   3.744  -0.701  0.00  0.00    +0.242 C 
ATOM      3  O   UNL     1      -4.708   4.765  -1.233  0.00  0.00    -0.273 OA
ENDROOT
BRANCH   1   6
ATOM      4  C   UNL     1      -8.559   0.525  -0.839  0.00  0.00    +0.125 A 
ATOM      5  C   UNL     1      -7.705   1.420  -1.465  0.00  0.00    +0.069 A 
ATOM      6  C   UNL     1      -6.590   1.901  -0.793  0.00  0.00    +0.044 A 
ATOM      7  C   UNL     1      -6.327   1.481   0.504  0.00  0.00    +0.069 A 
ATOM      8  C   UNL     1      -7.185   0.591   1.131  0.00  0.00    +0.125 A 
ATOM      9  C   UNL     1      -8.299   0.111   0.459  0.00  0.00    +0.091 A 
BRANCH   4  11
ATOM     10  C   UNL     1     -10.487  -0.865  -0.790  0.00  0.00    +0.277 C 
ATOM     11  O   UNL     1      -9.651   0.054  -1.496  0.00  0.00    -0.495 OA
ENDBRANCH   4  11
BRANCH   8  12
ATOM     12  O   UNL     1      -6.931   0.185   2.403  0.00  0.00    -0.495 OA
ATOM     13  C   UNL     1      -7.854  -0.738   2.986  0.00  0.00    +0.277 C 
ENDBRANCH   8  12
ENDBRANCH   1   6
BRANCH   1  14
ATOM     14  C   UNL     1      -5.520   2.728  -2.873  0.00  0.00    +0.204 C 
BRANCH  14  15
ATOM     15  C   UNL     1      -6.773   3.172  -3.584  0.00  0.00    +0.019 A 
ATOM     16  C   UNL     1      -6.972   3.388  -4.907  0.00  0.00    +0.013 A 
ATOM     17  C   UNL     1      -8.221   3.794  -5.339  0.00  0.00    +0.008 A 
ATOM     18  C   UNL     1      -9.206   3.975  -4.426  0.00  0.00    +0.045 A 
ATOM     19  S   UNL     1      -8.376   3.559  -2.901  0.00  0.00    -0.099 S 
ENDBRANCH  14  15
BRANCH  14  20
ATOM     20  C   UNL     1      -5.200   1.307  -3.261  0.00  0.00    +0.239 C 
ATOM     21  O   UNL     1      -5.150   0.443  -2.411  0.00  0.00    -0.273 OA
ATOM     22  N   UNL     1      -4.969   0.997  -4.552  0.00  0.00    -0.311 N 
ATOM     23  H   UNL     1      -5.009   1.688  -5.231  0.00  0.00    +0.149 HD
BRANCH  22  24
ATOM     24  C   UNL     1      -4.658  -0.384  -4.928  0.00  0.00    +0.073 C 
ATOM     25  C   UNL     1      -3.139  -0.631  -4.824  0.00  0.00    +0.022 C 
ATOM     26  C   UNL     1      -2.822  -1.565  -6.018  0.00  0.00    +0.002 C 
ATOM     27  C   UNL     1      -3.744  -1.016  -7.135  0.00  0.00    +0.002 C 
ATOM     28  C   UNL     1      -5.043  -0.629  -6.398  0.00  0.00    +0.022 C 
ENDBRANCH  22  24
ENDBRANCH  14  20
ENDBRANCH   1  14
BRANCH   2  29
ATOM     29  C   UNL     1      -4.845   3.526   0.770  0.00  0.00    +0.242 C 
BRANCH  29  30
ATOM     30  N   UNL     1      -4.144   4.686   1.327  0.00  0.00    -0.235 N 
ATOM     31  C   UNL     1      -2.783   4.863   1.408  0.00  0.00    +0.090 A 
ATOM     32  C   UNL     1      -1.685   4.098   1.031  0.00  0.00    +0.029 A 
ATOM     33  C   UNL     1      -0.421   4.566   1.259  0.00  0.00    +0.002 A 
ATOM     34  C   UNL     1      -0.223   5.805   1.855  0.00  0.00    +0.002 A 
ATOM     35  C   UNL     1      -1.283   6.577   2.229  0.00  0.00    +0.032 A 
ATOM     36  C   UNL     1      -2.589   6.118   2.012  0.00  0.00    +0.113 A 
ATOM     37  N   UNL     1      -3.805   6.641   2.267  0.00  0.00    -0.129 NA
ATOM     38  N   UNL     1      -4.729   5.834   1.881  0.00  0.00    -0.064 NA
ENDBRANCH  29  30
ENDBRANCH   2  29
TORSDOF 9
