REMARK  Name = ZINC13473807
REMARK  8 active torsions:
REMARK  status: ('A' for Active; 'I' for Inactive)
REMARK    1  A    between atoms: C_1  and  O_2
REMARK    2  A    between atoms: O_2  and  C_3
REMARK    3  A    between atoms: C_5  and  C_12
REMARK    4  A    between atoms: C_7  and  O_10
REMARK    5  A    between atoms: C_8  and  O_9
REMARK    6  A    between atoms: O_10  and  C_11
REMARK    7  A    between atoms: C_20  and  N_30
REMARK    8  A    between atoms: N_30  and  C_31
REMARK                            x       y       z     vdW  Elec       q    Type
REMARK                         _______ _______ _______ _____ _____    ______ ____
ROOT
ATOM      1  C   UNL     1      -1.680   3.902   0.118  0.00  0.00    +0.064 C 
ATOM      2  C   UNL     1      -0.501   2.949   0.191  0.00  0.00    -0.031 A 
ATOM      3  C   UNL     1       0.765   3.508   0.290  0.00  0.00    +0.054 A 
ATOM      4  C   UNL     1       1.885   2.702   0.379  0.00  0.00    +0.167 A 
ATOM      5  C   UNL     1       1.737   1.316   0.371  0.00  0.00    +0.167 A 
ATOM      6  C   UNL     1       0.474   0.764   0.267  0.00  0.00    +0.055 A 
ATOM      7  C   UNL     1      -0.647   1.578   0.165  0.00  0.00    -0.019 A 
ATOM      8  C   UNL     1      -1.993   0.894   0.030  0.00  0.00    +0.109 C 
ATOM      9  C   UNL     1      -2.979   1.911  -0.515  0.00  0.00    +0.066 C 
ATOM     10  C   UNL     1      -2.928   3.120   0.473  0.00  0.00    +0.118 C 
ATOM     11  C   UNL     1      -4.242   3.790   0.203  0.00  0.00    +0.312 C 
ATOM     12  O   UNL     1      -4.480   4.966   0.346  0.00  0.00    -0.250 OA
ATOM     13  O   UNL     1      -5.117   2.851  -0.227  0.00  0.00    -0.464 OA
ATOM     14  C   UNL     1      -4.461   1.541  -0.343  0.00  0.00    +0.238 C 
ATOM     15  O   UNL     1       2.973   0.746   0.477  0.00  0.00    -0.453 OA
ATOM     16  C   UNL     1       3.839   1.790   0.957  0.00  0.00    +0.466 C 
ATOM     17  O   UNL     1       3.213   2.998   0.485  0.00  0.00    -0.453 OA
ENDROOT
BRANCH   1  20
ATOM     18  C   UNL     1      -2.424   6.240  -2.756  0.00  0.00    +0.165 A 
ATOM     19  C   UNL     1      -2.308   5.728  -1.473  0.00  0.00    +0.054 A 
ATOM     20  C   UNL     1      -1.804   4.455  -1.278  0.00  0.00    -0.032 A 
ATOM     21  C   UNL     1      -1.408   3.691  -2.360  0.00  0.00    +0.054 A 
ATOM     22  C   UNL     1      -1.526   4.195  -3.647  0.00  0.00    +0.165 A 
ATOM     23  C   UNL     1      -2.033   5.473  -3.847  0.00  0.00    +0.201 A 
BRANCH  18  25
ATOM     24  C   UNL     1      -3.304   8.223  -1.781  0.00  0.00    +0.277 C 
ATOM     25  O   UNL     1      -2.921   7.492  -2.947  0.00  0.00    -0.491 OA
ENDBRANCH  18  25
BRANCH  23  26
ATOM     26  O   UNL     1      -2.145   5.973  -5.108  0.00  0.00    -0.501 OA
ATOM     27  H   UNL     1      -1.362   6.450  -5.414  0.00  0.00    +0.292 HD
ENDBRANCH  23  26
BRANCH  22  28
ATOM     28  O   UNL     1      -1.142   3.440  -4.711  0.00  0.00    -0.491 OA
ATOM     29  C   UNL     1      -0.630   2.135  -4.430  0.00  0.00    +0.277 C 
ENDBRANCH  22  28
ENDBRANCH   1  20
BRANCH   8  30
ATOM     30  N   UNL     1      -2.446   0.417   1.340  0.00  0.00    -0.323 N 
ATOM     31  H   UNL     1      -2.359   0.987   2.120  0.00  0.00    +0.148 HD
BRANCH  30  32
ATOM     32  C   UNL     1      -2.999  -0.852   1.464  0.00  0.00    +0.097 A 
ATOM     33  C   UNL     1      -3.225  -1.620   0.326  0.00  0.00    +0.041 A 
ATOM     34  C   UNL     1      -3.776  -2.881   0.464  0.00  0.00    +0.005 A 
ATOM     35  C   UNL     1      -4.084  -3.333   1.741  0.00  0.00    +0.018 A 
ATOM     36  C   UNL     1      -3.834  -2.518   2.826  0.00  0.00    +0.084 A 
ATOM     37  N   UNL     1      -3.288  -1.276   2.728  0.00  0.00    -0.350 N 
ATOM     38  H   UNL     1      -3.104  -0.695   3.554  0.00  0.00    +0.166 HD
ENDBRANCH  30  32
ENDBRANCH   8  30
TORSDOF 6
