REMARK  Name = ZINC46560684
REMARK  9 active torsions:
REMARK  status: ('A' for Active; 'I' for Inactive)
REMARK    1  A    between atoms: C_1  and  C_2
REMARK    2  A    between atoms: C_5  and  N_9
REMARK    3  A    between atoms: C_6  and  C_8
REMARK    4  A    between atoms: C_13  and  C_15
REMARK    5  A    between atoms: C_15  and  C_17
REMARK    6  A    between atoms: C_15  and  N_18
REMARK    7  A    between atoms: C_24  and  C_26
REMARK    8  A    between atoms: C_26  and  C_27
REMARK    9  A    between atoms: C_26  and  C_28
REMARK                            x       y       z     vdW  Elec       q    Type
REMARK                         _______ _______ _______ _____ _____    ______ ____
ROOT
ATOM      1  N   UNL     1      -1.480  -5.020   1.043  0.00  0.00    -0.269 N 
ATOM      2  C   UNL     1      -1.375  -5.519  -0.204  0.00  0.00    +0.310 C 
ATOM      3  O   UNL     1      -1.348  -4.767  -1.159  0.00  0.00    -0.252 OA
ATOM      4  N   UNL     1      -1.299  -6.851  -0.394  0.00  0.00    -0.239 N 
ATOM      5  C   UNL     1      -1.194  -7.350  -1.641  0.00  0.00    +0.237 C 
ATOM      6  O   UNL     1      -1.167  -6.600  -2.593  0.00  0.00    -0.274 OA
ATOM      7  H   UNL     1      -1.433  -5.614   1.808  0.00  0.00    +0.156 HD
ATOM      8  H   UNL     1      -1.321  -7.451   0.368  0.00  0.00    +0.159 HD
ENDROOT
BRANCH   1  13
ATOM      9  C   UNL     1      -2.205   0.553   1.817  0.00  0.00    +0.044 C 
ATOM     10  C   UNL     1      -2.013  -0.927   1.611  0.00  0.00    -0.050 A 
ATOM     11  C   UNL     1      -1.247  -1.383   0.553  0.00  0.00    +0.005 A 
ATOM     12  C   UNL     1      -1.069  -2.739   0.362  0.00  0.00    +0.024 A 
ATOM     13  C   UNL     1      -1.659  -3.645   1.234  0.00  0.00    +0.038 A 
ATOM     14  C   UNL     1      -2.426  -3.184   2.296  0.00  0.00    -0.029 A 
ATOM     15  C   UNL     1      -2.596  -1.826   2.484  0.00  0.00    +0.008 A 
ATOM     16  C   UNL     1      -3.067  -4.164   3.244  0.00  0.00    +0.045 C 
ENDBRANCH   1  13
BRANCH   5  17
ATOM     17  C   UNL     1      -1.109  -8.839  -1.852  0.00  0.00    +0.140 C 
ATOM     18  C   UNL     1      -2.368  -9.506  -1.293  0.00  0.00    +0.034 C 
BRANCH  17  19
ATOM     19  N   UNL     1      -1.001  -9.125  -3.289  0.00  0.00    -0.289 NA
ATOM     20  C   UNL     1      -2.177  -8.626  -4.015  0.00  0.00    +0.104 C 
ATOM     21  C   UNL     1      -1.946  -8.779  -5.522  0.00  0.00    +0.123 C 
ATOM     22  N   UNL     1      -1.591 -10.179  -5.801  0.00  0.00    -0.299 N 
ATOM     23  C   UNL     1      -0.510 -10.792  -5.014  0.00  0.00    +0.123 C 
ATOM     24  C   UNL     1      -0.798 -10.560  -3.527  0.00  0.00    +0.104 C 
ATOM     25  C   UNL     1      -2.239 -10.880  -6.752  0.00  0.00    +0.218 C 
ATOM     26  O   UNL     1      -1.977 -12.052  -6.925  0.00  0.00    -0.275 OA
BRANCH  25  27
ATOM     27  C   UNL     1      -3.289 -10.210  -7.600  0.00  0.00    +0.069 C 
ATOM     28  C   UNL     1      -2.624  -9.174  -8.509  0.00  0.00    +0.017 C 
ATOM     29  C   UNL     1      -4.000 -11.259  -8.456  0.00  0.00    +0.017 C 
ENDBRANCH  25  27
ENDBRANCH  17  19
ENDBRANCH   5  17
TORSDOF 4
