REMARK  Name = ZINC00094238
REMARK  4 active torsions:
REMARK  status: ('A' for Active; 'I' for Inactive)
REMARK    1  A    between atoms: C_6  and  O_7
REMARK    2  A    between atoms: O_7  and  C_8
REMARK    3  A    between atoms: C_8  and  C_9
REMARK    4  A    between atoms: N_11  and  C_12
REMARK                            x       y       z     vdW  Elec       q    Type
REMARK                         _______ _______ _______ _____ _____    ______ ____
ROOT
ATOM      1  C   UNL     1      -2.376  -0.103   0.127  0.00  0.00    +0.255 C 
ATOM      2  O   UNL     1      -2.413   1.109   0.134  0.00  0.00    -0.272 OA
ATOM      3  N   UNL     1      -1.193  -0.740   0.010  0.00  0.00    -0.277 N 
ATOM      4  H   UNL     1      -1.169  -1.705  -0.078  0.00  0.00    +0.155 HD
ENDROOT
BRANCH   3   5
ATOM      5  C   UNL     1       0.003  -0.005   0.015  0.00  0.00    +0.115 A 
ATOM      6  C   UNL     1       0.069   1.242   0.620  0.00  0.00    +0.116 A 
ATOM      7  N   UNL     1       1.215   1.906   0.606  0.00  0.00    -0.313 N 
ATOM      8  C   UNL     1       2.289   1.398   0.025  0.00  0.00    +0.327 A 
ATOM      9  N   UNL     1       2.269   0.213  -0.563  0.00  0.00    -0.274 N 
ATOM     10  C   UNL     1       1.158  -0.512  -0.590  0.00  0.00    +0.275 A 
ATOM     11  O   UNL     1       1.143  -1.726  -1.193  0.00  0.00    -0.266 OA
ATOM     12  O   UNL     1       3.441   2.111   0.032  0.00  0.00    -0.247 OA
ATOM     13  H   UNL     1       3.100  -0.140  -0.992  0.00  0.00    +0.173 HD
ATOM     14  H   UNL     1       1.269   2.805   1.041  0.00  0.00    +0.170 HD
ENDBRANCH   3   5
BRANCH   1  15
ATOM     15  C   UNL     1      -3.650  -0.897   0.249  0.00  0.00    +0.324 C 
BRANCH  15  16
ATOM     16  O   UNL     1      -4.760  -0.004   0.359  0.00  0.00    -0.483 OA
BRANCH  16  22
ATOM     17  C   UNL     1      -6.133  -1.943   0.482  0.00  0.00    +0.047 A 
ATOM     18  C   UNL     1      -7.386  -2.509   0.609  0.00  0.00    +0.019 A 
ATOM     19  C   UNL     1      -8.503  -1.701   0.720  0.00  0.00    +0.018 A 
ATOM     20  C   UNL     1      -8.367  -0.324   0.710  0.00  0.00    +0.019 A 
ATOM     21  C   UNL     1      -7.114   0.246   0.589  0.00  0.00    +0.047 A 
ATOM     22  C   UNL     1      -5.993  -0.563   0.478  0.00  0.00    +0.121 A 
ATOM     23 BR   UNL     1     -10.219  -2.478   0.886  0.00  0.00    -0.050 Br
ENDBRANCH  16  22
ENDBRANCH  15  16
ENDBRANCH   1  15
TORSDOF 4
