REMARK  Name = ZINC20413439
REMARK  7 active torsions:
REMARK  status: ('A' for Active; 'I' for Inactive)
REMARK    1  A    between atoms: C_1  and  C_2
REMARK    2  A    between atoms: C_3  and  C_24
REMARK    3  A    between atoms: C_4  and  C_14
REMARK    4  A    between atoms: C_9  and  S_11
REMARK    5  A    between atoms: S_11  and  C_12
REMARK    6  A    between atoms: C_19  and  O_20
REMARK    7  A    between atoms: O_20  and  C_21
REMARK                            x       y       z     vdW  Elec       q    Type
REMARK                         _______ _______ _______ _____ _____    ______ ____
ROOT
ATOM      1  C   UNL     1      -2.530  -1.984  -2.479  0.00  0.00    +0.061 C 
ATOM      2  C   UNL     1      -2.452  -1.215  -1.185  0.00  0.00    +0.018 C 
ATOM      3  C   UNL     1      -2.587   0.118  -1.214  0.00  0.00    +0.060 C 
ATOM      4  C   UNL     1      -2.513   0.979   0.019  0.00  0.00    +0.181 C 
ATOM      5  N   UNL     1      -2.574   0.131   1.208  0.00  0.00    -0.220 N 
ATOM      6  C   UNL     1      -2.440  -1.217   1.175  0.00  0.00    +0.219 A 
ATOM      7  N   UNL     1      -2.536  -1.665   2.397  0.00  0.00    -0.187 NA
ATOM      8  C   UNL     1      -2.734  -0.637   3.236  0.00  0.00    +0.210 A 
ATOM      9  N   UNL     1      -2.765   0.481   2.543  0.00  0.00    -0.141 NA
ATOM     10  N   UNL     1      -2.245  -1.905  -0.015  0.00  0.00    -0.287 N 
ATOM     11  H   UNL     1      -1.937  -2.960  -0.046  0.00  0.00    +0.155 HD
ENDROOT
BRANCH   4  12
ATOM     12  C   UNL     1      -1.219   1.750   0.017  0.00  0.00    +0.023 A 
ATOM     13  C   UNL     1      -0.013   1.076   0.008  0.00  0.00    +0.009 A 
ATOM     14  C   UNL     1       1.175   1.783   0.000  0.00  0.00    +0.001 A 
ATOM     15  C   UNL     1       1.160   3.166   0.007  0.00  0.00    +0.004 A 
ATOM     16  C   UNL     1      -0.043   3.844   0.023  0.00  0.00    +0.046 A 
ATOM     17  C   UNL     1      -1.237   3.137   0.031  0.00  0.00    +0.132 A 
BRANCH  17  18
ATOM     18  O   UNL     1      -2.422   3.802   0.047  0.00  0.00    -0.434 OA
BRANCH  18  19
ATOM     19  C   UNL     1      -2.364   5.230   0.054  0.00  0.00    +0.541 C 
ATOM     20  F   UNL     1      -1.675   5.663   1.192  0.00  0.00    -0.166 F 
ATOM     21  F   UNL     1      -1.698   5.676  -1.092  0.00  0.00    -0.166 F 
ENDBRANCH  18  19
ENDBRANCH  17  18
ENDBRANCH   4  12
BRANCH   3  22
ATOM     22  C   UNL     1      -2.809   0.747  -2.462  0.00  0.00    +0.241 C 
ATOM     23  O   UNL     1      -2.874   0.078  -3.478  0.00  0.00    -0.271 OA
ATOM     24  N   UNL     1      -2.949   2.086  -2.527  0.00  0.00    -0.325 N 
ATOM     25  H   UNL     1      -3.122   2.574  -3.498  0.00  0.00    +0.145 HD
ATOM     26  H   UNL     1      -2.891   2.690  -1.610  0.00  0.00    +0.145 HD
ENDBRANCH   3  22
BRANCH   8  27
ATOM     27  S   UNL     1      -2.924  -0.764   4.983  0.00  0.00    -0.088 S 
ATOM     28  C   UNL     1      -2.785  -2.543   5.311  0.00  0.00    +0.093 C 
ENDBRANCH   8  27
TORSDOF 5
