REMARK  Name = ZINC08766296
REMARK  8 active torsions:
REMARK  status: ('A' for Active; 'I' for Inactive)
REMARK    1  A    between atoms: C_1  and  C_2
REMARK    2  A    between atoms: C_5  and  C_8
REMARK    3  A    between atoms: N_12  and  C_16
REMARK    4  A    between atoms: C_16  and  C_17
REMARK    5  A    between atoms: C_17  and  C_18
REMARK    6  A    between atoms: N_20  and  N_21
REMARK    7  A    between atoms: N_21  and  C_22
REMARK    8  A    between atoms: C_25  and  N_28
REMARK                            x       y       z     vdW  Elec       q    Type
REMARK                         _______ _______ _______ _____ _____    ______ ____
ROOT
ATOM      1  C   UNL     1       4.128   7.523   0.430  0.00  0.00    +0.124 C 
ENDROOT
BRANCH   1   6
ATOM      2  C   UNL     1       1.177   3.557   0.009  0.00  0.00    +0.028 C 
ATOM      3  C   UNL     1       2.343   4.243   0.104  0.00  0.00    +0.077 C 
ATOM      4  C   UNL     1       2.573   5.698   0.230  0.00  0.00    +0.258 C 
ATOM      5  O   UNL     1       1.651   6.491   0.263  0.00  0.00    -0.269 OA
ATOM      6  N   UNL     1       3.833   6.093   0.305  0.00  0.00    -0.255 N 
ATOM      7  C   UNL     1       4.852   5.211   0.267  0.00  0.00    +0.121 C 
ATOM      8  S   UNL     1       6.533   5.525   0.350  0.00  0.00    -0.027 S 
ATOM      9  S   UNL     1       4.024   3.636   0.120  0.00  0.00    -0.061 S 
BRANCH   2  14
ATOM     10  C   UNL     1       1.239  -2.064  -1.190  0.00  0.00    +0.044 C 
ATOM     11  C   UNL     1       1.223  -0.590  -0.876  0.00  0.00    -0.050 A 
ATOM     12  C   UNL     1       0.037   0.022  -0.508  0.00  0.00    +0.004 A 
ATOM     13  C   UNL     1       0.014   1.370  -0.218  0.00  0.00    +0.008 A 
ATOM     14  C   UNL     1       1.193   2.119  -0.297  0.00  0.00    -0.024 A 
ATOM     15  C   UNL     1       2.388   1.492  -0.669  0.00  0.00    +0.008 A 
ATOM     16  C   UNL     1       2.394   0.144  -0.956  0.00  0.00    +0.004 A 
ENDBRANCH   2  14
ENDBRANCH   1   6
BRANCH   1  17
ATOM     17  C   UNL     1       4.182   7.904   1.911  0.00  0.00    +0.116 C 
BRANCH  17  18
ATOM     18  C   UNL     1       4.486   9.375   2.040  0.00  0.00    +0.231 C 
ATOM     19  O   UNL     1       4.643  10.051   1.045  0.00  0.00    -0.274 OA
ATOM     20  N   UNL     1       4.582   9.938   3.260  0.00  0.00    -0.236 N 
ATOM     21  H   UNL     1       4.456   9.398   4.056  0.00  0.00    +0.173 HD
BRANCH  20  22
ATOM     22  N   UNL     1       4.864  11.306   3.380  0.00  0.00    -0.264 N 
ATOM     23  H   UNL     1       4.990  11.846   2.585  0.00  0.00    +0.170 HD
BRANCH  22  24
ATOM     24  C   UNL     1       4.964  11.890   4.645  0.00  0.00    +0.045 A 
ATOM     25  C   UNL     1       4.778  11.118   5.785  0.00  0.00    +0.026 A 
ATOM     26  C   UNL     1       4.883  11.697   7.034  0.00  0.00    +0.034 A 
ATOM     27  C   UNL     1       5.162  13.047   7.151  0.00  0.00    +0.126 A 
ATOM     28  C   UNL     1       5.341  13.819   6.018  0.00  0.00    +0.034 A 
ATOM     29  C   UNL     1       5.244  13.245   4.766  0.00  0.00    +0.026 A 
BRANCH  27  30
ATOM     30  N   UNL     1       5.267  13.666   8.491  0.00  0.00    +0.056 N 
ATOM     31  O   UNL     1       5.512  14.855   8.595  0.00  0.00    -0.126 OA
ATOM     32  O   UNL     1       5.109  12.987   9.489  0.00  0.00    -0.126 OA
ENDBRANCH  27  30
ENDBRANCH  22  24
ENDBRANCH  20  22
ENDBRANCH  17  18
ENDBRANCH   1  17
TORSDOF 7
