REMARK  Name = ZINC10336994
REMARK  4 active torsions:
REMARK  status: ('A' for Active; 'I' for Inactive)
REMARK    1  A    between atoms: C_1  and  C_2
REMARK    2  A    between atoms: C_2  and  C_3
REMARK    3  A    between atoms: C_6  and  C_9
REMARK    4  A    between atoms: C_26  and  C_28
REMARK                            x       y       z     vdW  Elec       q    Type
REMARK                         _______ _______ _______ _____ _____    ______ ____
ROOT
ATOM      1  C   UNL     1       2.797  -1.919   4.683  0.00  0.00    +0.234 C 
ATOM      2  C   UNL     1       3.047  -0.771   5.617  0.00  0.00    +0.027 C 
ATOM      3  C   UNL     1       2.146  -0.447   6.566  0.00  0.00    +0.083 C 
ATOM      4  C   UNL     1       0.915  -1.274   6.652  0.00  0.00    +0.042 A 
ATOM      5  C   UNL     1      -0.202  -0.843   7.354  0.00  0.00    +0.013 A 
ATOM      6  C   UNL     1      -1.326  -1.644   7.406  0.00  0.00    +0.001 A 
ATOM      7  C   UNL     1      -1.339  -2.869   6.762  0.00  0.00    +0.004 A 
ATOM      8  C   UNL     1      -0.230  -3.306   6.061  0.00  0.00    +0.046 A 
ATOM      9  C   UNL     1       0.903  -2.515   6.002  0.00  0.00    +0.131 A 
ATOM     10  O   UNL     1       2.006  -2.919   5.329  0.00  0.00    -0.479 OA
ATOM     11  N   UNL     1       2.350   0.591   7.415  0.00  0.00    -0.213 NA
ATOM     12  C   UNL     1       3.413   1.352   7.402  0.00  0.00    +0.232 C 
ATOM     13  N   UNL     1       3.805   2.419   8.151  0.00  0.00    -0.231 N 
ATOM     14  N   UNL     1       4.953   2.834   7.751  0.00  0.00    -0.086 NA
ATOM     15  N   UNL     1       5.392   2.127   6.766  0.00  0.00    -0.165 N 
ATOM     16  N   UNL     1       4.435   1.149   6.493  0.00  0.00    -0.193 N 
ATOM     17  C   UNL     1       4.312   0.055   5.524  0.00  0.00    +0.162 C 
ATOM     18  H   UNL     1       6.233   2.251   6.300  0.00  0.00    +0.195 HD
ATOM     19  H   UNL     1       3.294   2.807   8.879  0.00  0.00    +0.193 HD
ENDROOT
BRANCH   1  23
ATOM     20  C   UNL     1       0.731  -0.503   1.223  0.00  0.00    -0.048 A 
ATOM     21  C   UNL     1       2.097  -0.710   1.176  0.00  0.00    +0.004 A 
ATOM     22  C   UNL     1       2.766  -1.167   2.296  0.00  0.00    +0.008 A 
ATOM     23  C   UNL     1       2.068  -1.419   3.463  0.00  0.00    -0.003 A 
ATOM     24  C   UNL     1       0.702  -1.212   3.510  0.00  0.00    +0.008 A 
ATOM     25  C   UNL     1       0.034  -0.750   2.391  0.00  0.00    +0.004 A 
BRANCH  20  27
ATOM     26  C   UNL     1      -0.019   1.526   0.010  0.00  0.00    +0.009 C 
ATOM     27  C   UNL     1       0.002  -0.004   0.002  0.00  0.00    +0.032 C 
ENDBRANCH  20  27
ENDBRANCH   1  23
BRANCH  17  28
ATOM     28  C   UNL     1       4.390   0.642   4.138  0.00  0.00    -0.003 A 
ATOM     29  C   UNL     1       5.194   0.056   3.172  0.00  0.00    +0.009 A 
ATOM     30  C   UNL     1       5.235   0.631   1.911  0.00  0.00    +0.020 A 
ATOM     31  C   UNL     1       4.479   1.760   1.661  0.00  0.00    +0.111 A 
ATOM     32  N   UNL     1       3.726   2.291   2.604  0.00  0.00    -0.263 NA
ATOM     33  C   UNL     1       3.658   1.768   3.813  0.00  0.00    +0.116 A 
ENDBRANCH  17  28
TORSDOF 3
