REMARK  Name = ZINC12581121
REMARK  4 active torsions:
REMARK  status: ('A' for Active; 'I' for Inactive)
REMARK    1  A    between atoms: C_1  and  C_2
REMARK    2  A    between atoms: C_2  and  C_22
REMARK    3  A    between atoms: N_5  and  C_9
REMARK    4  A    between atoms: C_9  and  C_10
REMARK                            x       y       z     vdW  Elec       q    Type
REMARK                         _______ _______ _______ _____ _____    ______ ____
ROOT
ATOM      1  C   UNL     1      -0.666  -0.558   1.262  0.00  0.00    +0.047 C 
ATOM      2  C   UNL     1       0.002  -0.004   0.002  0.00  0.00    +0.135 C 
ATOM      3  C   UNL     1       1.480  -0.340  -0.014  0.00  0.00    +0.251 C 
ATOM      4  O   UNL     1       1.980  -1.445  -0.025  0.00  0.00    -0.272 OA
ATOM      5  N   UNL     1       2.123   0.844  -0.014  0.00  0.00    -0.220 N 
ATOM      6  C   UNL     1       1.266   1.871   0.000  0.00  0.00    +0.310 C 
ATOM      7  O   UNL     1       1.608   3.037   0.003  0.00  0.00    -0.252 OA
ATOM      8  N   UNL     1      -0.018   1.469   0.010  0.00  0.00    -0.281 N 
ATOM      9  H   UNL     1      -0.803   2.038   0.017  0.00  0.00    +0.152 HD
ENDROOT
BRANCH   2  10
ATOM     10  C   UNL     1      -0.676  -0.537  -1.234  0.00  0.00    -0.012 A 
ATOM     11  C   UNL     1      -0.249  -1.725  -1.798  0.00  0.00    +0.010 A 
ATOM     12  C   UNL     1      -0.871  -2.220  -2.929  0.00  0.00    +0.050 A 
ATOM     13  C   UNL     1      -1.918  -1.520  -3.506  0.00  0.00    +0.166 A 
ATOM     14  C   UNL     1      -2.345  -0.321  -2.941  0.00  0.00    +0.167 A 
ATOM     15  C   UNL     1      -1.721   0.166  -1.805  0.00  0.00    +0.055 A 
ATOM     16  O   UNL     1      -3.378   0.169  -3.687  0.00  0.00    -0.453 OA
ATOM     17  C   UNL     1      -3.847  -0.944  -4.472  0.00  0.00    +0.466 C 
ATOM     18  O   UNL     1      -2.684  -1.782  -4.605  0.00  0.00    -0.453 OA
ENDBRANCH   2  10
BRANCH   5  19
ATOM     19  C   UNL     1       3.581   0.989  -0.027  0.00  0.00    +0.153 C 
BRANCH  19  20
ATOM     20  C   UNL     1       4.067   1.047  -1.453  0.00  0.00    -0.025 A 
ATOM     21  C   UNL     1       4.413  -0.120  -2.111  0.00  0.00    +0.054 A 
ATOM     22  C   UNL     1       4.853  -0.064  -3.422  0.00  0.00    +0.164 A 
ATOM     23  C   UNL     1       4.957   1.159  -4.069  0.00  0.00    +0.180 A 
ATOM     24  C   UNL     1       4.616   2.326  -3.406  0.00  0.00    +0.086 A 
ATOM     25  C   UNL     1       4.170   2.265  -2.096  0.00  0.00    +0.029 A 
ATOM     26 CL   UNL     1       4.745   3.857  -4.213  0.00  0.00    -0.080 Cl
ATOM     27  O   UNL     1       5.397   1.203  -5.361  0.00  0.00    -0.487 OA
ATOM     28  C   UNL     1       6.769   0.859  -5.566  0.00  0.00    +0.232 C 
ATOM     29  C   UNL     1       6.936  -0.648  -5.678  0.00  0.00    +0.082 C 
ATOM     30  C   UNL     1       6.579  -1.368  -4.387  0.00  0.00    +0.232 C 
ATOM     31  O   UNL     1       5.192  -1.208  -4.084  0.00  0.00    -0.488 OA
ENDBRANCH  19  20
ENDBRANCH   5  19
TORSDOF 3
