REMARK  Name = ZINC49096171
REMARK  6 active torsions:
REMARK  status: ('A' for Active; 'I' for Inactive)
REMARK    1  A    between atoms: C_1  and  C_2
REMARK    2  A    between atoms: C_2  and  C_4
REMARK    3  A    between atoms: C_2  and  N_8
REMARK    4  A    between atoms: N_6  and  C_7
REMARK    5  A    between atoms: N_8  and  C_9
REMARK    6  A    between atoms: C_14  and  N_15
REMARK                            x       y       z     vdW  Elec       q    Type
REMARK                         _______ _______ _______ _____ _____    ______ ____
ROOT
ATOM      1  C   UNL     1      -2.078  -0.648  -1.192  0.00  0.00    +0.049 A 
ATOM      2  C   UNL     1      -1.474  -0.309  -2.392  0.00  0.00    +0.030 A 
ATOM      3  C   UNL     1      -2.169  -0.443  -3.579  0.00  0.00    -0.024 A 
ATOM      4  C   UNL     1      -3.474  -0.918  -3.573  0.00  0.00    +0.038 A 
ATOM      5  C   UNL     1      -4.084  -1.259  -2.373  0.00  0.00    +0.048 A 
ATOM      6  C   UNL     1      -3.387  -1.131  -1.182  0.00  0.00    +0.047 A 
ATOM      7  N   UNL     1      -4.175  -1.052  -4.779  0.00  0.00    -0.285 N 
ATOM      8  C   UNL     1      -3.514  -1.089  -5.950  0.00  0.00    +0.218 C 
ATOM      9  O   UNL     1      -4.136  -1.190  -6.987  0.00  0.00    -0.275 OA
ATOM     10  C   UNL     1      -2.011  -1.006  -5.989  0.00  0.00    +0.101 C 
ATOM     11  C   UNL     1      -1.513  -0.074  -4.885  0.00  0.00    +0.046 C 
ATOM     12  H   UNL     1      -5.142  -1.117  -4.769  0.00  0.00    +0.155 HD
ENDROOT
BRANCH   6  13
ATOM     13  N   UNL     1      -3.997  -1.480   0.029  0.00  0.00    -0.356 N 
ATOM     14  H   UNL     1      -3.510  -1.386   0.862  0.00  0.00    +0.142 HD
ATOM     15  H   UNL     1      -4.907  -1.815   0.034  0.00  0.00    +0.142 HD
ENDBRANCH   6  13
BRANCH   1  16
ATOM     16  N   UNL     1      -1.372  -0.511   0.012  0.00  0.00    -0.332 N 
ATOM     17  H   UNL     1      -1.794  -0.752   0.852  0.00  0.00    +0.147 HD
BRANCH  16  19
ATOM     18  C   UNL     1      -0.019   1.526   0.010  0.00  0.00    +0.038 C 
ATOM     19  C   UNL     1       0.002  -0.004   0.002  0.00  0.00    +0.154 C 
BRANCH  19  20
ATOM     20  C   UNL     1       0.731  -0.503   1.223  0.00  0.00    +0.233 C 
ATOM     21  O   UNL     1       0.159  -1.213   2.023  0.00  0.00    -0.274 OA
ATOM     22  N   UNL     1       2.019  -0.161   1.426  0.00  0.00    -0.317 N 
ATOM     23  C   UNL     1       2.727  -0.647   2.613  0.00  0.00    +0.128 C 
ATOM     24  H   UNL     1       2.476   0.406   0.786  0.00  0.00    +0.148 HD
ENDBRANCH  19  20
ENDBRANCH  16  19
ENDBRANCH   1  16
TORSDOF 4
