REMARK  Name = ZINC08559532
REMARK  5 active torsions:
REMARK  status: ('A' for Active; 'I' for Inactive)
REMARK    1  A    between atoms: C_1  and  C_2
REMARK    2  A    between atoms: C_2  and  C_29
REMARK    3  A    between atoms: C_6  and  C_20
REMARK    4  A    between atoms: C_8  and  C_18
REMARK    5  A    between atoms: C_9  and  N_17
REMARK                            x       y       z     vdW  Elec       q    Type
REMARK                         _______ _______ _______ _____ _____    ______ ____
ROOT
ATOM      1  C   UNL     1      -0.019   1.526   0.010  0.00  0.00    +0.011 C 
ATOM      2  C   UNL     1       0.002  -0.004   0.002  0.00  0.00    -0.023 C 
ATOM      3  C   UNL     1      -1.431  -0.538   0.038  0.00  0.00    +0.058 C 
ATOM      4  C   UNL     1      -1.409  -2.046   0.080  0.00  0.00    +0.028 C 
ATOM      5  C   UNL     1      -0.398  -2.710   0.678  0.00  0.00    +0.025 C 
ATOM      6  C   UNL     1      -0.384  -4.217   0.731  0.00  0.00    +0.097 C 
ATOM      7  C   UNL     1      -1.318  -4.804  -0.286  0.00  0.00    +0.077 C 
ATOM      8  C   UNL     1      -2.296  -4.053  -0.856  0.00  0.00    +0.109 C 
ATOM      9  N   UNL     1      -2.442  -2.729  -0.508  0.00  0.00    -0.228 N 
ATOM     10  C   UNL     1      -3.653  -2.075  -0.758  0.00  0.00    +0.246 A 
ATOM     11  N   UNL     1      -4.732  -2.625  -1.323  0.00  0.00    -0.202 NA
ATOM     12  H   UNL     1      -5.726   0.253  -0.817  0.00  0.00    +0.190 HD
ATOM     13  C   UNL     1      -5.689  -1.737  -1.407  0.00  0.00    +0.217 A 
ATOM     14  N   UNL     1      -5.237  -0.582  -0.890  0.00  0.00    -0.264 N 
ATOM     15  N   UNL     1      -3.919  -0.823  -0.470  0.00  0.00    -0.136 NA
ATOM     16  C   UNL     1       0.675  -2.018   1.268  0.00  0.00    +0.162 C 
ATOM     17  O   UNL     1       1.565  -2.646   1.807  0.00  0.00    -0.292 OA
ATOM     18  C   UNL     1       0.743  -0.516   1.242  0.00  0.00    +0.086 C 
ATOM     19  C   UNL     1       0.709  -0.502  -1.260  0.00  0.00    +0.011 C 
ENDROOT
BRANCH   6  20
ATOM     20  C   UNL     1      -0.807  -4.667   2.106  0.00  0.00    -0.035 A 
ATOM     21  C   UNL     1      -2.056  -4.327   2.590  0.00  0.00    +0.004 A 
ATOM     22  C   UNL     1      -2.445  -4.740   3.851  0.00  0.00    +0.000 A 
ATOM     23  C   UNL     1      -1.584  -5.493   4.627  0.00  0.00    +0.000 A 
ATOM     24  C   UNL     1      -0.335  -5.834   4.142  0.00  0.00    +0.000 A 
ATOM     25  C   UNL     1       0.051  -5.425   2.880  0.00  0.00    +0.004 A 
ENDBRANCH   6  20
BRANCH   8  26
ATOM     26  N   UNL     1      -3.142  -4.617  -1.781  0.00  0.00    -0.345 N 
ATOM     27  H   UNL     1      -3.040  -5.550  -2.026  0.00  0.00    +0.144 HD
ATOM     28  H   UNL     1      -3.841  -4.082  -2.188  0.00  0.00    +0.144 HD
ENDBRANCH   8  26
BRANCH   7  29
ATOM     29  C   UNL     1      -1.175  -6.178  -0.664  0.00  0.00    +0.099 C 
ATOM     30  N   UNL     1      -1.061  -7.267  -0.963  0.00  0.00    -0.191 NA
ENDBRANCH   7  29
TORSDOF 3
