REMARK  Name = ZINC63904301
REMARK  7 active torsions:
REMARK  status: ('A' for Active; 'I' for Inactive)
REMARK    1  A    between atoms: C_1  and  C_2
REMARK    2  A    between atoms: C_2  and  C_3
REMARK    3  A    between atoms: C_2  and  C_4
REMARK    4  A    between atoms: C_6  and  C_18
REMARK    5  A    between atoms: N_9  and  C_10
REMARK    6  A    between atoms: N_20  and  C_21
REMARK    7  A    between atoms: C_21  and  C_22
REMARK                            x       y       z     vdW  Elec       q    Type
REMARK                         _______ _______ _______ _____ _____    ______ ____
ROOT
ATOM      1  C   UNL     1      -1.423  -0.571   0.236  0.00  0.00    +0.023 C 
ATOM      2  C   UNL     1      -1.975  -1.458  -0.567  0.00  0.00    +0.022 C 
ATOM      3  C   UNL     1      -3.379  -1.699  -0.054  0.00  0.00    +0.183 C 
ATOM      4  N   UNL     1      -3.490  -0.818   1.126  0.00  0.00    -0.224 NA
ATOM      5  N   UNL     1      -2.287  -0.182   1.240  0.00  0.00    -0.265 N 
ATOM      6  H   UNL     1      -4.244  -0.156   1.014  0.00  0.00    +0.146 HD
ENDROOT
BRANCH   5   7
ATOM      7  C   UNL     1      -1.958   0.786   2.288  0.00  0.00    +0.113 C 
ATOM      8  C   UNL     1      -2.192   0.156   3.671  0.00  0.00    +0.048 C 
ATOM      9  C   UNL     1      -2.159   1.252   4.763  0.00  0.00    +0.168 C 
ATOM     10  S   UNL     1      -2.714   2.749   3.850  0.00  0.00    -0.029 S 
ATOM     11  O   UNL     1      -4.000   3.127   4.321  0.00  0.00    -0.174 OA
ATOM     12  O   UNL     1      -1.662   3.704   3.846  0.00  0.00    -0.174 OA
ATOM     13  C   UNL     1      -2.881   2.032   2.162  0.00  0.00    +0.189 C 
ENDBRANCH   5   7
BRANCH   3  14
ATOM     14  C   UNL     1      -4.395  -1.315  -1.099  0.00  0.00    +0.236 C 
ATOM     15  O   UNL     1      -5.198  -0.435  -0.870  0.00  0.00    -0.274 OA
ATOM     16  N   UNL     1      -4.411  -1.950  -2.288  0.00  0.00    -0.310 N 
ATOM     17  H   UNL     1      -3.769  -2.654  -2.470  0.00  0.00    +0.149 HD
BRANCH  16  18
ATOM     18  C   UNL     1      -5.399  -1.577  -3.303  0.00  0.00    +0.151 C 
BRANCH  18  19
ATOM     19  C   UNL     1      -5.202  -2.444  -4.549  0.00  0.00    +0.191 C 
ATOM     20  N   UNL     1      -3.829  -2.301  -5.050  0.00  0.00    -0.362 N 
ATOM     21  C   UNL     1      -3.273  -3.477  -5.008  0.00  0.00    +0.060 A 
ATOM     22  C   UNL     1      -1.935  -3.963  -5.372  0.00  0.00    +0.027 A 
ATOM     23  C   UNL     1      -1.636  -5.269  -5.215  0.00  0.00    +0.002 A 
ATOM     24  C   UNL     1      -2.559  -6.202  -4.712  0.00  0.00    +0.002 A 
ATOM     25  C   UNL     1      -3.812  -5.862  -4.348  0.00  0.00    +0.027 A 
ATOM     26  C   UNL     1      -4.250  -4.466  -4.474  0.00  0.00    +0.060 A 
ATOM     27  N   UNL     1      -5.372  -3.862  -4.208  0.00  0.00    -0.362 N 
ATOM     28  H   UNL     1      -3.413  -1.480  -5.357  0.00  0.00    +0.162 HD
ATOM     29  H   UNL     1      -6.174  -4.274  -3.849  0.00  0.00    +0.162 HD
ENDBRANCH  18  19
ENDBRANCH  16  18
ENDBRANCH   3  14
BRANCH   1  31
ATOM     30  C   UNL     1      -0.054   1.472  -0.084  0.00  0.00    +0.013 C 
ATOM     31  C   UNL     1      -0.018  -0.049   0.080  0.00  0.00    +0.028 C 
ATOM     32  C   UNL     1       0.800  -0.409   1.322  0.00  0.00    +0.013 C 
ENDBRANCH   1  31
TORSDOF 5
