REMARK  Name = ZINC38979926
REMARK  7 active torsions:
REMARK  status: ('A' for Active; 'I' for Inactive)
REMARK    1  A    between atoms: C_1  and  C_2
REMARK    2  A    between atoms: C_6  and  S_8
REMARK    3  A    between atoms: S_8  and  N_11
REMARK    4  A    between atoms: C_13  and  N_23
REMARK    5  A    between atoms: N_23  and  C_24
REMARK    6  A    between atoms: C_28  and  O_30
REMARK    7  A    between atoms: O_30  and  C_31
REMARK                            x       y       z     vdW  Elec       q    Type
REMARK                         _______ _______ _______ _____ _____    ______ ____
ROOT
ATOM      1  N   UNL     1       1.667  -2.716   3.021  0.00  0.00    -0.110 NA
ATOM      2  C   UNL     1       1.881  -3.554   3.992  0.00  0.00    +0.192 C 
ATOM      3  C   UNL     1       3.291  -3.948   4.370  0.00  0.00    +0.237 C 
ATOM      4  N   UNL     1       3.465  -4.899   5.478  0.00  0.00    -0.359 N 
ATOM      5  C   UNL     1       2.401  -5.355   6.080  0.00  0.00    +0.063 A 
ATOM      6  C   UNL     1       2.521  -6.308   7.193  0.00  0.00    +0.027 A 
ATOM      7  C   UNL     1       1.396  -6.758   7.792  0.00  0.00    +0.002 A 
ATOM      8  C   UNL     1       0.121  -6.339   7.378  0.00  0.00    +0.002 A 
ATOM      9  C   UNL     1      -0.068  -5.467   6.364  0.00  0.00    +0.030 A 
ATOM     10  C   UNL     1       1.042  -4.930   5.663  0.00  0.00    +0.089 A 
ATOM     11  N   UNL     1       0.852  -4.077   4.679  0.00  0.00    -0.226 NA
ATOM     12  H   UNL     1       4.350  -5.181   5.755  0.00  0.00    +0.162 HD
ENDROOT
BRANCH   1  13
ATOM     13  S   UNL     1       0.118  -2.288   2.622  0.00  0.00    +0.100 S 
ATOM     14  O   UNL     1      -0.400  -1.562   3.728  0.00  0.00    -0.146 OA
ATOM     15  O   UNL     1      -0.510  -3.458   2.118  0.00  0.00    -0.146 OA
BRANCH  13  21
ATOM     16  C   UNL     1       0.493   2.574   0.741  0.00  0.00    +0.044 C 
ATOM     17  C   UNL     1       0.393   1.095   0.472  0.00  0.00    -0.049 A 
ATOM     18  C   UNL     1       0.381   0.629  -0.830  0.00  0.00    +0.003 A 
ATOM     19  C   UNL     1       0.288  -0.728  -1.077  0.00  0.00    +0.002 A 
ATOM     20  C   UNL     1       0.208  -1.619  -0.022  0.00  0.00    +0.029 A 
ATOM     21  C   UNL     1       0.221  -1.153   1.278  0.00  0.00    +0.113 A 
ATOM     22  C   UNL     1       0.318   0.204   1.526  0.00  0.00    +0.032 A 
ENDBRANCH  13  21
ENDBRANCH   1  13
BRANCH   3  23
ATOM     23  N   UNL     1       4.020  -2.725   4.713  0.00  0.00    -0.318 N 
ATOM     24  H   UNL     1       3.600  -2.048   5.266  0.00  0.00    +0.148 HD
BRANCH  23  25
ATOM     25  C   UNL     1       5.321  -2.533   4.243  0.00  0.00    +0.032 A 
ATOM     26  C   UNL     1       5.980  -3.560   3.578  0.00  0.00    +0.023 A 
ATOM     27  C   UNL     1       7.267  -3.370   3.114  0.00  0.00    +0.005 A 
ATOM     28  C   UNL     1       7.902  -2.158   3.308  0.00  0.00    +0.046 A 
ATOM     29  C   UNL     1       7.249  -1.128   3.970  0.00  0.00    +0.122 A 
ATOM     30  C   UNL     1       5.956  -1.313   4.434  0.00  0.00    +0.068 A 
BRANCH  29  31
ATOM     31  O   UNL     1       7.876   0.063   4.160  0.00  0.00    -0.495 OA
ATOM     32  C   UNL     1       9.206   0.184   3.651  0.00  0.00    +0.277 C 
ENDBRANCH  29  31
ENDBRANCH  23  25
ENDBRANCH   3  23
TORSDOF 5
