REMARK  Name = ZINC66779967
REMARK  8 active torsions:
REMARK  status: ('A' for Active; 'I' for Inactive)
REMARK    1  A    between atoms: C_6  and  O_7
REMARK    2  A    between atoms: O_7  and  C_8
REMARK    3  A    between atoms: C_8  and  C_9
REMARK    4  A    between atoms: C_9  and  O_10
REMARK    5  A    between atoms: O_10  and  C_11
REMARK    6  A    between atoms: C_14  and  S_20
REMARK    7  A    between atoms: C_16  and  N_17
REMARK    8  A    between atoms: S_20  and  N_23
REMARK                            x       y       z     vdW  Elec       q    Type
REMARK                         _______ _______ _______ _____ _____    ______ ____
ROOT
ATOM      1  C   UNL     1      -4.419  -2.853  -1.352  0.00  0.00    +0.151 A 
ATOM      2  C   UNL     1      -5.005  -3.615  -0.351  0.00  0.00    +0.050 A 
ATOM      3  C   UNL     1      -6.294  -4.084  -0.507  0.00  0.00    +0.032 A 
ATOM      4  C   UNL     1      -7.002  -3.794  -1.659  0.00  0.00    +0.107 A 
ATOM      5  C   UNL     1      -6.420  -3.036  -2.658  0.00  0.00    +0.065 A 
ATOM      6  C   UNL     1      -5.133  -2.559  -2.505  0.00  0.00    +0.169 A 
ENDROOT
BRANCH   6   7
ATOM      7  N   UNL     1      -4.513  -1.742  -3.571  0.00  0.00    +0.060 N 
ATOM      8  O   UNL     1      -5.135  -1.487  -4.576  0.00  0.00    -0.126 OA
ATOM      9  O   UNL     1      -3.384  -1.330  -3.439  0.00  0.00    -0.126 OA
ENDBRANCH   6   7
BRANCH   4  10
ATOM     10  S   UNL     1      -8.647  -4.394  -1.855  0.00  0.00    +0.056 S 
ATOM     11  O   UNL     1      -8.897  -4.445  -3.253  0.00  0.00    -0.153 OA
ATOM     12  O   UNL     1      -8.766  -5.535  -1.018  0.00  0.00    -0.153 OA
BRANCH  10  13
ATOM     13  N   UNL     1      -9.664  -3.244  -1.235  0.00  0.00    -0.204 NA
ATOM     14  H   UNL     1      -9.301  -2.427  -0.858  0.00  0.00    +0.144 HD
ATOM     15  H   UNL     1     -10.624  -3.387  -1.248  0.00  0.00    +0.144 HD
ENDBRANCH  10  13
ENDBRANCH   4  10
BRANCH   1  16
ATOM     16  O   UNL     1      -3.150  -2.390  -1.201  0.00  0.00    -0.486 OA
BRANCH  16  17
ATOM     17  C   UNL     1      -2.475  -2.731   0.012  0.00  0.00    +0.270 C 
BRANCH  17  18
ATOM     18  C   UNL     1      -1.070  -2.126   0.001  0.00  0.00    +0.270 C 
BRANCH  18  19
ATOM     19  O   UNL     1      -1.165  -0.701   0.010  0.00  0.00    -0.489 OA
BRANCH  19  25
ATOM     20  C   UNL     1      -0.017   1.383   0.010  0.00  0.00    +0.047 A 
ATOM     21  C   UNL     1       1.171   2.089   0.002  0.00  0.00    +0.023 A 
ATOM     22  C   UNL     1       2.378   1.414  -0.013  0.00  0.00    +0.041 A 
ATOM     23  C   UNL     1       2.399   0.030  -0.021  0.00  0.00    +0.023 A 
ATOM     24  C   UNL     1       1.214  -0.679  -0.014  0.00  0.00    +0.047 A 
ATOM     25  C   UNL     1       0.002  -0.004   0.002  0.00  0.00    +0.121 A 
ATOM     26 CL   UNL     1       3.869   2.303  -0.024  0.00  0.00    -0.084 Cl
ENDBRANCH  19  25
ENDBRANCH  18  19
ENDBRANCH  17  18
ENDBRANCH  16  17
ENDBRANCH   1  16
TORSDOF 8
