REMARK  Name = ZINC64040626
REMARK  10 active torsions:
REMARK  status: ('A' for Active; 'I' for Inactive)
REMARK    1  A    between atoms: C_1  and  N_2
REMARK    2  A    between atoms: N_2  and  C_3
REMARK    3  A    between atoms: N_2  and  C_13
REMARK    4  A    between atoms: C_3  and  C_4
REMARK    5  A    between atoms: C_13  and  C_14
REMARK    6  A    between atoms: C_17  and  S_27
REMARK    7  A    between atoms: N_19  and  C_20
REMARK    8  A    between atoms: C_20  and  C_21
REMARK    9  A    between atoms: S_27  and  C_30
REMARK   10  A    between atoms: C_30  and  C_31
REMARK                            x       y       z     vdW  Elec       q    Type
REMARK                         _______ _______ _______ _____ _____    ______ ____
ROOT
ATOM      1  C   UNL     1       0.403  -0.439  -2.161  0.00  0.00    +0.115 C 
ATOM      2  C   UNL     1       0.915  -1.353  -3.251  0.00  0.00    +0.101 C 
ATOM      3  N   UNL     1      -0.049  -1.686  -4.020  0.00  0.00    -0.253 NA
ATOM      4  C   UNL     1      -1.304  -1.066  -3.580  0.00  0.00    +0.319 C 
ATOM      5  N   UNL     1      -1.069  -0.622  -2.186  0.00  0.00    -0.252 NA
ENDROOT
BRANCH   4   6
ATOM      6  S   UNL     1      -2.653  -2.278  -3.635  0.00  0.00    +0.006 S 
ATOM      7  O   UNL     1      -3.860  -1.625  -3.268  0.00  0.00    -0.171 OA
ATOM      8  O   UNL     1      -2.589  -2.966  -4.876  0.00  0.00    -0.171 OA
BRANCH   6   9
ATOM      9  C   UNL     1      -2.203  -3.437  -2.313  0.00  0.00    +0.173 C 
BRANCH   9  10
ATOM     10  C   UNL     1      -3.257  -4.542  -2.224  0.00  0.00    +0.010 C 
ATOM     11  C   UNL     1      -4.069  -4.641  -0.931  0.00  0.00    +0.005 C 
ATOM     12  C   UNL     1      -2.998  -5.688  -1.243  0.00  0.00    +0.005 C 
ENDBRANCH   9  10
ENDBRANCH   6   9
ENDBRANCH   4   6
BRANCH   1  13
ATOM     13  C   UNL     1       0.971  -0.856  -0.802  0.00  0.00    +0.109 C 
BRANCH  13  15
ATOM     14  C   UNL     1       0.792   1.227   0.419  0.00  0.00    +0.105 C 
ATOM     15  N   UNL     1       0.265  -0.136   0.266  0.00  0.00    -0.300 NA
BRANCH  15  16
ATOM     16  C   UNL     1       0.336  -0.873   1.534  0.00  0.00    +0.130 C 
BRANCH  16  17
ATOM     17  C   UNL     1       1.798  -1.020   1.958  0.00  0.00    +0.188 C 
ATOM     18  N   UNL     1       2.471   0.285   1.908  0.00  0.00    -0.362 N 
ATOM     19  C   UNL     1       3.445   0.189   1.050  0.00  0.00    +0.060 A 
ATOM     20  C   UNL     1       4.457   1.144   0.577  0.00  0.00    +0.027 A 
ATOM     21  C   UNL     1       5.364   0.752  -0.340  0.00  0.00    +0.002 A 
ATOM     22  C   UNL     1       5.388  -0.548  -0.875  0.00  0.00    +0.002 A 
ATOM     23  C   UNL     1       4.506  -1.500  -0.511  0.00  0.00    +0.027 A 
ATOM     24  C   UNL     1       3.471  -1.187   0.485  0.00  0.00    +0.060 A 
ATOM     25  N   UNL     1       2.512  -1.890   1.014  0.00  0.00    -0.362 N 
ATOM     26  H   UNL     1       2.232   1.073   2.420  0.00  0.00    +0.162 HD
ATOM     27  H   UNL     1       2.306  -2.818   0.821  0.00  0.00    +0.162 HD
ENDBRANCH  16  17
ENDBRANCH  15  16
ENDBRANCH  13  15
ENDBRANCH   1  13
BRANCH   5  28
ATOM     28  C   UNL     1      -1.762   0.644  -1.913  0.00  0.00    +0.120 C 
BRANCH  28  29
ATOM     29  C   UNL     1      -3.273   0.434  -2.026  0.00  0.00    +0.132 C 
ATOM     30  C   UNL     1      -4.014   1.730  -1.634  0.00  0.00    +0.035 C 
ATOM     31  C   UNL     1      -5.232   1.186  -0.839  0.00  0.00    +0.031 C 
ATOM     32  C   UNL     1      -4.606  -0.055  -0.154  0.00  0.00    +0.160 C 
ATOM     33  O   UNL     1      -3.690  -0.596  -1.121  0.00  0.00    -0.375 OA
ENDBRANCH  28  29
ENDBRANCH   5  28
TORSDOF 9
