REMARK  Name = ZINC59329834
REMARK  7 active torsions:
REMARK  status: ('A' for Active; 'I' for Inactive)
REMARK    1  A    between atoms: C_1  and  C_2
REMARK    2  A    between atoms: C_2  and  C_3
REMARK    3  A    between atoms: C_9  and  C_11
REMARK    4  A    between atoms: C_16  and  N_17
REMARK    5  A    between atoms: C_18  and  C_20
REMARK    6  A    between atoms: C_21  and  C_22
REMARK    7  A    between atoms: C_27  and  N_28
REMARK                            x       y       z     vdW  Elec       q    Type
REMARK                         _______ _______ _______ _____ _____    ______ ____
ROOT
ATOM      1  C   UNL     1       3.901  -1.661   6.030  0.00  0.00    +0.058 A 
ATOM      2  C   UNL     1       5.213  -1.595   5.553  0.00  0.00    +0.015 A 
ATOM      3  C   UNL     1       6.269  -1.655   6.436  0.00  0.00    +0.001 A 
ATOM      4  C   UNL     1       6.038  -1.781   7.797  0.00  0.00    +0.002 A 
ATOM      5  C   UNL     1       4.748  -1.848   8.283  0.00  0.00    +0.024 A 
ATOM      6  C   UNL     1       3.671  -1.783   7.409  0.00  0.00    +0.046 A 
ENDROOT
BRANCH   1  13
ATOM      7  C   UNL     1       0.129  -1.264   0.921  0.00  0.00    +0.103 A 
ATOM      8  N   UNL     1      -0.228  -1.389   2.184  0.00  0.00    -0.145 NA
ATOM      9  N   UNL     1       0.618  -1.458   3.117  0.00  0.00    -0.126 NA
ATOM     10  C   UNL     1       1.922  -1.409   2.884  0.00  0.00    +0.188 A 
ATOM     11  S   UNL     1       1.910  -1.252   1.100  0.00  0.00    -0.035 S 
ATOM     12  N   UNL     1       2.992  -1.470   3.769  0.00  0.00    -0.259 N 
ATOM     13  C   UNL     1       2.766  -1.598   5.091  0.00  0.00    +0.252 C 
ATOM     14  O   UNL     1       1.626  -1.661   5.510  0.00  0.00    -0.270 OA
ATOM     15  H   UNL     1       3.901  -1.419   3.435  0.00  0.00    +0.157 HD
BRANCH   7  17
ATOM     16  C   UNL     1      -1.032   0.303  -0.610  0.00  0.00    +0.011 C 
ATOM     17  C   UNL     1      -0.721  -1.167  -0.319  0.00  0.00    +0.061 C 
ENDBRANCH   7  17
ENDBRANCH   1  13
BRANCH   6  18
ATOM     18  N   UNL     1       2.369  -1.845   7.898  0.00  0.00    -0.281 N 
ATOM     19  C   UNL     1       2.099  -1.424   9.150  0.00  0.00    +0.241 C 
ATOM     20  O   UNL     1       2.969  -0.894   9.815  0.00  0.00    -0.270 OA
ATOM     21  H   UNL     1       1.657  -2.190   7.338  0.00  0.00    +0.155 HD
BRANCH  19  22
ATOM     22  C   UNL     1       0.758  -1.604   9.709  0.00  0.00    +0.068 C 
ATOM     23  C   UNL     1       0.488  -1.183  10.961  0.00  0.00    +0.015 C 
BRANCH  23  24
ATOM     24  C   UNL     1      -0.860  -1.364  11.523  0.00  0.00    +0.005 A 
ATOM     25  C   UNL     1      -1.940  -1.650  10.681  0.00  0.00    +0.010 A 
ATOM     26  C   UNL     1      -3.200  -1.819  11.216  0.00  0.00    +0.001 A 
ATOM     27  C   UNL     1      -3.397  -1.706  12.581  0.00  0.00    +0.002 A 
ATOM     28  C   UNL     1      -2.334  -1.424  13.421  0.00  0.00    +0.033 A 
ATOM     29  C   UNL     1      -1.067  -1.258  12.902  0.00  0.00    +0.133 A 
BRANCH  29  30
ATOM     30  N   UNL     1       0.070  -0.962  13.802  0.00  0.00    +0.057 N 
ATOM     31  O   UNL     1       1.157  -1.443  13.581  0.00  0.00    -0.126 OA
ATOM     32  O   UNL     1      -0.088  -0.238  14.757  0.00  0.00    -0.126 OA
ENDBRANCH  29  30
ENDBRANCH  23  24
ENDBRANCH  19  22
ENDBRANCH   6  18
TORSDOF 6
