REMARK  Name = ZINC63743043
REMARK  6 active torsions:
REMARK  status: ('A' for Active; 'I' for Inactive)
REMARK    1  A    between atoms: C_1  and  O_2
REMARK    2  A    between atoms: O_2  and  C_3
REMARK    3  A    between atoms: C_8  and  S_13
REMARK    4  A    between atoms: S_13  and  C_14
REMARK    5  A    between atoms: C_14  and  C_15
REMARK    6  A    between atoms: C_18  and  C_21
REMARK                            x       y       z     vdW  Elec       q    Type
REMARK                         _______ _______ _______ _____ _____    ______ ____
ROOT
ATOM      1  S   UNL     1      -4.855  -4.915   1.520  0.00  0.00    -0.106 S 
ENDROOT
BRANCH   1   7
ATOM      2  C   UNL     1      -1.198  -0.636   0.010  0.00  0.00    +0.122 A 
ATOM      3  C   UNL     1      -2.418   0.160   0.020  0.00  0.00    +0.048 A 
ATOM      4  C   UNL     1      -3.638  -0.408   0.029  0.00  0.00    +0.031 A 
ATOM      5  C   UNL     1      -3.762  -1.873   0.028  0.00  0.00    +0.061 A 
ATOM      6  N   UNL     1      -4.795  -2.665   0.036  0.00  0.00    -0.355 N 
ATOM      7  C   UNL     1      -4.295  -4.045   0.030  0.00  0.00    +0.236 C 
ATOM      8  N   UNL     1      -2.830  -3.955   0.019  0.00  0.00    -0.355 N 
ATOM      9  C   UNL     1      -2.517  -2.688   0.017  0.00  0.00    +0.064 A 
ATOM     10  C   UNL     1      -1.229  -1.991   0.003  0.00  0.00    +0.073 A 
ATOM     11  H   UNL     1      -5.726  -2.393   0.044  0.00  0.00    +0.162 HD
ATOM     12  H   UNL     1      -2.209  -4.700   0.013  0.00  0.00    +0.162 HD
BRANCH   2  14
ATOM     13  C   UNL     1      -0.017   1.425   0.010  0.00  0.00    +0.277 C 
ATOM     14  O   UNL     1       0.002  -0.004   0.002  0.00  0.00    -0.495 OA
ENDBRANCH   2  14
ENDBRANCH   1   7
BRANCH   1  15
ATOM     15  C   UNL     1      -4.190  -3.922   2.885  0.00  0.00    +0.169 C 
BRANCH  15  16
ATOM     16  C   UNL     1      -4.587  -4.544   4.199  0.00  0.00    +0.217 C 
ATOM     17  N   UNL     1      -5.285  -5.615   4.297  0.00  0.00    -0.149 NA
ATOM     18  N   UNL     1      -5.492  -5.944   5.645  0.00  0.00    -0.224 N 
ATOM     19  C   UNL     1      -4.802  -4.891   6.412  0.00  0.00    +0.310 C 
ATOM     20  O   UNL     1      -4.243  -4.036   5.404  0.00  0.00    -0.451 OA
ATOM     21  H   UNL     1      -5.984  -6.702   5.997  0.00  0.00    +0.172 HD
BRANCH  19  22
ATOM     22  C   UNL     1      -3.709  -5.487   7.261  0.00  0.00    +0.026 A 
ATOM     23  C   UNL     1      -3.266  -6.774   7.016  0.00  0.00    +0.010 A 
ATOM     24  C   UNL     1      -2.263  -7.320   7.794  0.00  0.00    +0.001 A 
ATOM     25  C   UNL     1      -1.702  -6.581   8.819  0.00  0.00    +0.001 A 
ATOM     26  C   UNL     1      -2.144  -5.295   9.065  0.00  0.00    +0.016 A 
ATOM     27  C   UNL     1      -3.144  -4.745   8.283  0.00  0.00    +0.026 A 
ATOM     28 BR   UNL     1      -3.744  -2.983   8.615  0.00  0.00    -0.050 Br
ENDBRANCH  19  22
ENDBRANCH  15  16
ENDBRANCH   1  15
TORSDOF 5
