REMARK  Name = ZINC55307803
REMARK  4 active torsions:
REMARK  status: ('A' for Active; 'I' for Inactive)
REMARK    1  A    between atoms: C_3  and  S_8
REMARK    2  A    between atoms: S_8  and  C_9
REMARK    3  A    between atoms: C_10  and  C_18
REMARK    4  A    between atoms: N_19  and  O_20
REMARK                            x       y       z     vdW  Elec       q    Type
REMARK                         _______ _______ _______ _____ _____    ______ ____
ROOT
ATOM      1  C   UNL     1       5.370   0.853   0.294  0.00  0.00    +0.112 A 
ATOM      2  C   UNL     1       6.662   1.397   0.384  0.00  0.00    +0.050 A 
ATOM      3  C   UNL     1       7.739   0.530   0.581  0.00  0.00    +0.019 A 
ATOM      4  C   UNL     1       7.488  -0.829   0.679  0.00  0.00    -0.025 A 
ATOM      5  C   UNL     1       6.189  -1.294   0.581  0.00  0.00    +0.046 A 
ATOM      6  N   UNL     1       5.184  -0.451   0.400  0.00  0.00    -0.244 NA
ATOM      7  C   UNL     1       6.178  -2.803   0.721  0.00  0.00    +0.056 C 
ATOM      8  C   UNL     1       7.636  -3.243   0.473  0.00  0.00    +0.011 C 
ATOM      9  C   UNL     1       8.436  -1.990   0.889  0.00  0.00    +0.037 C 
ENDROOT
BRANCH   2  10
ATOM     10  C   UNL     1       6.877   2.855   0.273  0.00  0.00    +0.165 C 
ATOM     11  N   UNL     1       7.689   3.326  -0.629  0.00  0.00    -0.071 NA
ATOM     12  N   UNL     1       6.214   3.720   1.127  0.00  0.00    -0.340 N 
ATOM     13  H   UNL     1       5.609   3.369   1.800  0.00  0.00    +0.144 HD
ATOM     14  H   UNL     1       6.355   4.677   1.054  0.00  0.00    +0.144 HD
BRANCH  11  15
ATOM     15  O   UNL     1       8.277   2.454  -1.577  0.00  0.00    -0.408 OA
ATOM     16  H   UNL     1       8.922   2.881  -2.158  0.00  0.00    +0.328 HD
ENDBRANCH  11  15
ENDBRANCH   2  10
BRANCH   1  17
ATOM     17  S   UNL     1       3.988   1.918   0.046  0.00  0.00    -0.069 S 
BRANCH  17  20
ATOM     18  C   UNL     1       0.908  -0.369   1.255  0.00  0.00    +0.002 A 
ATOM     19  C   UNL     1       1.994   0.485   1.253  0.00  0.00    +0.015 A 
ATOM     20  C   UNL     1       2.604   0.828   0.053  0.00  0.00    +0.015 A 
ATOM     21  C   UNL     1       2.120   0.309  -1.142  0.00  0.00    +0.030 A 
ATOM     22  C   UNL     1       1.034  -0.545  -1.133  0.00  0.00    +0.019 A 
ATOM     23  C   UNL     1       0.429  -0.884   0.065  0.00  0.00    +0.015 A 
ATOM     24 BR   UNL     1       0.373  -1.251  -2.758  0.00  0.00    -0.050 Br
ENDBRANCH  17  20
ENDBRANCH   1  17
TORSDOF 4
