REMARK  Name = ZINC66079136
REMARK  8 active torsions:
REMARK  status: ('A' for Active; 'I' for Inactive)
REMARK    1  A    between atoms: C_1  and  N_2
REMARK    2  A    between atoms: C_3  and  C_22
REMARK    3  A    between atoms: N_5  and  C_8
REMARK    4  A    between atoms: C_8  and  N_9
REMARK    5  A    between atoms: N_9  and  C_10
REMARK    6  A    between atoms: C_10  and  C_15
REMARK    7  A    between atoms: C_22  and  C_23
REMARK    8  A    between atoms: C_23  and  C_24
REMARK                            x       y       z     vdW  Elec       q    Type
REMARK                         _______ _______ _______ _____ _____    ______ ____
ROOT
ATOM      1  C   UNL     1       1.331  -3.282  -0.163  0.00  0.00    +0.069 C 
ENDROOT
BRANCH   1   6
ATOM      2  C   UNL     1      -0.651   1.265  -0.412  0.00  0.00    +0.152 C 
ATOM      3  N   UNL     1      -0.502  -0.192  -0.366  0.00  0.00    -0.310 N 
ATOM      4  C   UNL     1      -1.525  -1.106  -0.413  0.00  0.00    +0.132 A 
ATOM      5  N   UNL     1      -1.024  -2.298  -0.349  0.00  0.00    -0.158 NA
ATOM      6  N   UNL     1       0.370  -2.180  -0.257  0.00  0.00    -0.258 N 
ATOM      7  C   UNL     1       0.663  -0.863  -0.275  0.00  0.00    +0.176 A 
ATOM      8  S   UNL     1       2.228  -0.172  -0.193  0.00  0.00    -0.011 S 
BRANCH   4   9
ATOM      9  C   UNL     1      -2.992  -0.777  -0.522  0.00  0.00    +0.085 C 
BRANCH   9  10
ATOM     10  C   UNL     1      -3.805  -2.073  -0.546  0.00  0.00    +0.103 C 
BRANCH  10  11
ATOM     11  C   UNL     1      -5.271  -1.743  -0.654  0.00  0.00    +0.211 C 
ATOM     12  O   UNL     1      -5.631  -0.586  -0.707  0.00  0.00    -0.276 OA
ATOM     13  N   UNL     1      -6.184  -2.735  -0.693  0.00  0.00    -0.329 N 
ATOM     14  H   UNL     1      -5.896  -3.660  -0.650  0.00  0.00    +0.145 HD
ATOM     15  H   UNL     1      -7.128  -2.523  -0.762  0.00  0.00    +0.145 HD
ENDBRANCH  10  11
ENDBRANCH   9  10
ENDBRANCH   4   9
ENDBRANCH   1   6
BRANCH   1  16
ATOM     16  N   UNL     1       1.474  -3.920  -1.478  0.00  0.00    +0.398 N 
ATOM     17  H   UNL     1       0.594  -4.332  -1.750  0.00  0.00    -0.082 HD
ATOM     18  H   UNL     1       1.745  -3.227  -2.160  0.00  0.00    -0.082 HD
BRANCH  16  19
ATOM     19  C   UNL     1       2.503  -4.965  -1.406  0.00  0.00    -0.040 C 
ATOM     20  C   UNL     1       3.842  -4.357  -0.940  0.00  0.00    -0.008 C 
ATOM     21  C   UNL     1       4.912  -5.124  -1.756  0.00  0.00    -0.001 C 
ATOM     22  C   UNL     1       4.235  -5.288  -3.139  0.00  0.00    -0.001 C 
ATOM     23  C   UNL     1       2.753  -5.557  -2.805  0.00  0.00    -0.008 C 
BRANCH  19  24
ATOM     24  C   UNL     1       2.070  -6.052  -0.456  0.00  0.00    -0.058 A 
ATOM     25  C   UNL     1       0.725  -6.311  -0.271  0.00  0.00    +0.004 A 
ATOM     26  C   UNL     1       0.326  -7.307   0.600  0.00  0.00    +0.020 A 
ATOM     27  C   UNL     1       1.274  -8.045   1.287  0.00  0.00    +0.041 A 
ATOM     28  C   UNL     1       2.620  -7.785   1.102  0.00  0.00    +0.020 A 
ATOM     29  C   UNL     1       3.017  -6.792   0.226  0.00  0.00    +0.004 A 
ATOM     30 CL   UNL     1       0.774  -9.296   2.382  0.00  0.00    -0.084 Cl
ENDBRANCH  19  24
ENDBRANCH  16  19
ENDBRANCH   1  16
TORSDOF 7
