REMARK  Name = ZINC32053136
REMARK  7 active torsions:
REMARK  status: ('A' for Active; 'I' for Inactive)
REMARK    1  A    between atoms: C_1  and  C_2
REMARK    2  A    between atoms: N_5  and  C_11
REMARK    3  A    between atoms: C_7  and  C_10
REMARK    4  A    between atoms: C_11  and  C_13
REMARK    5  A    between atoms: C_11  and  C_15
REMARK    6  A    between atoms: C_13  and  N_14
REMARK    7  A    between atoms: C_19  and  N_21
REMARK                            x       y       z     vdW  Elec       q    Type
REMARK                         _______ _______ _______ _____ _____    ______ ____
ROOT
ATOM      1  C   UNL     1      -2.890   1.563  -2.375  0.00  0.00    +0.070 C 
ENDROOT
BRANCH   1   5
ATOM      2  C   UNL     1      -2.443  -1.999   0.991  0.00  0.00    +0.039 C 
ATOM      3  C   UNL     1      -1.946  -0.623   0.543  0.00  0.00    +0.130 C 
ATOM      4  C   UNL     1      -2.678  -0.207  -0.736  0.00  0.00    +0.116 C 
ATOM      5  N   UNL     1      -2.253   1.147  -1.119  0.00  0.00    -0.292 NA
ATOM      6  C   UNL     1      -2.536   2.107  -0.041  0.00  0.00    +0.116 C 
ATOM      7  C   UNL     1      -1.806   1.667   1.230  0.00  0.00    +0.130 C 
ATOM      8  O   UNL     1      -2.208   0.337   1.570  0.00  0.00    -0.371 OA
ATOM      9  C   UNL     1      -2.159   2.616   2.377  0.00  0.00    +0.039 C 
ENDBRANCH   1   5
BRANCH   1  10
ATOM     10  C   UNL     1      -2.012   1.175  -3.537  0.00  0.00    -0.030 A 
ATOM     11  C   UNL     1      -1.424  -0.076  -3.570  0.00  0.00    +0.009 A 
ATOM     12  C   UNL     1      -0.619  -0.434  -4.633  0.00  0.00    +0.053 A 
ATOM     13  C   UNL     1      -0.400   0.463  -5.669  0.00  0.00    +0.209 A 
ATOM     14  C   UNL     1      -0.992   1.717  -5.634  0.00  0.00    +0.173 A 
ATOM     15  C   UNL     1      -1.801   2.069  -4.571  0.00  0.00    +0.041 A 
ATOM     16  O   UNL     1       0.391   0.113  -6.717  0.00  0.00    -0.285 OA
BRANCH  14  17
ATOM     17  N   UNL     1      -0.761   2.676  -6.738  0.00  0.00    +0.060 N 
ATOM     18  O   UNL     1      -1.280   3.777  -6.706  0.00  0.00    -0.126 OA
ATOM     19  O   UNL     1      -0.051   2.364  -7.677  0.00  0.00    -0.126 OA
ENDBRANCH  14  17
ENDBRANCH   1  10
BRANCH   1  20
ATOM     20  C   UNL     1      -4.249   0.874  -2.510  0.00  0.00    -0.063 C 
BRANCH  20  21
ATOM     21  N   UNL     1      -5.087   1.212  -1.353  0.00  0.00    +0.379 N 
ATOM     22  H   UNL     1      -6.064   0.716  -1.450  0.00  0.00    -0.090 HD
ATOM     23  H   UNL     1      -5.232   2.302  -1.311  0.00  0.00    -0.090 HD
ATOM     24  H   UNL     1      -4.594   0.872  -0.431  0.00  0.00    -0.090 HD
ENDBRANCH  20  21
ENDBRANCH   1  20
TORSDOF 5
