REMARK  Name = ZINC39469205
REMARK  5 active torsions:
REMARK  status: ('A' for Active; 'I' for Inactive)
REMARK    1  A    between atoms: C_1  and  C_2
REMARK    2  A    between atoms: C_2  and  O_3
REMARK    3  A    between atoms: O_3  and  C_4
REMARK    4  A    between atoms: C_21  and  O_22
REMARK    5  A    between atoms: O_22  and  C_23
REMARK                            x       y       z     vdW  Elec       q    Type
REMARK                         _______ _______ _______ _____ _____    ______ ____
ROOT
ATOM      1  C   UNL     1       0.802  -1.824   1.306  0.00  0.00    +0.158 C 
ATOM      2  C   UNL     1       0.281  -2.642   0.389  0.00  0.00    +0.026 C 
ATOM      3  C   UNL     1       0.420  -4.137   0.560  0.00  0.00    +0.019 C 
ATOM      4  C   UNL     1      -0.653  -4.620   1.536  0.00  0.00    -0.002 C 
ATOM      5  C   UNL     1      -0.470  -6.111   1.844  0.00  0.00    -0.020 C 
ATOM      6  C   UNL     1      -1.578  -6.507   2.829  0.00  0.00    +0.159 C 
ATOM      7  O   UNL     1      -1.487  -7.914   3.115  0.00  0.00    -0.297 OA
ATOM      8  P   UNL     1      -0.035  -8.503   3.555  0.00  0.00    +0.421 P 
ATOM      9  O   UNL     1       0.033 -10.021   3.277  0.00  0.00    -0.239 OA
ATOM     10  N   UNL     1       1.060  -7.700   2.617  0.00  0.00    -0.267 NA
ATOM     11  N   UNL     1       0.858  -6.351   2.413  0.00  0.00    +0.399 N 
ATOM     12  C   UNL     1       1.904  -5.926   1.469  0.00  0.00    -0.046 C 
ATOM     13  C   UNL     1       1.803  -4.440   1.143  0.00  0.00    +0.008 C 
ATOM     14  C   UNL     1       2.005  -3.634   2.399  0.00  0.00    +0.025 C 
ATOM     15  C   UNL     1       1.503  -2.391   2.478  0.00  0.00    +0.158 C 
ATOM     16  O   UNL     1       0.227  -8.221   5.051  0.00  0.00    -0.128 OA
ATOM     17  H   UNL     1       1.818  -8.161   2.226  0.00  0.00    +0.113 HD
ATOM     18  H   UNL     1       0.949  -5.854   3.286  0.00  0.00    -0.055 HD
ENDROOT
BRANCH  15  19
ATOM     19  O   UNL     1       1.656  -1.653   3.609  0.00  0.00    -0.492 OA
ATOM     20  C   UNL     1       2.344  -2.270   4.698  0.00  0.00    +0.277 C 
ENDBRANCH  15  19
BRANCH   1  21
ATOM     21  O   UNL     1       0.693  -0.477   1.160  0.00  0.00    -0.489 OA
BRANCH  21  23
ATOM     22  C   UNL     1      -0.019   1.526   0.010  0.00  0.00    +0.048 C 
ATOM     23  C   UNL     1       0.002  -0.004   0.002  0.00  0.00    +0.226 C 
ENDBRANCH  21  23
ENDBRANCH   1  21
TORSDOF 3
