REMARK  Name = ZINC13614114
REMARK  9 active torsions:
REMARK  status: ('A' for Active; 'I' for Inactive)
REMARK    1  A    between atoms: C_1  and  C_2
REMARK    2  A    between atoms: C_2  and  C_3
REMARK    3  A    between atoms: N_5  and  C_6
REMARK    4  A    between atoms: C_9  and  N_12
REMARK    5  A    between atoms: C_13  and  C_15
REMARK    6  A    between atoms: C_15  and  C_17
REMARK    7  A    between atoms: C_15  and  O_18
REMARK    8  A    between atoms: O_18  and  C_19
REMARK    9  A    between atoms: C_24  and  N_25
REMARK                            x       y       z     vdW  Elec       q    Type
REMARK                         _______ _______ _______ _____ _____    ______ ____
ROOT
ATOM      1  N   UNL     1      -4.509   3.980   0.957  0.00  0.00    -0.282 N 
ATOM      2  C   UNL     1      -4.520   5.321   1.093  0.00  0.00    +0.258 C 
ATOM      3  O   UNL     1      -3.480   5.943   1.050  0.00  0.00    -0.271 OA
ATOM      4  H   UNL     1      -5.331   3.475   1.058  0.00  0.00    +0.155 HD
ENDROOT
BRANCH   1   8
ATOM      5  C   UNL     1      -0.940   2.001   0.099  0.00  0.00    +0.033 A 
ATOM      6  C   UNL     1      -0.933   3.120   0.922  0.00  0.00    +0.025 A 
ATOM      7  C   UNL     1      -2.114   3.779   1.201  0.00  0.00    +0.025 A 
ATOM      8  C   UNL     1      -3.310   3.315   0.669  0.00  0.00    +0.034 A 
ATOM      9  C   UNL     1      -3.318   2.193  -0.149  0.00  0.00    +0.025 A 
ATOM     10  C   UNL     1      -2.136   1.538  -0.433  0.00  0.00    +0.025 A 
BRANCH   5  13
ATOM     11  C   UNL     1       0.445   0.778  -1.401  0.00  0.00    +0.217 C 
ATOM     12  O   UNL     1      -0.454   0.783  -2.216  0.00  0.00    -0.275 OA
ATOM     13  N   UNL     1       0.259   1.336  -0.189  0.00  0.00    -0.286 N 
ATOM     14  H   UNL     1       0.953   1.274   0.486  0.00  0.00    +0.155 HD
BRANCH  11  16
ATOM     15  C   UNL     1       1.717  -0.407  -3.170  0.00  0.00    +0.013 C 
ATOM     16  C   UNL     1       1.770   0.148  -1.745  0.00  0.00    +0.093 C 
ENDBRANCH  11  16
ENDBRANCH   5  13
ENDBRANCH   1   8
BRANCH   2  17
ATOM     17  C   UNL     1      -5.824   6.047   1.301  0.00  0.00    +0.256 C 
ATOM     18  C   UNL     1      -6.432   5.631   2.642  0.00  0.00    +0.062 C 
BRANCH  17  19
ATOM     19  O   UNL     1      -5.590   7.456   1.300  0.00  0.00    -0.478 OA
BRANCH  19  20
ATOM     20  C   UNL     1      -6.634   8.255   0.954  0.00  0.00    +0.152 A 
ATOM     21  C   UNL     1      -7.886   7.702   0.727  0.00  0.00    +0.048 A 
ATOM     22  C   UNL     1      -8.946   8.516   0.376  0.00  0.00    +0.004 A 
ATOM     23  C   UNL     1      -8.759   9.880   0.252  0.00  0.00    +0.002 A 
ATOM     24  C   UNL     1      -7.513  10.434   0.478  0.00  0.00    +0.036 A 
ATOM     25  C   UNL     1      -6.451   9.624   0.834  0.00  0.00    +0.168 A 
BRANCH  25  26
ATOM     26  N   UNL     1      -5.118  10.218   1.081  0.00  0.00    +0.060 N 
ATOM     27  O   UNL     1      -4.957  11.421   0.975  0.00  0.00    -0.126 OA
ATOM     28  O   UNL     1      -4.181   9.504   1.391  0.00  0.00    -0.126 OA
ENDBRANCH  25  26
ENDBRANCH  19  20
ENDBRANCH  17  19
ENDBRANCH   2  17
TORSDOF 7
