REMARK  Name = ZINC63526525
REMARK  7 active torsions:
REMARK  status: ('A' for Active; 'I' for Inactive)
REMARK    1  A    between atoms: C_1  and  C_2
REMARK    2  A    between atoms: C_2  and  C_22
REMARK    3  A    between atoms: C_4  and  N_10
REMARK    4  A    between atoms: C_6  and  C_8
REMARK    5  A    between atoms: C_6  and  C_9
REMARK    6  A    between atoms: C_11  and  C_13
REMARK    7  A    between atoms: CA_15  and  C_19
REMARK                            x       y       z     vdW  Elec       q    Type
REMARK                         _______ _______ _______ _____ _____    ______ ____
ROOT
ATOM      1  C   UNL     1      -0.019   1.528   0.010  0.00  0.00    -0.010 C 
ATOM      2  C   UNL     1       0.002  -0.004   0.002  0.00  0.00    -0.072 C 
ATOM      3  C   UNL     1       0.573  -0.505  -1.321  0.00  0.00    +0.009 C 
ATOM      4  C   UNL     1       2.088  -0.301  -1.357  0.00  0.00    +0.070 C 
ATOM      5  C   UNL     1       2.703  -1.086  -0.198  0.00  0.00    +0.009 C 
ATOM      6  C   UNL     1       2.147  -0.590   1.133  0.00  0.00    -0.072 C 
ATOM      7  N   UNL     1       0.697  -0.529   1.164  0.00  0.00    +0.386 N 
ATOM      8  C   UNL     1       2.769   0.766   1.481  0.00  0.00    -0.010 C 
ATOM      9  C   UNL     1       2.600  -1.589   2.223  0.00  0.00    -0.010 C 
ATOM     10  C   UNL     1      -1.468  -0.478   0.079  0.00  0.00    -0.010 C 
ATOM     11  H   UNL     1       0.416   0.021   1.982  0.00  0.00    -0.084 HD
ATOM     12  H   UNL     1       0.341  -1.472   1.351  0.00  0.00    -0.084 HD
ENDROOT
BRANCH   4  13
ATOM     13  N   UNL     1       2.615  -0.819  -2.626  0.00  0.00    -0.310 N 
ATOM     14  C   UNL     1       3.770  -0.334  -3.123  0.00  0.00    +0.244 C 
ATOM     15  O   UNL     1       4.374   0.530  -2.523  0.00  0.00    -0.273 OA
ATOM     16  H   UNL     1       2.133  -1.510  -3.106  0.00  0.00    +0.149 HD
BRANCH  14  17
ATOM     17  C   UNL     1       4.312  -0.866  -4.426  0.00  0.00    +0.248 C 
ATOM     18  CA  UNL     1       3.640  -0.185  -5.603  0.00  0.00    +0.164 C 
ATOM     19  N   UNL     1       4.598   0.424  -6.240  0.00  0.00    -0.231 NA
ATOM     20  C   UNL     1       5.796   0.238  -5.649  0.00  0.00    +0.217 C 
ATOM     21  N   UNL     1       5.731  -0.501  -4.587  0.00  0.00    -0.253 NA
BRANCH  18  22
ATOM     22  C   UNL     1       2.202  -0.207  -5.952  0.00  0.00    +0.403 C 
ATOM     23  O   UNL     1       1.803   0.394  -6.939  0.00  0.00    -0.239 OA
ATOM     24  OXT UNL     1       1.413  -0.827  -5.253  0.00  0.00    -0.239 OA
ENDBRANCH  18  22
ENDBRANCH  14  17
ENDBRANCH   4  13
TORSDOF 3
