REMARK  Name = ZINC08963257
REMARK  7 active torsions:
REMARK  status: ('A' for Active; 'I' for Inactive)
REMARK    1  A    between atoms: C_1  and  N_2
REMARK    2  A    between atoms: C_9  and  C_11
REMARK    3  A    between atoms: C_11  and  C_13
REMARK    4  A    between atoms: C_11  and  N_55
REMARK    5  A    between atoms: C_13  and  N_14
REMARK    6  A    between atoms: C_15  and  C_17
REMARK    7  A    between atoms: C_22  and  N_23
REMARK                            x       y       z     vdW  Elec       q    Type
REMARK                         _______ _______ _______ _____ _____    ______ ____
ROOT
ATOM      1  C   UNL     1      -4.471   7.206  -1.542  0.00  0.00    -0.020 C 
ENDROOT
BRANCH   1  10
ATOM      2  C   UNL     1       0.814   4.172   0.622  0.00  0.00    +0.129 C 
ATOM      3  N   UNL     1      -0.165   3.704  -0.367  0.00  0.00    -0.332 N 
ATOM      4  C   UNL     1       0.456   3.562  -1.702  0.00  0.00    +0.109 C 
ATOM      5  C   UNL     1      -0.716   3.874  -2.660  0.00  0.00    +0.056 C 
ATOM      6  C   UNL     1      -1.619   4.750  -1.815  0.00  0.00    -0.025 A 
ATOM      7  C   UNL     1      -1.236   4.603  -0.487  0.00  0.00    +0.033 A 
ATOM      8  C   UNL     1      -1.915   5.319   0.498  0.00  0.00    +0.023 A 
ATOM      9  C   UNL     1      -2.955   6.156   0.153  0.00  0.00    +0.004 A 
ATOM     10  C   UNL     1      -3.332   6.292  -1.171  0.00  0.00    -0.059 A 
ATOM     11  C   UNL     1      -2.660   5.587  -2.154  0.00  0.00    +0.007 A 
ENDBRANCH   1  10
BRANCH   1  16
ATOM     12  C   UNL     1      -3.107   9.134  -0.946  0.00  0.00    -0.078 C 
ATOM     13  C   UNL     1      -3.409  10.579  -0.478  0.00  0.00    -0.020 C 
ATOM     14  C   UNL     1      -4.860  10.804  -0.963  0.00  0.00    -0.020 C 
ATOM     15  C   UNL     1      -5.450   9.391  -1.132  0.00  0.00    -0.078 C 
ATOM     16  N   UNL     1      -4.397   8.458  -0.730  0.00  0.00    +0.385 N 
ATOM     17  H   UNL     1      -4.503   8.222   0.263  0.00  0.00    -0.081 HD
ENDBRANCH   1  16
BRANCH   1  18
ATOM     18  C   UNL     1      -5.801   6.498  -1.277  0.00  0.00    +0.094 C 
BRANCH  18  19
ATOM     19  N   UNL     1      -5.912   5.326  -2.149  0.00  0.00    -0.313 N 
ATOM     20  C   UNL     1      -7.038   4.586  -2.143  0.00  0.00    +0.246 C 
ATOM     21  O   UNL     1      -7.963   4.892  -1.415  0.00  0.00    -0.270 OA
ATOM     22  H   UNL     1      -5.174   5.082  -2.730  0.00  0.00    +0.149 HD
BRANCH  20  23
ATOM     23  C   UNL     1      -7.151   3.404  -3.023  0.00  0.00    +0.068 A 
ATOM     24  C   UNL     1      -6.915   3.525  -4.394  0.00  0.00    +0.035 A 
ATOM     25  C   UNL     1      -7.021   2.416  -5.210  0.00  0.00    +0.042 A 
ATOM     26  C   UNL     1      -7.360   1.186  -4.670  0.00  0.00    +0.022 A 
ATOM     27  C   UNL     1      -7.595   1.061  -3.313  0.00  0.00    +0.035 A 
ATOM     28  C   UNL     1      -7.487   2.160  -2.486  0.00  0.00    +0.138 A 
ATOM     29 CL   UNL     1      -6.728   2.563  -6.914  0.00  0.00    -0.084 Cl
BRANCH  28  30
ATOM     30  N   UNL     1      -7.733   2.022  -1.033  0.00  0.00    +0.057 N 
ATOM     31  O   UNL     1      -8.150   0.970  -0.583  0.00  0.00    -0.126 OA
ATOM     32  O   UNL     1      -7.519   2.961  -0.287  0.00  0.00    -0.126 OA
ENDBRANCH  28  30
ENDBRANCH  20  23
ENDBRANCH  18  19
ENDBRANCH   1  18
TORSDOF 6
