REMARK  Name = ZINC00719855
REMARK  6 active torsions:
REMARK  status: ('A' for Active; 'I' for Inactive)
REMARK    1  A    between atoms: C_1  and  O_2
REMARK    2  A    between atoms: O_2  and  C_3
REMARK    3  A    between atoms: C_7  and  C_9
REMARK    4  A    between atoms: C_10  and  C_27
REMARK    5  A    between atoms: C_10  and  C_31
REMARK    6  A    between atoms: N_18  and  C_21
REMARK                            x       y       z     vdW  Elec       q    Type
REMARK                         _______ _______ _______ _____ _____    ______ ____
ROOT
ATOM      1  C   UNL     1      -0.528   6.292  -1.943  0.00  0.00    +0.106 C 
ATOM      2  C   UNL     1       0.380   8.284  -0.912  0.00  0.00    +0.264 C 
ATOM      3  C   UNL     1      -0.583   8.007   0.206  0.00  0.00    +0.098 A 
ATOM      4  C   UNL     1      -0.520   8.749   1.398  0.00  0.00    +0.262 A 
ATOM      5  O   UNL     1       0.324   9.617   1.537  0.00  0.00    -0.267 OA
ATOM      6  N   UNL     1      -1.401   8.493   2.386  0.00  0.00    -0.274 N 
ATOM      7  H   UNL     1      -1.358   9.019   3.235  0.00  0.00    +0.173 HD
ATOM      8  C   UNL     1      -2.336   7.537   2.241  0.00  0.00    +0.335 A 
ATOM      9  O   UNL     1      -3.121   7.325   3.145  0.00  0.00    -0.246 OA
ATOM     10  N   UNL     1      -2.415   6.810   1.110  0.00  0.00    -0.250 N 
ATOM     11  C   UNL     1      -1.534   7.038   0.080  0.00  0.00    +0.124 A 
ATOM     12  N   UNL     1      -1.603   6.298  -1.076  0.00  0.00    -0.286 N 
ATOM     13  H   UNL     1      -2.400   5.785  -1.282  0.00  0.00    +0.155 HD
ATOM     14  N   UNL     1       0.468   7.185  -1.937  0.00  0.00    -0.348 N 
ATOM     15  H   UNL     1       1.252   7.123  -2.597  0.00  0.00    +0.162 HD
ENDROOT
BRANCH   1  20
ATOM     16  C   UNL     1       0.732   4.205  -4.807  0.00  0.00    +0.121 A 
ATOM     17  C   UNL     1      -0.254   3.231  -4.883  0.00  0.00    +0.045 A 
ATOM     18  C   UNL     1      -1.326   3.256  -4.010  0.00  0.00    +0.004 A 
ATOM     19  C   UNL     1      -1.416   4.245  -3.050  0.00  0.00    +0.011 A 
ATOM     20  C   UNL     1      -0.431   5.228  -2.967  0.00  0.00    +0.016 A 
ATOM     21  C   UNL     1       0.647   5.204  -3.851  0.00  0.00    +0.057 A 
BRANCH  16  23
ATOM     22  C   UNL     1       1.805   3.121  -6.630  0.00  0.00    +0.277 C 
ATOM     23  O   UNL     1       1.781   4.179  -5.671  0.00  0.00    -0.495 OA
ENDBRANCH  16  23
ENDBRANCH   1  20
BRANCH  10  24
ATOM     24  C   UNL     1      -3.397   5.819   0.983  0.00  0.00    +0.053 A 
ATOM     25  C   UNL     1      -3.124   4.514   1.370  0.00  0.00    +0.026 A 
ATOM     26  C   UNL     1      -4.096   3.542   1.250  0.00  0.00    +0.002 A 
ATOM     27  C   UNL     1      -5.338   3.863   0.733  0.00  0.00    +0.000 A 
ATOM     28  C   UNL     1      -5.612   5.161   0.341  0.00  0.00    +0.002 A 
ATOM     29  C   UNL     1      -4.645   6.140   0.465  0.00  0.00    +0.026 A 
ENDBRANCH  10  24
BRANCH   2  30
ATOM     30  C   UNL     1      -0.032   9.577  -1.620  0.00  0.00    +0.426 C 
ATOM     31  F   UNL     1      -0.010  10.636  -0.706  0.00  0.00    -0.167 F 
ATOM     32  F   UNL     1       0.861   9.842  -2.663  0.00  0.00    -0.167 F 
ATOM     33  F   UNL     1      -1.324   9.434  -2.137  0.00  0.00    -0.167 F 
ENDBRANCH   2  30
BRANCH   2  34
ATOM     34  C   UNL     1       1.785   8.457  -0.332  0.00  0.00    +0.426 C 
ATOM     35  F   UNL     1       2.024   7.458   0.617  0.00  0.00    -0.167 F 
ATOM     36  F   UNL     1       2.729   8.360  -1.359  0.00  0.00    -0.167 F 
ATOM     37  F   UNL     1       1.887   9.713   0.277  0.00  0.00    -0.167 F 
ENDBRANCH   2  34
TORSDOF 5
