REMARK  Name = ZINC00656870
REMARK  8 active torsions:
REMARK  status: ('A' for Active; 'I' for Inactive)
REMARK    1  A    between atoms: C_1  and  C_2
REMARK    2  A    between atoms: C_3  and  C_12
REMARK    3  A    between atoms: N_14  and  N_15
REMARK    4  A    between atoms: C_16  and  C_17
REMARK    5  A    between atoms: C_20  and  O_25
REMARK    6  A    between atoms: C_22  and  O_23
REMARK    7  A    between atoms: O_23  and  C_24
REMARK    8  A    between atoms: O_25  and  C_26
REMARK                            x       y       z     vdW  Elec       q    Type
REMARK                         _______ _______ _______ _____ _____    ______ ____
ROOT
ATOM      1  C   UNL     1       1.083   3.994   4.146  0.00  0.00    +0.282 C 
ATOM      2  O   UNL     1       1.731   3.578   3.202  0.00  0.00    -0.267 OA
ATOM      3  N   UNL     1      -0.193   3.594   4.317  0.00  0.00    -0.202 N 
ATOM      4  H   UNL     1      -0.685   3.865   5.107  0.00  0.00    +0.178 HD
ENDROOT
BRANCH   1   7
ATOM      5  C   UNL     1       2.948   3.196   6.515  0.00  0.00    +0.068 C 
ATOM      6  C   UNL     1       2.502   4.582   6.127  0.00  0.00    +0.069 A 
ATOM      7  C   UNL     1       1.670   4.900   5.065  0.00  0.00    +0.133 A 
ATOM      8  N   UNL     1       1.522   6.275   5.082  0.00  0.00    -0.294 N 
ATOM      9  C   UNL     1       0.823   7.132   4.291  0.00  0.00    +0.108 A 
ATOM     10  C   UNL     1       0.846   8.464   4.528  0.00  0.00    +0.035 A 
ATOM     11  C   UNL     1       1.594   8.975   5.598  0.00  0.00    +0.020 A 
ATOM     12  C   UNL     1       2.297   8.122   6.396  0.00  0.00    +0.048 A 
ATOM     13  C   UNL     1       2.260   6.741   6.133  0.00  0.00    +0.138 A 
ATOM     14  N   UNL     1       2.840   5.706   6.738  0.00  0.00    -0.232 NA
ATOM     15 BR   UNL     1      -0.133   9.638   3.415  0.00  0.00    -0.049 Br
ENDBRANCH   1   7
BRANCH   3  16
ATOM     16  N   UNL     1      -0.809   2.786   3.352  0.00  0.00    -0.187 NA
ATOM     17  C   UNL     1      -2.038   2.400   3.516  0.00  0.00    +0.142 C 
BRANCH  17  18
ATOM     18  C   UNL     1      -2.685   1.550   2.502  0.00  0.00    +0.036 A 
ATOM     19  C   UNL     1      -4.007   1.133   2.676  0.00  0.00    +0.016 A 
ATOM     20  C   UNL     1      -4.609   0.338   1.725  0.00  0.00    +0.046 A 
ATOM     21  C   UNL     1      -3.905  -0.051   0.592  0.00  0.00    +0.124 A 
ATOM     22  C   UNL     1      -2.593   0.362   0.407  0.00  0.00    +0.091 A 
ATOM     23  C   UNL     1      -1.976   1.156   1.358  0.00  0.00    +0.132 A 
BRANCH  23  24
ATOM     24  O   UNL     1      -0.691   1.557   1.181  0.00  0.00    -0.494 OA
ATOM     25  C   UNL     1      -0.032   1.117  -0.009  0.00  0.00    +0.277 C 
ENDBRANCH  23  24
BRANCH  21  26
ATOM     26  O   UNL     1      -4.505  -0.834  -0.342  0.00  0.00    -0.495 OA
ATOM     27  C   UNL     1      -5.858  -1.219  -0.092  0.00  0.00    +0.277 C 
ENDBRANCH  21  26
ENDBRANCH  17  18
ENDBRANCH   3  16
TORSDOF 5
