REMARK  Name = ZINC58758991
REMARK  7 active torsions:
REMARK  status: ('A' for Active; 'I' for Inactive)
REMARK    1  A    between atoms: C_1  and  C_2
REMARK    2  A    between atoms: C_9  and  N_18
REMARK    3  A    between atoms: C_10  and  C_11
REMARK    4  A    between atoms: C_11  and  C_13
REMARK    5  A    between atoms: C_19  and  C_21
REMARK    6  A    between atoms: C_21  and  C_22
REMARK    7  A    between atoms: C_25  and  N_28
REMARK                            x       y       z     vdW  Elec       q    Type
REMARK                         _______ _______ _______ _____ _____    ______ ____
ROOT
ATOM      1  C   UNL     1       0.233   1.627   0.202  0.00  0.00    +0.008 C 
ATOM      2  C   UNL     1       0.188   0.099   0.129  0.00  0.00    -0.009 C 
ATOM      3  C   UNL     1       0.903  -0.375  -1.140  0.00  0.00    +0.008 C 
ATOM      4  C   UNL     1       0.653  -1.870  -1.351  0.00  0.00    +0.037 C 
ATOM      5  C   UNL     1       1.007  -2.609  -0.068  0.00  0.00    -0.024 A 
ATOM      6  C   UNL     1       1.107  -1.959   1.111  0.00  0.00    -0.004 A 
ATOM      7  S   UNL     1       1.529  -3.216   2.282  0.00  0.00    -0.077 S 
ATOM      8  C   UNL     1       1.573  -4.552   1.265  0.00  0.00    +0.083 A 
ATOM      9  C   UNL     1       1.263  -4.036   0.016  0.00  0.00    +0.057 A 
ATOM     10  C   UNL     1       0.898  -0.496   1.354  0.00  0.00    +0.046 C 
ENDROOT
BRANCH   8  11
ATOM     11  N   UNL     1       1.856  -5.867   1.598  0.00  0.00    -0.279 N 
ATOM     12  C   UNL     1       2.247  -6.177   2.850  0.00  0.00    +0.222 C 
ATOM     13  O   UNL     1       2.352  -5.304   3.686  0.00  0.00    -0.275 OA
ATOM     14  H   UNL     1       1.772  -6.566   0.930  0.00  0.00    +0.155 HD
BRANCH  12  15
ATOM     15  C   UNL     1       2.554  -7.607   3.212  0.00  0.00    +0.131 C 
BRANCH  15  16
ATOM     16  C   UNL     1       2.965  -7.681   4.660  0.00  0.00    -0.038 A 
ATOM     17  C   UNL     1       4.297  -7.544   5.007  0.00  0.00    +0.006 A 
ATOM     18  C   UNL     1       4.677  -7.612   6.333  0.00  0.00    +0.028 A 
ATOM     19  C   UNL     1       3.720  -7.817   7.319  0.00  0.00    +0.069 A 
ATOM     20  C   UNL     1       2.385  -7.955   6.967  0.00  0.00    +0.028 A 
ATOM     21  C   UNL     1       2.010  -7.881   5.640  0.00  0.00    +0.006 A 
BRANCH  19  22
ATOM     22  N   UNL     1       4.103  -7.887   8.666  0.00  0.00    -0.200 N 
ATOM     23  C   UNL     1       3.304  -8.086   9.737  0.00  0.00    +0.250 A 
ATOM     24  N   UNL     1       4.068  -8.080  10.798  0.00  0.00    -0.116 NA
ATOM     25  N   UNL     1       5.295  -7.891  10.471  0.00  0.00    -0.023 NA
ATOM     26  N   UNL     1       5.402  -7.770   9.192  0.00  0.00    -0.039 NA
ENDBRANCH  19  22
ENDBRANCH  15  16
ENDBRANCH  12  15
ENDBRANCH   8  11
BRANCH   9  27
ATOM     27  C   UNL     1       1.196  -4.896  -1.171  0.00  0.00    +0.230 C 
ATOM     28  O   UNL     1       2.210  -5.151  -1.797  0.00  0.00    -0.283 OA
BRANCH  27  29
ATOM     29  C   UNL     1      -0.093  -5.449  -1.605  0.00  0.00    +0.175 A 
ATOM     30  C   UNL     1      -0.283  -6.336  -2.626  0.00  0.00    +0.053 A 
ATOM     31  C   UNL     1      -1.662  -6.591  -2.688  0.00  0.00    +0.042 A 
ATOM     32  C   UNL     1      -2.246  -5.857  -1.715  0.00  0.00    +0.196 A 
ATOM     33  O   UNL     1      -1.296  -5.174  -1.061  0.00  0.00    -0.460 OA
ENDBRANCH  27  29
ENDBRANCH   9  27
TORSDOF 6
