REMARK  Name = ZINC64605330
REMARK  10 active torsions:
REMARK  status: ('A' for Active; 'I' for Inactive)
REMARK    1  A    between atoms: C_1  and  C_2
REMARK    2  A    between atoms: C_5  and  C_8
REMARK    3  A    between atoms: C_10  and  N_26
REMARK    4  A    between atoms: N_13  and  C_15
REMARK    5  A    between atoms: C_15  and  C_16
REMARK    6  A    between atoms: N_18  and  C_19
REMARK    7  A    between atoms: C_24  and  C_25
REMARK    8  A    between atoms: C_27  and  C_29
REMARK    9  A    between atoms: C_29  and  C_30
REMARK   10  A    between atoms: C_29  and  C_31
REMARK                            x       y       z     vdW  Elec       q    Type
REMARK                         _______ _______ _______ _____ _____    ______ ____
ROOT
ATOM      1  C   UNL     1       0.483  -4.129   0.147  0.00  0.00    +0.093 A 
ATOM      2  C   UNL     1       0.529  -4.848   1.359  0.00  0.00    +0.059 A 
ATOM      3  C   UNL     1       0.300  -6.194   1.354  0.00  0.00    +0.102 A 
ATOM      4  C   UNL     1       0.020  -6.843   0.126  0.00  0.00    +0.289 A 
ATOM      5  O   UNL     1      -0.188  -8.046   0.100  0.00  0.00    -0.264 OA
ATOM      6  N   UNL     1      -0.015  -6.123  -1.013  0.00  0.00    -0.218 N 
ATOM      7  N   UNL     1       0.217  -4.743  -0.984  0.00  0.00    -0.168 NA
ENDROOT
BRANCH   1  12
ATOM      8  C   UNL     1       1.446   1.549   0.156  0.00  0.00    +0.044 C 
ATOM      9  C   UNL     1       1.194   0.064   0.154  0.00  0.00    -0.050 A 
ATOM     10  C   UNL     1       0.913  -0.586  -1.035  0.00  0.00    +0.004 A 
ATOM     11  C   UNL     1       0.682  -1.946  -1.043  0.00  0.00    +0.010 A 
ATOM     12  C   UNL     1       0.731  -2.666   0.149  0.00  0.00    +0.002 A 
ATOM     13  C   UNL     1       1.014  -2.007   1.344  0.00  0.00    +0.010 A 
ATOM     14  C   UNL     1       1.249  -0.647   1.340  0.00  0.00    +0.004 A 
ENDBRANCH   1  12
BRANCH   3  15
ATOM     15  N   UNL     1       0.343  -6.922   2.546  0.00  0.00    -0.281 N 
ATOM     16  C   UNL     1       1.210  -7.945   2.680  0.00  0.00    +0.220 C 
ATOM     17  O   UNL     1       1.893  -8.289   1.738  0.00  0.00    -0.275 OA
ATOM     18  H   UNL     1      -0.253  -6.692   3.276  0.00  0.00    +0.155 HD
BRANCH  16  19
ATOM     19  C   UNL     1       1.332  -8.661   4.000  0.00  0.00    +0.069 C 
ATOM     20  C   UNL     1       2.378  -9.772   3.884  0.00  0.00    +0.017 C 
ATOM     21  C   UNL     1       1.761  -7.668   5.082  0.00  0.00    +0.017 C 
ENDBRANCH  16  19
ENDBRANCH   3  15
BRANCH   6  22
ATOM     22  C   UNL     1      -0.304  -6.787  -2.287  0.00  0.00    +0.243 C 
BRANCH  22  23
ATOM     23  C   UNL     1      -1.792  -6.779  -2.531  0.00  0.00    +0.239 C 
ATOM     24  O   UNL     1      -2.537  -6.269  -1.721  0.00  0.00    -0.273 OA
ATOM     25  N   UNL     1      -2.294  -7.339  -3.650  0.00  0.00    -0.284 N 
ATOM     26  H   UNL     1      -1.706  -7.804  -4.265  0.00  0.00    +0.155 HD
BRANCH  25  27
ATOM     27  C   UNL     1      -3.663  -7.248  -3.923  0.00  0.00    +0.036 A 
ATOM     28  C   UNL     1      -4.574  -7.123  -2.882  0.00  0.00    +0.023 A 
ATOM     29  C   UNL     1      -5.924  -7.034  -3.156  0.00  0.00    +0.002 A 
ATOM     30  C   UNL     1      -6.370  -7.070  -4.465  0.00  0.00    +0.000 A 
ATOM     31  C   UNL     1      -5.466  -7.196  -5.503  0.00  0.00    +0.005 A 
ATOM     32  C   UNL     1      -4.113  -7.278  -5.236  0.00  0.00    -0.029 A 
ATOM     33  C   UNL     1      -3.128  -7.408  -6.369  0.00  0.00    +0.045 C 
ENDBRANCH  25  27
ENDBRANCH  22  23
ENDBRANCH   6  22
TORSDOF 6
