REMARK  Name = ZINC36058902
REMARK  14 active torsions:
REMARK  status: ('A' for Active; 'I' for Inactive)
REMARK    1  A    between atoms: C_1  and  C_2
REMARK    2  A    between atoms: C_2  and  O_3
REMARK    3  A    between atoms: O_3  and  C_4
REMARK    4  A    between atoms: C_4  and  C_6
REMARK    5  A    between atoms: C_7  and  C_34
REMARK    6  A    between atoms: C_11  and  C_13
REMARK    7  A    between atoms: C_16  and  O_21
REMARK    8  A    between atoms: C_17  and  O_19
REMARK    9  A    between atoms: O_19  and  C_20
REMARK   10  A    between atoms: O_21  and  C_22
REMARK   11  A    between atoms: C_23  and  C_26
REMARK   12  A    between atoms: C_27  and  N_29
REMARK   13  A    between atoms: N_29  and  C_30
REMARK   14  A    between atoms: C_30  and  C_31
REMARK                            x       y       z     vdW  Elec       q    Type
REMARK                         _______ _______ _______ _____ _____    ______ ____
ROOT
ATOM      1  C   UNL     1       0.398  -1.695  -2.133  0.00  0.00    +0.082 C 
ATOM      2  C   UNL     1       0.786  -3.020  -2.086  0.00  0.00    +0.053 C 
ATOM      3  N   UNL     1       1.601  -3.514  -3.004  0.00  0.00    -0.230 NA
ATOM      4  C   UNL     1       2.102  -2.828  -4.010  0.00  0.00    +0.166 C 
ATOM      5  N   UNL     1       1.843  -1.505  -4.236  0.00  0.00    -0.267 N 
ATOM      6  C   UNL     1       0.930  -0.845  -3.265  0.00  0.00    +0.150 C 
ATOM      7  C   UNL     1       2.446  -0.926  -5.336  0.00  0.00    +0.048 C 
ATOM      8  C   UNL     1       3.240  -1.709  -6.099  0.00  0.00    +0.072 C 
ATOM      9  S   UNL     1       3.136  -3.275  -5.255  0.00  0.00    -0.060 S 
ATOM     10  C   UNL     1       0.278  -3.910  -0.981  0.00  0.00    +0.066 C 
ENDROOT
BRANCH   6  11
ATOM     11  C   UNL     1      -0.248  -0.297  -4.028  0.00  0.00    -0.018 A 
ATOM     12  C   UNL     1      -0.597   1.034  -3.896  0.00  0.00    +0.009 A 
ATOM     13  C   UNL     1      -1.678   1.542  -4.593  0.00  0.00    +0.050 A 
ATOM     14  C   UNL     1      -2.413   0.715  -5.427  0.00  0.00    +0.162 A 
ATOM     15  C   UNL     1      -2.062  -0.625  -5.561  0.00  0.00    +0.162 A 
ATOM     16  C   UNL     1      -0.975  -1.125  -4.862  0.00  0.00    +0.055 A 
BRANCH  15  17
ATOM     17  O   UNL     1      -2.781  -1.439  -6.378  0.00  0.00    -0.491 OA
ATOM     18  C   UNL     1      -2.430  -2.825  -6.385  0.00  0.00    +0.277 C 
ENDBRANCH  15  17
BRANCH  14  19
ATOM     19  O   UNL     1      -3.477   1.213  -6.114  0.00  0.00    -0.491 OA
ATOM     20  C   UNL     1      -3.780   2.597  -5.928  0.00  0.00    +0.277 C 
ENDBRANCH  14  19
ENDBRANCH   6  11
BRANCH   7  21
ATOM     21  C   UNL     1       2.230   0.490  -5.665  0.00  0.00    +0.091 C 
ATOM     22  C   UNL     1       2.695   0.990  -6.826  0.00  0.00    +0.239 C 
ATOM     23  O   UNL     1       3.233   0.161  -7.753  0.00  0.00    -0.271 OA
BRANCH  22  24
ATOM     24  N   UNL     1       2.624   2.351  -7.071  0.00  0.00    -0.312 N 
ATOM     25  H   UNL     1       2.307   2.952  -6.380  0.00  0.00    +0.149 HD
BRANCH  24  26
ATOM     26  C   UNL     1       3.027   2.882  -8.376  0.00  0.00    +0.108 C 
BRANCH  26  27
ATOM     27  C   UNL     1       2.736   4.383  -8.427  0.00  0.00    +0.006 C 
ATOM     28  C   UNL     1       1.668   4.862  -9.412  0.00  0.00    +0.005 C 
ATOM     29  C   UNL     1       3.147   5.139  -9.693  0.00  0.00    +0.005 C 
ENDBRANCH  26  27
ENDBRANCH  24  26
ENDBRANCH  22  24
ENDBRANCH   7  21
BRANCH   1  30
ATOM     30  C   UNL     1      -0.464  -1.158  -1.169  0.00  0.00    +0.339 C 
ATOM     31  O   UNL     1      -0.985  -1.888  -0.344  0.00  0.00    -0.245 OA
BRANCH  30  32
ATOM     32  O   UNL     1      -0.717   0.169  -1.153  0.00  0.00    -0.462 OA
BRANCH  32  34
ATOM     33  C   UNL     1      -1.795   2.153  -0.290  0.00  0.00    +0.048 C 
ATOM     34  C   UNL     1      -1.514   0.664  -0.075  0.00  0.00    +0.229 C 
ENDBRANCH  32  34
ENDBRANCH  30  32
ENDBRANCH   1  30
TORSDOF 10
