REMARK  Name = ZINC39990096
REMARK  11 active torsions:
REMARK  status: ('A' for Active; 'I' for Inactive)
REMARK    1  A    between atoms: C_1  and  C_2
REMARK    2  A    between atoms: C_2  and  C_3
REMARK    3  A    between atoms: C_3  and  N_4
REMARK    4  A    between atoms: C_5  and  N_30
REMARK    5  A    between atoms: C_6  and  C_14
REMARK    6  A    between atoms: C_7  and  C_13
REMARK    7  A    between atoms: C_8  and  C_11
REMARK    8  A    between atoms: N_18  and  C_22
REMARK    9  A    between atoms: C_22  and  C_23
REMARK   10  A    between atoms: C_26  and  C_29
REMARK   11  A    between atoms: C_34  and  C_37
REMARK                            x       y       z     vdW  Elec       q    Type
REMARK                         _______ _______ _______ _____ _____    ______ ____
ROOT
ATOM      1  N   UNL     1       1.007  -2.188   0.897  0.00  0.00    -0.295 N 
ATOM      2  C   UNL     1      -0.012  -2.749   1.598  0.00  0.00    +0.112 A 
ATOM      3  C   UNL     1       0.073  -4.080   2.037  0.00  0.00    +0.019 A 
ATOM      4  C   UNL     1       1.223  -4.833   1.744  0.00  0.00    -0.017 A 
ATOM      5  C   UNL     1       2.253  -4.235   1.023  0.00  0.00    +0.120 A 
ATOM      6  C   UNL     1       2.115  -2.889   0.599  0.00  0.00    +0.270 A 
ATOM      7  O   UNL     1       3.011  -2.361  -0.037  0.00  0.00    -0.266 OA
ATOM      8  C   UNL     1       1.340  -6.263   2.203  0.00  0.00    +0.046 C 
ENDROOT
BRANCH   3   9
ATOM      9  C   UNL     1      -1.028  -4.679   2.794  0.00  0.00    +0.032 C 
ATOM     10  C   UNL     1      -1.735  -5.714   2.263  0.00  0.00    +0.077 C 
ATOM     11  C   UNL     1      -2.800  -6.474   2.835  0.00  0.00    +0.259 C 
ATOM     12  O   UNL     1      -3.207  -6.238   3.959  0.00  0.00    -0.269 OA
ATOM     13  N   UNL     1      -3.332  -7.441   2.108  0.00  0.00    -0.251 N 
ATOM     14  C   UNL     1      -2.880  -7.703   0.861  0.00  0.00    +0.121 C 
ATOM     15  S   UNL     1      -3.415  -8.895  -0.245  0.00  0.00    -0.027 S 
ATOM     16  S   UNL     1      -1.589  -6.486   0.658  0.00  0.00    -0.061 S 
BRANCH  13  17
ATOM     17  C   UNL     1      -4.426  -8.242   2.662  0.00  0.00    +0.150 C 
BRANCH  17  18
ATOM     18  C   UNL     1      -5.744  -7.598   2.318  0.00  0.00    -0.030 A 
ATOM     19  C   UNL     1      -6.299  -6.661   3.171  0.00  0.00    +0.005 A 
ATOM     20  C   UNL     1      -7.508  -6.070   2.855  0.00  0.00    +0.003 A 
ATOM     21  C   UNL     1      -8.162  -6.415   1.687  0.00  0.00    -0.050 A 
ATOM     22  C   UNL     1      -7.607  -7.350   0.834  0.00  0.00    +0.003 A 
ATOM     23  C   UNL     1      -6.396  -7.938   1.148  0.00  0.00    +0.005 A 
ATOM     24  C   UNL     1      -9.481  -5.771   1.344  0.00  0.00    +0.044 C 
ENDBRANCH  17  18
ENDBRANCH  13  17
ENDBRANCH   3   9
BRANCH   2  25
ATOM     25  N   UNL     1      -1.125  -2.013   1.880  0.00  0.00    -0.316 N 
ATOM     26  C   UNL     1      -2.296  -2.057   0.992  0.00  0.00    +0.106 C 
ATOM     27  C   UNL     1      -3.533  -2.409   1.824  0.00  0.00    +0.019 C 
ATOM     28  C   UNL     1      -3.661  -1.420   2.984  0.00  0.00    +0.006 C 
ATOM     29  C   UNL     1      -2.428  -1.524   3.885  0.00  0.00    +0.003 C 
ATOM     30  C   UNL     1      -1.180  -1.166   3.079  0.00  0.00    +0.109 C 
ATOM     31  C   UNL     1      -2.572  -0.558   5.062  0.00  0.00    +0.009 C 
ENDBRANCH   2  25
BRANCH   5  32
ATOM     32  C   UNL     1       3.438  -4.974   0.708  0.00  0.00    +0.105 C 
ATOM     33  N   UNL     1       4.378  -5.560   0.459  0.00  0.00    -0.191 NA
ENDBRANCH   5  32
BRANCH   1  34
ATOM     34  C   UNL     1       0.893  -0.797   0.451  0.00  0.00    +0.126 C 
BRANCH  34  36
ATOM     35  C   UNL     1       0.249   0.690  -1.451  0.00  0.00    +0.005 C 
ATOM     36  C   UNL     1       0.367  -0.763  -0.985  0.00  0.00    +0.018 C 
ENDBRANCH  34  36
ENDBRANCH   1  34
TORSDOF 7
