REMARK  Name = ZINC10669369
REMARK  3 active torsions:
REMARK  status: ('A' for Active; 'I' for Inactive)
REMARK    1  A    between atoms: C_3  and  N_6
REMARK    2  A    between atoms: N_9  and  C_12
REMARK    3  A    between atoms: C_12  and  C_13
REMARK                            x       y       z     vdW  Elec       q    Type
REMARK                         _______ _______ _______ _____ _____    ______ ____
ROOT
ATOM      1  C   UNL     1      -1.781   5.065   1.467  0.00  0.00    +0.240 C 
ATOM      2  O   UNL     1      -1.324   4.412   2.381  0.00  0.00    -0.273 OA
ATOM      3  N   UNL     1      -2.532   6.153   1.726  0.00  0.00    -0.263 N 
ATOM      4  C   UNL     1      -2.783   6.526   3.037  0.00  0.00    +0.165 A 
ATOM      5  N   UNL     1      -3.483   7.542   3.485  0.00  0.00    -0.225 NA
ATOM      6  C   UNL     1      -3.646   7.787   4.803  0.00  0.00    +0.080 A 
ATOM      7  C   UNL     1      -4.370   8.838   5.413  0.00  0.00    +0.030 A 
ATOM      8  C   UNL     1      -4.436   8.943   6.777  0.00  0.00    +0.022 A 
ATOM      9  C   UNL     1      -3.800   8.029   7.607  0.00  0.00    +0.042 A 
ATOM     10  C   UNL     1      -3.083   6.988   7.044  0.00  0.00    +0.037 A 
ATOM     11  C   UNL     1      -3.012   6.876   5.678  0.00  0.00    +0.042 A 
ATOM     12  S   UNL     1      -2.241   5.741   4.549  0.00  0.00    -0.052 S 
ATOM     13 CL   UNL     1      -3.904   8.191   9.332  0.00  0.00    -0.084 Cl
ATOM     14  H   UNL     1      -2.897   6.676   0.995  0.00  0.00    +0.157 HD
ENDROOT
BRANCH   1  15
ATOM     15  C   UNL     1      -1.508   4.660   0.042  0.00  0.00    +0.246 C 
BRANCH  15  19
ATOM     16  N   UNL     1      -0.017   1.395   0.010  0.00  0.00    -0.154 N 
ATOM     17  C   UNL     1      -1.117   2.179   0.018  0.00  0.00    +0.370 A 
ATOM     18  O   UNL     1      -2.277   1.808   0.021  0.00  0.00    -0.243 OA
ATOM     19  N   UNL     1      -0.675   3.455   0.027  0.00  0.00    -0.184 N 
ATOM     20  N   UNL     1       0.725   3.416   0.013  0.00  0.00    -0.042 NA
ATOM     21  N   UNL     1       1.101   2.238   0.004  0.00  0.00    -0.037 NA
BRANCH  16  24
ATOM     22  C   UNL     1       0.845  -2.211  -0.018  0.00  0.00    +0.010 A 
ATOM     23  C   UNL     1       1.072  -0.848  -0.012  0.00  0.00    +0.036 A 
ATOM     24  C   UNL     1       0.002  -0.004   0.002  0.00  0.00    +0.110 A 
ATOM     25  S   UNL     1      -1.369  -1.147   0.016  0.00  0.00    -0.077 S 
ATOM     26  C   UNL     1      -0.432  -2.667  -0.008  0.00  0.00    +0.047 A 
ENDBRANCH  16  24
ENDBRANCH  15  19
ENDBRANCH   1  15
TORSDOF 3
