REMARK  Name = ZINC33248661
REMARK  5 active torsions:
REMARK  status: ('A' for Active; 'I' for Inactive)
REMARK    1  A    between atoms: C_1  and  C_2
REMARK    2  A    between atoms: C_2  and  N_3
REMARK    3  A    between atoms: C_7  and  C_8
REMARK    4  A    between atoms: C_9  and  N_19
REMARK    5  A    between atoms: N_22  and  C_25
REMARK                            x       y       z     vdW  Elec       q    Type
REMARK                         _______ _______ _______ _____ _____    ______ ____
ROOT
ATOM      1  C   UNL     1      -0.849   3.252  -1.107  0.00  0.00    +0.081 A 
ATOM      2  C   UNL     1      -0.074   2.068  -1.125  0.00  0.00    +0.136 A 
ATOM      3  N   UNL     1      -0.268   1.174  -2.084  0.00  0.00    -0.214 NA
ATOM      4  C   UNL     1      -1.176   1.362  -3.042  0.00  0.00    +0.142 A 
ATOM      5  C   UNL     1      -1.338   0.378  -4.034  0.00  0.00    +0.047 A 
ATOM      6  C   UNL     1      -2.263   0.562  -5.018  0.00  0.00    +0.005 A 
ATOM      7  C   UNL     1      -3.040   1.728  -5.028  0.00  0.00    +0.018 A 
ATOM      8  C   UNL     1      -2.872   2.663  -4.066  0.00  0.00    +0.096 A 
ATOM      9  N   UNL     1      -1.949   2.489  -3.078  0.00  0.00    -0.268 N 
ATOM     10  C   UNL     1      -1.806   3.443  -2.133  0.00  0.00    +0.267 A 
ATOM     11  O   UNL     1      -2.493   4.450  -2.159  0.00  0.00    -0.267 OA
ENDROOT
BRANCH   1  16
ATOM     12  N   UNL     1      -1.283   2.541   3.103  0.00  0.00    -0.256 N 
ATOM     13  C   UNL     1      -1.242   2.639   1.786  0.00  0.00    +0.258 C 
ATOM     14  O   UNL     1      -1.566   1.703   1.077  0.00  0.00    -0.269 OA
ATOM     15  C   UNL     1      -0.803   3.869   1.218  0.00  0.00    +0.077 C 
ATOM     16  C   UNL     1      -0.669   4.221  -0.094  0.00  0.00    +0.037 C 
ATOM     17  S   UNL     1      -0.484   4.830   2.692  0.00  0.00    -0.061 S 
ATOM     18  C   UNL     1      -0.929   3.582   3.889  0.00  0.00    +0.121 C 
ATOM     19  S   UNL     1      -0.912   3.680   5.599  0.00  0.00    -0.027 S 
BRANCH  12  21
ATOM     20  C   UNL     1      -3.240   1.324   3.923  0.00  0.00    +0.025 C 
ATOM     21  C   UNL     1      -1.724   1.287   3.721  0.00  0.00    +0.111 C 
ENDBRANCH  12  21
ENDBRANCH   1  16
BRANCH   2  22
ATOM     22  N   UNL     1       0.872   1.844  -0.149  0.00  0.00    -0.312 N 
ATOM     23  C   UNL     1       1.954   2.835  -0.227  0.00  0.00    +0.125 C 
ATOM     24  C   UNL     1       2.940   2.600   0.920  0.00  0.00    +0.124 C 
ATOM     25  N   UNL     1       3.474   1.234   0.832  0.00  0.00    -0.327 N 
ATOM     26  C   UNL     1       2.392   0.243   0.910  0.00  0.00    +0.124 C 
ATOM     27  C   UNL     1       1.405   0.477  -0.237  0.00  0.00    +0.125 C 
BRANCH  25  28
ATOM     28  C   UNL     1       4.433   1.007   1.822  0.00  0.00    +0.031 A 
ATOM     29  C   UNL     1       4.277  -0.047   2.714  0.00  0.00    +0.023 A 
ATOM     30  C   UNL     1       5.229  -0.273   3.688  0.00  0.00    +0.003 A 
ATOM     31  C   UNL     1       6.332   0.555   3.784  0.00  0.00    +0.020 A 
ATOM     32  C   UNL     1       6.489   1.609   2.900  0.00  0.00    +0.043 A 
ATOM     33  C   UNL     1       5.542   1.837   1.920  0.00  0.00    +0.043 A 
ATOM     34 CL   UNL     1       7.876   2.645   3.024  0.00  0.00    -0.083 Cl
ENDBRANCH  25  28
ENDBRANCH   2  22
TORSDOF 4
