REMARK  Name = ZINC48939872
REMARK  5 active torsions:
REMARK  status: ('A' for Active; 'I' for Inactive)
REMARK    1  A    between atoms: C_3  and  N_20
REMARK    2  A    between atoms: C_6  and  C_7
REMARK    3  A    between atoms: C_7  and  N_8
REMARK    4  A    between atoms: C_9  and  C_11
REMARK    5  A    between atoms: C_11  and  C_12
REMARK                            x       y       z     vdW  Elec       q    Type
REMARK                         _______ _______ _______ _____ _____    ______ ____
ROOT
ATOM      1  C   UNL     1      -1.289  -0.781   0.030  0.00  0.00    +0.141 C 
ENDROOT
BRANCH   1   7
ATOM      2  C   UNL     1      -0.008   1.364  -0.228  0.00  0.00    +0.010 A 
ATOM      3  C   UNL     1       1.199   2.041  -0.238  0.00  0.00    +0.042 A 
ATOM      4  C   UNL     1       2.374   1.332  -0.013  0.00  0.00    +0.099 A 
ATOM      5  N   UNL     1       2.342   0.027   0.208  0.00  0.00    -0.349 N 
ATOM      6  C   UNL     1       1.206  -0.644   0.224  0.00  0.00    +0.089 A 
ATOM      7  C   UNL     1       0.002  -0.004   0.009  0.00  0.00    -0.014 A 
ATOM      8  H   UNL     1       3.174  -0.448   0.363  0.00  0.00    +0.167 HD
BRANCH   4   9
ATOM      9  N   UNL     1       3.594   1.999  -0.022  0.00  0.00    -0.317 N 
ATOM     10  C   UNL     1       3.594   3.441  -0.119  0.00  0.00    +0.106 C 
ATOM     11  C   UNL     1       3.619   3.861  -1.610  0.00  0.00    +0.019 C 
ATOM     12  C   UNL     1       4.936   3.575  -2.199  0.00  0.00    +0.002 C 
ATOM     13  C   UNL     1       5.308   2.095  -2.217  0.00  0.00    +0.002 C 
ATOM     14  C   UNL     1       5.923   1.718  -0.892  0.00  0.00    +0.019 C 
ATOM     15  C   UNL     1       4.835   1.206   0.075  0.00  0.00    +0.106 C 
ENDBRANCH   4   9
ENDBRANCH   1   7
BRANCH   1  16
ATOM     16  N   UNL     1      -1.589  -1.267  -1.319  0.00  0.00    -0.311 N 
ATOM     17  C   UNL     1      -2.703  -1.992  -1.542  0.00  0.00    +0.216 C 
ATOM     18  O   UNL     1      -3.456  -2.243  -0.626  0.00  0.00    -0.276 OA
ATOM     19  H   UNL     1      -0.986  -1.066  -2.052  0.00  0.00    +0.149 HD
BRANCH  17  20
ATOM     20  C   UNL     1      -3.011  -2.491  -2.930  0.00  0.00    +0.127 C 
BRANCH  20  21
ATOM     21  C   UNL     1      -4.322  -3.281  -2.909  0.00  0.00    +0.169 C 
ATOM     22  C   UNL     1      -4.638  -3.826  -4.287  0.00  0.00    +0.241 C 
ATOM     23  O   UNL     1      -3.976  -4.607  -4.936  0.00  0.00    -0.273 OA
ATOM     24  N   UNL     1      -5.811  -3.263  -4.641  0.00  0.00    -0.239 N 
ATOM     25  C   UNL     1      -6.274  -2.446  -3.688  0.00  0.00    +0.307 C 
ATOM     26  O   UNL     1      -7.314  -1.825  -3.777  0.00  0.00    -0.252 OA
ATOM     27  N   UNL     1      -5.458  -2.391  -2.615  0.00  0.00    -0.287 N 
ATOM     28  H   UNL     1      -6.263  -3.429  -5.483  0.00  0.00    +0.159 HD
ATOM     29  H   UNL     1      -5.592  -1.869  -1.808  0.00  0.00    +0.151 HD
ENDBRANCH  20  21
ENDBRANCH  17  20
ENDBRANCH   1  16
TORSDOF 5
