REMARK  Name = ZINC02809853
REMARK  4 active torsions:
REMARK  status: ('A' for Active; 'I' for Inactive)
REMARK    1  A    between atoms: C_2  and  C_8
REMARK    2  A    between atoms: N_9  and  N_10
REMARK    3  A    between atoms: N_10  and  C_11
REMARK    4  A    between atoms: C_11  and  N_13
REMARK                            x       y       z     vdW  Elec       q    Type
REMARK                         _______ _______ _______ _____ _____    ______ ____
ROOT
ATOM      1  C   UNL     1      -1.566   5.198   0.045  0.00  0.00    +0.176 C 
ATOM      2  N   UNL     1      -1.018   6.378   0.046  0.00  0.00    -0.185 NA
ENDROOT
BRANCH   1   4
ATOM      3  C   UNL     1      -1.167   2.708   0.022  0.00  0.00    +0.067 A 
ATOM      4  C   UNL     1      -0.723   3.998   0.030  0.00  0.00    +0.150 A 
ATOM      5  O   UNL     1       0.625   3.978   0.018  0.00  0.00    -0.446 OA
ATOM      6  C   UNL     1       1.052   2.704   0.006  0.00  0.00    +0.185 A 
ATOM      7  C   UNL     1      -0.024   1.887   0.012  0.00  0.00    +0.071 A 
ATOM      8 BR   UNL     1       0.002  -0.004   0.002  0.00  0.00    -0.046 Br
ATOM      9 BR   UNL     1       2.859   2.147  -0.013  0.00  0.00    -0.007 Br
ENDBRANCH   1   4
BRANCH   2  10
ATOM     10  N   UNL     1      -1.823   7.524   0.060  0.00  0.00    -0.218 N 
ATOM     11  H   UNL     1      -2.789   7.438   0.069  0.00  0.00    +0.176 HD
BRANCH  10  12
ATOM     12  C   UNL     1      -1.255   8.746   0.062  0.00  0.00    +0.147 C 
ATOM     13  S   UNL     1      -2.239  10.147   0.079  0.00  0.00    -0.017 S 
BRANCH  12  14
ATOM     14  N   UNL     1       0.087   8.866   0.050  0.00  0.00    -0.339 N 
ATOM     15  H   UNL     1       0.645   8.072   0.041  0.00  0.00    +0.144 HD
ATOM     16  H   UNL     1       0.496   9.746   0.051  0.00  0.00    +0.144 HD
ENDBRANCH  12  14
ENDBRANCH  10  12
ENDBRANCH   2  10
TORSDOF 4
