REMARK  Name = ZINC44772851
REMARK  5 active torsions:
REMARK  status: ('A' for Active; 'I' for Inactive)
REMARK    1  A    between atoms: C_1  and  C_2
REMARK    2  A    between atoms: C_8  and  N_10
REMARK    3  A    between atoms: C_11  and  C_13
REMARK    4  A    between atoms: C_13  and  C_20
REMARK    5  A    between atoms: C_20  and  N_22
REMARK                            x       y       z     vdW  Elec       q    Type
REMARK                         _______ _______ _______ _____ _____    ______ ____
ROOT
ATOM      1  C   UNL     1       0.179   0.735   4.853  0.00  0.00    +0.091 C 
ATOM      2  C   UNL     1      -0.361   2.115   4.593  0.00  0.00    +0.023 C 
ATOM      3  C   UNL     1       0.351   2.816   3.421  0.00  0.00    +0.001 C 
ATOM      4  C   UNL     1       1.876   2.595   3.430  0.00  0.00    +0.000 C 
ATOM      5  C   UNL     1       2.464   2.698   4.811  0.00  0.00    +0.000 C 
ATOM      6  C   UNL     1       2.544   1.281   5.416  0.00  0.00    +0.001 C 
ATOM      7  C   UNL     1       1.265   0.831   5.944  0.00  0.00    +0.023 C 
ENDROOT
BRANCH   1   9
ATOM      8  N   UNL     1       1.712  -0.791   3.654  0.00  0.00    -0.311 N 
ATOM      9  C   UNL     1       0.780   0.180   3.587  0.00  0.00    +0.226 C 
ATOM     10  O   UNL     1       0.425   0.608   2.509  0.00  0.00    -0.275 OA
ATOM     11  H   UNL     1       1.936  -1.191   4.508  0.00  0.00    +0.149 HD
BRANCH   8  18
ATOM     12  C   UNL     1       1.157  -3.413   2.555  0.00  0.00    +0.009 C 
ATOM     13  C   UNL     1       2.540  -2.764   2.469  0.00  0.00    +0.006 C 
ATOM     14  C   UNL     1       3.369  -3.166   3.690  0.00  0.00    +0.005 C 
ATOM     15  C   UNL     1       4.752  -2.517   3.604  0.00  0.00    +0.000 C 
ATOM     16  C   UNL     1       4.600  -0.995   3.569  0.00  0.00    +0.002 C 
ATOM     17  C   UNL     1       3.771  -0.593   2.348  0.00  0.00    +0.022 C 
ATOM     18  C   UNL     1       2.388  -1.242   2.434  0.00  0.00    +0.076 C 
ENDBRANCH   8  18
ENDBRANCH   1   9
BRANCH   1  19
ATOM     19  C   UNL     1      -0.933  -0.167   5.323  0.00  0.00    +0.061 C 
ATOM     20  S   UNL     1      -0.810  -0.922   6.727  0.00  0.00    -0.040 S 
BRANCH  19  21
ATOM     21  N   UNL     1      -2.031  -0.338   4.560  0.00  0.00    -0.355 N 
ATOM     22  H   UNL     1      -2.076   0.064   3.678  0.00  0.00    +0.143 HD
ATOM     23  H   UNL     1      -2.776  -0.863   4.892  0.00  0.00    +0.143 HD
ENDBRANCH  19  21
ENDBRANCH   1  19
TORSDOF 4
