REMARK  Name = ZINC10233427
REMARK  7 active torsions:
REMARK  status: ('A' for Active; 'I' for Inactive)
REMARK    1  A    between atoms: C_1  and  C_2
REMARK    2  A    between atoms: N_9  and  C_10
REMARK    3  A    between atoms: C_10  and  C_11
REMARK    4  A    between atoms: C_11  and  O_12
REMARK    5  A    between atoms: N_13  and  C_30
REMARK    6  A    between atoms: N_16  and  C_19
REMARK    7  A    between atoms: C_19  and  C_20
REMARK                            x       y       z     vdW  Elec       q    Type
REMARK                         _______ _______ _______ _____ _____    ______ ____
ROOT
ATOM      1  C   UNL     1      -2.510   1.462   0.123  0.00  0.00    +0.065 C 
ATOM      2  C   UNL     1      -1.079   1.934   0.092  0.00  0.00    +0.035 A 
ATOM      3  C   UNL     1      -0.001   1.156   0.080  0.00  0.00    +0.116 A 
ATOM      4  N   UNL     1       1.121   1.966   0.044  0.00  0.00    -0.277 N 
ATOM      5  C   UNL     1       2.507   1.982   0.010  0.00  0.00    +0.157 A 
ATOM      6  C   UNL     1       2.883   3.325  -0.014  0.00  0.00    +0.170 A 
ATOM      7  N   UNL     1       1.769   4.051   0.005  0.00  0.00    -0.193 NA
ATOM      8  C   UNL     1       0.710   3.255   0.040  0.00  0.00    +0.218 A 
ATOM      9  N   UNL     1      -0.660   3.251   0.073  0.00  0.00    -0.312 N 
ATOM     10  N   UNL     1       4.233   3.639  -0.051  0.00  0.00    -0.279 N 
ATOM     11  C   UNL     1       5.153   2.656  -0.063  0.00  0.00    +0.334 A 
ATOM     12  O   UNL     1       6.333   2.949  -0.095  0.00  0.00    -0.246 OA
ATOM     13  N   UNL     1       4.800   1.359  -0.040  0.00  0.00    -0.255 N 
ATOM     14  C   UNL     1       3.503   0.992  -0.005  0.00  0.00    +0.283 A 
ATOM     15  O   UNL     1       3.198  -0.188   0.016  0.00  0.00    -0.265 OA
ATOM     16  C   UNL     1       4.658   5.041  -0.078  0.00  0.00    +0.155 C 
ENDROOT
BRANCH   9  17
ATOM     17  C   UNL     1      -1.526   4.432   0.080  0.00  0.00    +0.152 C 
BRANCH  17  18
ATOM     18  C   UNL     1      -1.863   4.826  -1.359  0.00  0.00    +0.177 C 
BRANCH  18  19
ATOM     19  O   UNL     1      -2.708   5.979  -1.352  0.00  0.00    -0.393 OA
ATOM     20  H   UNL     1      -2.962   6.285  -2.233  0.00  0.00    +0.209 HD
ENDBRANCH  18  19
ENDBRANCH  17  18
ENDBRANCH   9  17
BRANCH  13  21
ATOM     21  C   UNL     1       5.841   0.329  -0.054  0.00  0.00    +0.165 C 
BRANCH  21  22
ATOM     22  C   UNL     1       6.303   0.061   1.355  0.00  0.00    -0.020 A 
ATOM     23  C   UNL     1       5.673   0.656   2.406  0.00  0.00    +0.006 A 
ATOM     24  C   UNL     1       6.086   0.420   3.716  0.00  0.00    +0.001 A 
ATOM     25  C   UNL     1       7.130  -0.410   3.983  0.00  0.00    +0.008 A 
ATOM     26  C   UNL     1       7.804  -1.042   2.925  0.00  0.00    -0.018 A 
ATOM     27  C   UNL     1       7.381  -0.807   1.592  0.00  0.00    -0.013 A 
ATOM     28  C   UNL     1       8.059  -1.435   0.533  0.00  0.00    +0.009 A 
ATOM     29  C   UNL     1       9.104  -2.266   0.801  0.00  0.00    +0.001 A 
ATOM     30  C   UNL     1       9.517  -2.500   2.111  0.00  0.00    +0.001 A 
ATOM     31  C   UNL     1       8.887  -1.906   3.161  0.00  0.00    +0.008 A 
ENDBRANCH  21  22
ENDBRANCH  13  21
TORSDOF 5
