REMARK  Name = ZINC25453295
REMARK  5 active torsions:
REMARK  status: ('A' for Active; 'I' for Inactive)
REMARK    1  A    between atoms: C_6  and  N_7
REMARK    2  A    between atoms: C_8  and  C_10
REMARK    3  A    between atoms: C_10  and  C_11
REMARK    4  A    between atoms: C_11  and  C_12
REMARK    5  A    between atoms: C_12  and  N_13
REMARK                            x       y       z     vdW  Elec       q    Type
REMARK                         _______ _______ _______ _____ _____    ______ ____
ROOT
ATOM      1  N   UNL     1      -1.202  -0.721   0.009  0.00  0.00    -0.285 N 
ATOM      2  C   UNL     1      -2.374  -0.067   0.125  0.00  0.00    +0.217 C 
ATOM      3  O   UNL     1      -2.395   1.146   0.132  0.00  0.00    -0.275 OA
ATOM      4  H   UNL     1      -1.192  -1.687  -0.073  0.00  0.00    +0.155 HD
ENDROOT
BRANCH   1  10
ATOM      5  C   UNL     1       0.121   1.154   0.763  0.00  0.00    +0.027 A 
ATOM      6  C   UNL     1       1.309   1.862   0.763  0.00  0.00    +0.051 A 
ATOM      7  C   UNL     1       2.381   1.418   0.010  0.00  0.00    +0.167 A 
ATOM      8  C   UNL     1       2.264   0.254  -0.750  0.00  0.00    +0.169 A 
ATOM      9  C   UNL     1       1.076  -0.454  -0.750  0.00  0.00    +0.072 A 
ATOM     10  C   UNL     1       0.002  -0.004   0.008  0.00  0.00    +0.037 A 
ATOM     11  O   UNL     1       3.455   0.038  -1.393  0.00  0.00    -0.447 OA
ATOM     12  C   UNL     1       4.081   1.329  -1.397  0.00  0.00    +0.254 C 
ATOM     13  O   UNL     1       3.645   1.920  -0.165  0.00  0.00    -0.448 OA
ATOM     14  C   UNL     1       3.630   2.162  -2.603  0.00  0.00    +0.093 C 
ATOM     15  C   UNL     1       4.891   2.983  -2.982  0.00  0.00    +0.008 C 
ATOM     16  C   UNL     1       6.046   1.983  -2.722  0.00  0.00    +0.008 C 
ATOM     17  C   UNL     1       5.604   1.214  -1.456  0.00  0.00    +0.093 C 
ENDBRANCH   1  10
BRANCH   2  18
ATOM     18  C   UNL     1      -3.661  -0.842   0.247  0.00  0.00    +0.097 C 
BRANCH  18  19
ATOM     19  C   UNL     1      -4.835   0.132   0.364  0.00  0.00    +0.029 C 
BRANCH  19  20
ATOM     20  C   UNL     1      -6.141  -0.655   0.487  0.00  0.00    +0.118 C 
BRANCH  20  21
ATOM     21  N   UNL     1      -7.265   0.278   0.600  0.00  0.00    -0.224 N 
ATOM     22  C   UNL     1      -7.736   0.761   1.769  0.00  0.00    +0.246 C 
ATOM     23  O   UNL     1      -7.328   0.516   2.884  0.00  0.00    -0.273 OA
ATOM     24  C   UNL     1      -8.879   1.670   1.393  0.00  0.00    +0.113 C 
ATOM     25  C   UNL     1      -8.620   3.106   1.868  0.00  0.00    +0.035 C 
ATOM     26  C   UNL     1     -10.027   3.630   2.256  0.00  0.00    +0.003 C 
ATOM     27  C   UNL     1     -10.698   2.384   2.887  0.00  0.00    +0.003 C 
ATOM     28  C   UNL     1     -10.191   1.204   2.027  0.00  0.00    +0.035 C 
ATOM     29  N   UNL     1      -8.937   1.599  -0.069  0.00  0.00    -0.285 N 
ATOM     30  C   UNL     1      -7.949   0.762  -0.445  0.00  0.00    +0.309 C 
ATOM     31  O   UNL     1      -7.708   0.477  -1.602  0.00  0.00    -0.252 OA
ATOM     32  H   UNL     1      -9.559   2.063  -0.650  0.00  0.00    +0.151 HD
ENDBRANCH  20  21
ENDBRANCH  19  20
ENDBRANCH  18  19
ENDBRANCH   2  18
TORSDOF 5
