REMARK  Name = ZINC41582612
REMARK  6 active torsions:
REMARK  status: ('A' for Active; 'I' for Inactive)
REMARK    1  A    between atoms: C_3  and  N_23
REMARK    2  A    between atoms: C_5  and  O_7
REMARK    3  A    between atoms: O_7  and  C_8
REMARK    4  A    between atoms: C_8  and  C_9
REMARK    5  A    between atoms: C_9  and  C_10
REMARK    6  A    between atoms: C_10  and  N_11
REMARK                            x       y       z     vdW  Elec       q    Type
REMARK                         _______ _______ _______ _____ _____    ______ ____
ROOT
ATOM      1  C   UNL     1      -1.172  -4.932  -0.013  0.00  0.00    +0.149 C 
ENDROOT
BRANCH   1   2
ATOM      2  N   UNL     1      -0.962  -6.382  -0.023  0.00  0.00    -0.244 N 
ATOM      3  C   UNL     1      -0.850  -7.190  -1.131  0.00  0.00    +0.093 A 
ATOM      4  C   UNL     1      -0.890  -6.956  -2.502  0.00  0.00    +0.079 A 
ATOM      5  C   UNL     1      -0.742  -8.007  -3.385  0.00  0.00    +0.168 A 
ATOM      6  C   UNL     1      -0.551  -9.308  -2.906  0.00  0.00    +0.168 A 
ATOM      7  C   UNL     1      -0.508  -9.553  -1.552  0.00  0.00    +0.081 A 
ATOM      8  C   UNL     1      -0.658  -8.494  -0.645  0.00  0.00    +0.116 A 
ATOM      9  N   UNL     1      -0.661  -8.433   0.702  0.00  0.00    -0.129 NA
ATOM     10  N   UNL     1      -0.830  -7.220   1.094  0.00  0.00    -0.065 NA
ATOM     11  O   UNL     1      -0.434 -10.150  -3.976  0.00  0.00    -0.453 OA
ATOM     12  C   UNL     1      -0.964  -9.421  -5.099  0.00  0.00    +0.466 C 
ATOM     13  O   UNL     1      -0.744  -8.042  -4.750  0.00  0.00    -0.453 OA
ENDBRANCH   1   2
BRANCH   1  14
ATOM     14  C   UNL     1       0.183  -4.221  -0.023  0.00  0.00    +0.064 C 
BRANCH  14  15
ATOM     15  C   UNL     1      -0.036  -2.707  -0.012  0.00  0.00    +0.231 C 
BRANCH  15  16
ATOM     16  O   UNL     1       1.229  -2.042  -0.021  0.00  0.00    -0.492 OA
BRANCH  16  21
ATOM     17  C   UNL     1      -0.017   1.377   0.010  0.00  0.00    +0.005 A 
ATOM     18  C   UNL     1       1.169   2.087   0.002  0.00  0.00    +0.023 A 
ATOM     19  C   UNL     1       2.383   1.413  -0.013  0.00  0.00    +0.028 A 
ATOM     20  C   UNL     1       2.404   0.024  -0.021  0.00  0.00    +0.068 A 
ATOM     21  C   UNL     1       1.212  -0.684  -0.013  0.00  0.00    +0.122 A 
ATOM     22  C   UNL     1       0.002  -0.004   0.002  0.00  0.00    +0.046 A 
BRANCH  19  23
ATOM     23  N   UNL     1       3.582   2.130  -0.022  0.00  0.00    -0.358 N 
ATOM     24  H   UNL     1       3.566   3.099  -0.017  0.00  0.00    +0.142 HD
ATOM     25  H   UNL     1       4.429   1.658  -0.033  0.00  0.00    +0.142 HD
ENDBRANCH  19  23
ENDBRANCH  16  21
ENDBRANCH  15  16
ENDBRANCH  14  15
ENDBRANCH   1  14
TORSDOF 6
