REMARK  Name = ZINC38784402
REMARK  7 active torsions:
REMARK  status: ('A' for Active; 'I' for Inactive)
REMARK    1  A    between atoms: C_4  and  C_7
REMARK    2  A    between atoms: C_7  and  C_8
REMARK    3  A    between atoms: C_8  and  N_9
REMARK    4  A    between atoms: C_10  and  N_18
REMARK    5  A    between atoms: C_19  and  C_21
REMARK    6  A    between atoms: C_21  and  S_22
REMARK    7  A    between atoms: S_22  and  C_23
REMARK                            x       y       z     vdW  Elec       q    Type
REMARK                         _______ _______ _______ _____ _____    ______ ____
ROOT
ATOM      1  N   UNL     1       4.195  -3.632   0.810  0.00  0.00    -0.296 N 
ATOM      2  C   UNL     1       3.256  -4.154   1.623  0.00  0.00    +0.225 C 
ATOM      3  O   UNL     1       3.456  -4.218   2.818  0.00  0.00    -0.275 OA
ATOM      4  H   UNL     1       4.035  -3.581  -0.145  0.00  0.00    +0.151 HD
ENDROOT
BRANCH   1   6
ATOM      5  N   UNL     1       5.450  -1.678   1.382  0.00  0.00    -0.266 N 
ATOM      6  C   UNL     1       5.458  -3.142   1.369  0.00  0.00    +0.173 C 
ATOM      7  C   UNL     1       6.622  -3.640   0.509  0.00  0.00    +0.138 C 
ATOM      8  C   UNL     1       7.872  -2.881   0.881  0.00  0.00    +0.224 C 
ATOM      9  O   UNL     1       8.950  -3.434   0.847  0.00  0.00    -0.275 OA
ATOM     10  N   UNL     1       7.789  -1.590   1.249  0.00  0.00    -0.240 N 
ATOM     11  C   UNL     1       6.598  -0.982   1.373  0.00  0.00    +0.310 C 
ATOM     12  O   UNL     1       6.559   0.228   1.485  0.00  0.00    -0.252 OA
ATOM     13  H   UNL     1       8.602  -1.090   1.424  0.00  0.00    +0.159 HD
BRANCH   5  14
ATOM     14  C   UNL     1       4.171  -0.963   1.399  0.00  0.00    +0.116 C 
BRANCH  14  15
ATOM     15  C   UNL     1       3.711  -0.707  -0.038  0.00  0.00    +0.054 C 
BRANCH  15  19
ATOM     16  C   UNL     1      -0.017   1.378   0.010  0.00  0.00    +0.000 A 
ATOM     17  C   UNL     1       1.171   2.086   0.002  0.00  0.00    +0.000 A 
ATOM     18  C   UNL     1       2.377   1.411  -0.013  0.00  0.00    +0.004 A 
ATOM     19  C   UNL     1       2.396   0.029  -0.020  0.00  0.00    -0.046 A 
ATOM     20  C   UNL     1       1.208  -0.679  -0.012  0.00  0.00    +0.004 A 
ATOM     21  C   UNL     1       0.002  -0.004   0.002  0.00  0.00    +0.000 A 
ENDBRANCH  15  19
ENDBRANCH  14  15
ENDBRANCH   5  14
ENDBRANCH   1   6
BRANCH   2  22
ATOM     22  C   UNL     1       1.957  -4.658   1.049  0.00  0.00    +0.173 C 
BRANCH  22  23
ATOM     23  S   UNL     1       0.911  -5.295   2.386  0.00  0.00    -0.075 S 
BRANCH  23  24
ATOM     24  C   UNL     1      -0.549  -5.839   1.563  0.00  0.00    +0.208 C 
ATOM     25  N   UNL     1      -0.611  -5.705   0.260  0.00  0.00    -0.227 NA
ATOM     26  C   UNL     1      -1.855  -6.085  -0.405  0.00  0.00    +0.252 C 
ATOM     27  C   UNL     1      -2.487  -7.168   0.458  0.00  0.00    +0.117 C 
ATOM     28  C   UNL     1      -2.813  -8.175  -0.400  0.00  0.00    +0.025 A 
ATOM     29  C   UNL     1      -3.517  -9.391  -0.217  0.00  0.00    +0.012 A 
ATOM     30  C   UNL     1      -3.660 -10.200  -1.300  0.00  0.00    +0.001 A 
ATOM     31  C   UNL     1      -3.157  -9.908  -2.572  0.00  0.00    +0.002 A 
ATOM     32  C   UNL     1      -2.473  -8.769  -2.864  0.00  0.00    +0.026 A 
ATOM     33  C   UNL     1      -2.276  -7.826  -1.751  0.00  0.00    +0.046 A 
ATOM     34  N   UNL     1      -1.689  -6.668  -1.728  0.00  0.00    -0.358 N 
ATOM     35  N   UNL     1      -2.507  -7.069   1.791  0.00  0.00    -0.147 NA
ATOM     36  N   UNL     1      -1.543  -6.377   2.313  0.00  0.00    -0.122 NA
ATOM     37  H   UNL     1      -1.219  -6.259  -2.471  0.00  0.00    +0.162 HD
ENDBRANCH  23  24
ENDBRANCH  22  23
ENDBRANCH   2  22
TORSDOF 7
