REMARK  Name = ZINC39996401
REMARK  3 active torsions:
REMARK  status: ('A' for Active; 'I' for Inactive)
REMARK    1  A    between atoms: C_1  and  N_2
REMARK    2  A    between atoms: C_8  and  C_10
REMARK    3  A    between atoms: C_10  and  N_11
REMARK                            x       y       z     vdW  Elec       q    Type
REMARK                         _______ _______ _______ _____ _____    ______ ____
ROOT
ATOM      1  N   UNL     1       0.102  -6.871   1.046  0.00  0.00    -0.215 N 
ATOM      2  C   UNL     1      -1.007  -7.507   0.616  0.00  0.00    +0.251 C 
ATOM      3  O   UNL     1      -2.159  -7.202   0.837  0.00  0.00    -0.272 OA
ATOM      4  C   UNL     1      -0.510  -8.681  -0.199  0.00  0.00    +0.138 C 
ATOM      5  C   UNL     1      -0.988  -8.561  -1.641  0.00  0.00    +0.040 C 
ATOM      6  C   UNL     1      -2.492  -8.858  -1.678  0.00  0.00    +0.008 C 
ATOM      7  C   UNL     1      -2.701 -10.340  -1.375  0.00  0.00    +0.035 C 
ATOM      8  C   UNL     1      -1.975 -10.735  -0.116  0.00  0.00    -0.042 A 
ATOM      9  C   UNL     1      -0.962  -9.972   0.423  0.00  0.00    -0.012 A 
ATOM     10  C   UNL     1      -0.325 -10.396   1.582  0.00  0.00    +0.006 A 
ATOM     11  C   UNL     1      -0.702 -11.571   2.200  0.00  0.00    +0.000 A 
ATOM     12  C   UNL     1      -1.722 -12.333   1.662  0.00  0.00    +0.000 A 
ATOM     13  C   UNL     1      -2.355 -11.915   0.509  0.00  0.00    +0.004 A 
ATOM     14  N   UNL     1       0.953  -8.566  -0.132  0.00  0.00    -0.281 N 
ATOM     15  C   UNL     1       1.216  -7.475   0.613  0.00  0.00    +0.310 C 
ATOM     16  O   UNL     1       2.338  -7.084   0.866  0.00  0.00    -0.252 OA
ATOM     17  H   UNL     1       1.601  -9.157  -0.545  0.00  0.00    +0.152 HD
ENDROOT
BRANCH   1  18
ATOM     18  C   UNL     1       0.090  -5.666   1.878  0.00  0.00    +0.214 C 
BRANCH  18  26
ATOM     19  C   UNL     1      -0.018   1.461   0.010  0.00  0.00    +0.172 C 
ATOM     20  N   UNL     1       0.002  -0.004   0.002  0.00  0.00    -0.273 N 
ATOM     21  C   UNL     1       0.008  -0.791  -1.095  0.00  0.00    +0.110 A 
ATOM     22  C   UNL     1       0.028  -2.078  -0.681  0.00  0.00    +0.065 A 
ATOM     23  C   UNL     1       0.035  -2.080   0.723  0.00  0.00    +0.147 A 
ATOM     24  N   UNL     1       0.025  -0.833   1.131  0.00  0.00    -0.156 NA
ATOM     25  N   UNL     1       0.054  -3.215   1.545  0.00  0.00    -0.268 N 
ATOM     26  C   UNL     1       0.069  -4.445   0.995  0.00  0.00    +0.236 C 
ATOM     27  O   UNL     1       0.065  -4.570  -0.212  0.00  0.00    -0.274 OA
ATOM     28  H   UNL     1       0.058  -3.115   2.510  0.00  0.00    +0.156 HD
ENDBRANCH  18  26
ENDBRANCH   1  18
TORSDOF 2
