REMARK  Name = ZINC20557954
REMARK  7 active torsions:
REMARK  status: ('A' for Active; 'I' for Inactive)
REMARK    1  A    between atoms: C_1  and  C_2
REMARK    2  A    between atoms: C_7  and  S_8
REMARK    3  A    between atoms: S_8  and  N_11
REMARK    4  A    between atoms: N_14  and  C_17
REMARK    5  A    between atoms: C_17  and  C_18
REMARK    6  A    between atoms: C_18  and  O_19
REMARK    7  A    between atoms: O_19  and  C_20
REMARK                            x       y       z     vdW  Elec       q    Type
REMARK                         _______ _______ _______ _____ _____    ______ ____
ROOT
ATOM      1  S   UNL     1       0.013   0.618   2.131  0.00  0.00    +0.061 S 
ATOM      2  O   UNL     1      -0.895   1.687   1.905  0.00  0.00    -0.153 OA
ATOM      3  O   UNL     1      -0.189  -0.350   3.152  0.00  0.00    -0.153 OA
ENDROOT
BRANCH   1  10
ATOM      4  C   UNL     1       0.501   1.917  -0.552  0.00  0.00    +0.046 C 
ATOM      5  C   UNL     1       0.362   0.417  -0.569  0.00  0.00    -0.022 A 
ATOM      6  C   UNL     1       0.466  -0.270  -1.761  0.00  0.00    +0.033 A 
ATOM      7  C   UNL     1       0.339  -1.654  -1.780  0.00  0.00    +0.066 A 
ATOM      8  C   UNL     1       0.106  -2.345  -0.589  0.00  0.00    +0.068 A 
ATOM      9  C   UNL     1       0.003  -1.642   0.606  0.00  0.00    +0.056 A 
ATOM     10  C   UNL     1       0.137  -0.268   0.614  0.00  0.00    +0.110 A 
ATOM     11  N   UNL     1      -0.025  -3.730  -0.587  0.00  0.00    -0.316 N 
ATOM     12  H   UNL     1      -0.187  -4.201   0.246  0.00  0.00    +0.169 HD
ATOM     13  C   UNL     1       0.073  -4.420  -1.742  0.00  0.00    +0.314 A 
ATOM     14  O   UNL     1      -0.042  -5.629  -1.746  0.00  0.00    -0.262 OA
ATOM     15  C   UNL     1       0.322  -3.683  -3.014  0.00  0.00    +0.314 A 
ATOM     16  O   UNL     1       0.413  -4.286  -4.065  0.00  0.00    -0.262 OA
ATOM     17  N   UNL     1       0.444  -2.340  -2.987  0.00  0.00    -0.316 N 
ATOM     18  H   UNL     1       0.606  -1.852  -3.809  0.00  0.00    +0.169 HD
ENDBRANCH   1  10
BRANCH   1  19
ATOM     19  N   UNL     1       1.492   1.306   2.418  0.00  0.00    -0.174 NA
ATOM     20  C   UNL     1       2.526   0.585   3.176  0.00  0.00    +0.125 C 
ATOM     21  C   UNL     1       3.039   1.500   4.293  0.00  0.00    +0.101 C 
ATOM     22  N   UNL     1       3.471   2.779   3.714  0.00  0.00    -0.297 NA
ATOM     23  C   UNL     1       2.347   3.488   3.089  0.00  0.00    +0.101 C 
ATOM     24  C   UNL     1       1.808   2.652   1.918  0.00  0.00    +0.125 C 
BRANCH  22  25
ATOM     25  C   UNL     1       4.128   3.619   4.725  0.00  0.00    +0.125 C 
BRANCH  25  26
ATOM     26  C   UNL     1       5.539   3.090   4.989  0.00  0.00    +0.244 C 
BRANCH  26  27
ATOM     27  O   UNL     1       6.327   3.224   3.805  0.00  0.00    -0.491 OA
BRANCH  27  28
ATOM     28  C   UNL     1       7.616   2.798   3.871  0.00  0.00    +0.121 A 
ATOM     29  C   UNL     1       8.110   2.257   5.049  0.00  0.00    +0.047 A 
ATOM     30  C   UNL     1       9.420   1.824   5.114  0.00  0.00    +0.023 A 
ATOM     31  C   UNL     1      10.240   1.931   4.005  0.00  0.00    +0.041 A 
ATOM     32  C   UNL     1       9.750   2.471   2.829  0.00  0.00    +0.023 A 
ATOM     33  C   UNL     1       8.438   2.898   2.758  0.00  0.00    +0.047 A 
ATOM     34 CL   UNL     1      11.887   1.387   4.088  0.00  0.00    -0.084 Cl
ENDBRANCH  27  28
ENDBRANCH  26  27
ENDBRANCH  25  26
ENDBRANCH  22  25
ENDBRANCH   1  19
TORSDOF 6
