REMARK  Name = ZINC39571137
REMARK  5 active torsions:
REMARK  status: ('A' for Active; 'I' for Inactive)
REMARK    1  A    between atoms: C_3  and  C_6
REMARK    2  A    between atoms: C_8  and  C_12
REMARK    3  A    between atoms: N_14  and  N_15
REMARK    4  A    between atoms: C_16  and  C_17
REMARK    5  A    between atoms: C_22  and  O_23
REMARK                            x       y       z     vdW  Elec       q    Type
REMARK                         _______ _______ _______ _____ _____    ______ ____
ROOT
ATOM      1  C   UNL     1       6.463  -0.443  -1.308  0.00  0.00    +0.263 C 
ATOM      2  O   UNL     1       6.591   0.324  -2.239  0.00  0.00    -0.271 OA
ATOM      3  N   UNL     1       6.959  -1.694  -1.391  0.00  0.00    -0.205 N 
ATOM      4  H   UNL     1       6.856  -2.307  -0.647  0.00  0.00    +0.177 HD
ENDROOT
BRANCH   1   7
ATOM      5  C   UNL     1       3.574   0.619  -0.029  0.00  0.00    +0.126 C 
ATOM      6  C   UNL     1       4.318  -0.508  -0.048  0.00  0.00    +0.044 C 
ATOM      7  C   UNL     1       5.748   0.002  -0.058  0.00  0.00    +0.240 C 
ATOM      8  N   UNL     1       5.584   1.465  -0.043  0.00  0.00    -0.170 NA
ATOM      9  N   UNL     1       4.377   1.716  -0.033  0.00  0.00    -0.150 NA
BRANCH   5  12
ATOM     10  C   UNL     1      -0.016   1.343   0.009  0.00  0.00    +0.042 A 
ATOM     11  C   UNL     1       1.325   1.774  -0.001  0.00  0.00    +0.051 A 
ATOM     12  C   UNL     1       2.097   0.654  -0.014  0.00  0.00    +0.154 A 
ATOM     13  O   UNL     1       1.280  -0.417  -0.012  0.00  0.00    -0.461 OA
ATOM     14  C   UNL     1       0.002  -0.004   0.002  0.00  0.00    +0.196 A 
ENDBRANCH   5  12
ENDBRANCH   1   7
BRANCH   3  15
ATOM     15  N   UNL     1       7.623  -2.108  -2.553  0.00  0.00    -0.188 NA
ATOM     16  C   UNL     1       8.101  -3.312  -2.633  0.00  0.00    +0.142 C 
BRANCH  16  17
ATOM     17  C   UNL     1       8.800  -3.747  -3.856  0.00  0.00    +0.037 A 
ATOM     18  C   UNL     1       9.311  -5.044  -3.948  0.00  0.00    +0.028 A 
ATOM     19  C   UNL     1       9.963  -5.445  -5.096  0.00  0.00    +0.019 A 
ATOM     20  C   UNL     1      10.115  -4.567  -6.156  0.00  0.00    +0.019 A 
ATOM     21  C   UNL     1       9.614  -3.282  -6.076  0.00  0.00    +0.047 A 
ATOM     22  C   UNL     1       8.951  -2.864  -4.934  0.00  0.00    +0.126 A 
ATOM     23 BR   UNL     1      10.655  -7.201  -5.221  0.00  0.00    -0.050 Br
BRANCH  22  24
ATOM     24  O   UNL     1       8.453  -1.603  -4.856  0.00  0.00    -0.506 OA
ATOM     25  H   UNL     1       9.076  -0.956  -4.496  0.00  0.00    +0.292 HD
ENDBRANCH  22  24
ENDBRANCH  16  17
ENDBRANCH   3  15
TORSDOF 5
