REMARK  Name = ZINC63373883
REMARK  7 active torsions:
REMARK  status: ('A' for Active; 'I' for Inactive)
REMARK    1  A    between atoms: C_1  and  C_2
REMARK    2  A    between atoms: C_2  and  C_3
REMARK    3  A    between atoms: C_6  and  C_9
REMARK    4  A    between atoms: N_16  and  C_31
REMARK    5  A    between atoms: C_19  and  C_30
REMARK    6  A    between atoms: C_31  and  C_32
REMARK    7  A    between atoms: C_32  and  C_33
REMARK                            x       y       z     vdW  Elec       q    Type
REMARK                         _______ _______ _______ _____ _____    ______ ____
ROOT
ATOM      1  C   UNL     1       2.797  -1.919   4.683  0.00  0.00    +0.065 C 
ATOM      2  C   UNL     1       2.214  -3.272   5.127  0.00  0.00    +0.121 C 
ATOM      3  N   UNL     1       0.886  -3.056   5.733  0.00  0.00    -0.283 N 
ATOM      4  C   UNL     1      -0.165  -3.674   5.183  0.00  0.00    +0.234 C 
ATOM      5  O   UNL     1       0.035  -4.356   4.200  0.00  0.00    -0.274 OA
ATOM      6  C   UNL     1      -1.567  -3.586   5.688  0.00  0.00    +0.203 C 
ATOM      7  N   UNL     1      -1.672  -2.749   6.872  0.00  0.00    -0.291 N 
ATOM      8  C   UNL     1      -0.636  -2.118   7.422  0.00  0.00    +0.242 C 
ATOM      9  O   UNL     1      -0.841  -1.447   8.411  0.00  0.00    -0.273 OA
ATOM     10  C   UNL     1       0.762  -2.183   6.902  0.00  0.00    +0.135 C 
ATOM     11  C   UNL     1       1.240  -0.782   6.507  0.00  0.00    +0.139 C 
ATOM     12  C   UNL     1       2.597  -0.962   5.832  0.00  0.00    -0.027 C 
ATOM     13  C   UNL     1       3.442  -0.162   6.470  0.00  0.00    -0.000 A 
ATOM     14  C   UNL     1       4.853   0.175   6.218  0.00  0.00    +0.010 A 
ATOM     15  C   UNL     1       5.432   1.029   7.102  0.00  0.00    +0.001 A 
ATOM     16  C   UNL     1       4.758   1.577   8.198  0.00  0.00    +0.002 A 
ATOM     17  C   UNL     1       3.458   1.330   8.500  0.00  0.00    +0.026 A 
ATOM     18  C   UNL     1       2.739   0.453   7.637  0.00  0.00    +0.043 A 
ATOM     19  N   UNL     1       1.469   0.073   7.671  0.00  0.00    -0.375 N 
ATOM     20  C   UNL     1       1.679  -2.706   8.009  0.00  0.00    +0.044 C 
ATOM     21  H   UNL     1       0.809   0.308   8.342  0.00  0.00    +0.160 HD
ENDROOT
BRANCH   1  25
ATOM     22  C   UNL     1       0.731  -0.503   1.223  0.00  0.00    -0.048 A 
ATOM     23  C   UNL     1       2.097  -0.710   1.176  0.00  0.00    +0.004 A 
ATOM     24  C   UNL     1       2.766  -1.167   2.296  0.00  0.00    +0.004 A 
ATOM     25  C   UNL     1       2.068  -1.419   3.463  0.00  0.00    -0.039 A 
ATOM     26  C   UNL     1       0.702  -1.212   3.510  0.00  0.00    +0.004 A 
ATOM     27  C   UNL     1       0.034  -0.750   2.391  0.00  0.00    +0.004 A 
BRANCH  22  29
ATOM     28  C   UNL     1      -0.019   1.526   0.010  0.00  0.00    +0.009 C 
ATOM     29  C   UNL     1       0.002  -0.004   0.002  0.00  0.00    +0.032 C 
ENDBRANCH  22  29
ENDBRANCH   1  25
BRANCH   7  30
ATOM     30  C   UNL     1      -2.989  -2.590   7.493  0.00  0.00    +0.113 C 
BRANCH  30  31
ATOM     31  C   UNL     1      -3.192  -3.682   8.544  0.00  0.00    +0.054 C 
BRANCH  31  32
ATOM     32  C   UNL     1      -4.547  -3.519   9.184  0.00  0.00    -0.046 A 
ATOM     33  C   UNL     1      -4.689  -2.726  10.307  0.00  0.00    +0.006 A 
ATOM     34  C   UNL     1      -5.932  -2.575  10.894  0.00  0.00    +0.038 A 
ATOM     35  C   UNL     1      -7.034  -3.217  10.356  0.00  0.00    +0.123 A 
ATOM     36  C   UNL     1      -6.890  -4.011   9.230  0.00  0.00    +0.038 A 
ATOM     37  C   UNL     1      -5.648  -4.157   8.642  0.00  0.00    +0.006 A 
ATOM     38  F   UNL     1      -8.248  -3.071  10.929  0.00  0.00    -0.205 F 
ENDBRANCH  31  32
ENDBRANCH  30  31
ENDBRANCH   7  30
TORSDOF 5
