REMARK  Name = ZINC08751266
REMARK  7 active torsions:
REMARK  status: ('A' for Active; 'I' for Inactive)
REMARK    1  A    between atoms: C_1  and  C_2
REMARK    2  A    between atoms: C_5  and  O_8
REMARK    3  A    between atoms: O_8  and  C_9
REMARK    4  A    between atoms: C_9  and  C_11
REMARK    5  A    between atoms: C_9  and  C_12
REMARK    6  A    between atoms: N_14  and  C_15
REMARK    7  A    between atoms: C_25  and  N_26
REMARK                            x       y       z     vdW  Elec       q    Type
REMARK                         _______ _______ _______ _____ _____    ______ ____
ROOT
ATOM      1  C   UNL     1       3.115  -1.089  -2.329  0.00  0.00    +0.258 C 
ATOM      2  O   UNL     1       2.395  -2.010  -2.008  0.00  0.00    -0.271 OA
ATOM      3  N   UNL     1       2.893   0.144  -1.834  0.00  0.00    -0.280 N 
ATOM      4  H   UNL     1       3.424   0.894  -2.144  0.00  0.00    +0.155 HD
ENDROOT
BRANCH   3   5
ATOM      5  C   UNL     1       1.907   0.341  -0.884  0.00  0.00    +0.082 A 
ATOM      6  C   UNL     1       2.220   0.950   0.419  0.00  0.00    +0.041 A 
ATOM      7  C   UNL     1       3.521   1.348   0.734  0.00  0.00    +0.013 A 
ATOM      8  C   UNL     1       3.781   1.915   1.961  0.00  0.00    +0.001 A 
ATOM      9  C   UNL     1       2.758   2.092   2.882  0.00  0.00    +0.004 A 
ATOM     10  C   UNL     1       1.469   1.703   2.583  0.00  0.00    +0.047 A 
ATOM     11  C   UNL     1       1.186   1.128   1.351  0.00  0.00    +0.141 A 
ATOM     12  O   UNL     1      -0.071   0.742   1.043  0.00  0.00    -0.420 OA
ATOM     13  C   UNL     1      -0.368   0.186  -0.143  0.00  0.00    +0.370 A 
ATOM     14  O   UNL     1      -1.518  -0.144  -0.370  0.00  0.00    -0.243 OA
ATOM     15  C   UNL     1       0.610  -0.026  -1.126  0.00  0.00    +0.232 A 
BRANCH  15  16
ATOM     16  N   UNL     1       0.241  -0.642  -2.421  0.00  0.00    +0.065 N 
ATOM     17  O   UNL     1       0.563  -0.104  -3.465  0.00  0.00    -0.126 OA
ATOM     18  O   UNL     1      -0.384  -1.687  -2.441  0.00  0.00    -0.126 OA
ENDBRANCH  15  16
ENDBRANCH   3   5
BRANCH   1  19
ATOM     19  C   UNL     1       4.258  -1.324  -3.283  0.00  0.00    +0.256 C 
ATOM     20  C   UNL     1       4.072  -0.455  -4.527  0.00  0.00    +0.062 C 
BRANCH  19  21
ATOM     21  O   UNL     1       4.286  -2.701  -3.663  0.00  0.00    -0.480 OA
BRANCH  21  26
ATOM     22  C   UNL     1       9.206  -4.753  -5.482  0.00  0.00    +0.044 C 
ATOM     23  C   UNL     1       7.890  -4.204  -4.995  0.00  0.00    -0.050 A 
ATOM     24  C   UNL     1       7.811  -2.901  -4.540  0.00  0.00    +0.007 A 
ATOM     25  C   UNL     1       6.606  -2.396  -4.093  0.00  0.00    +0.046 A 
ATOM     26  C   UNL     1       5.473  -3.196  -4.102  0.00  0.00    +0.122 A 
ATOM     27  C   UNL     1       5.556  -4.505  -4.555  0.00  0.00    +0.046 A 
ATOM     28  C   UNL     1       6.762  -5.004  -5.006  0.00  0.00    +0.007 A 
ENDBRANCH  21  26
ENDBRANCH  19  21
ENDBRANCH   1  19
TORSDOF 5
