REMARK  Name = ZINC03123172
REMARK  6 active torsions:
REMARK  status: ('A' for Active; 'I' for Inactive)
REMARK    1  A    between atoms: C_4  and  S_7
REMARK    2  A    between atoms: S_7  and  C_10
REMARK    3  A    between atoms: C_10  and  C_20
REMARK    4  A    between atoms: N_11  and  N_12
REMARK    5  A    between atoms: N_12  and  C_13
REMARK    6  A    between atoms: N_22  and  N_23
REMARK                            x       y       z     vdW  Elec       q    Type
REMARK                         _______ _______ _______ _____ _____    ______ ____
ROOT
ATOM      1  C   UNL     1       4.367  -1.081  -1.719  0.00  0.00    +0.262 C 
ATOM      2  N   UNL     1       5.115  -0.211  -2.338  0.00  0.00    -0.158 NA
ENDROOT
BRANCH   1   3
ATOM      3  C   UNL     1       3.797  -2.209  -2.455  0.00  0.00    +0.296 C 
ATOM      4  O   UNL     1       3.110  -2.009  -3.440  0.00  0.00    -0.266 OA
ATOM      5  N   UNL     1       4.032  -3.470  -2.042  0.00  0.00    -0.247 N 
ATOM      6  H   UNL     1       4.519  -3.628  -1.218  0.00  0.00    +0.169 HD
BRANCH   5   7
ATOM      7  N   UNL     1       3.584  -4.527  -2.784  0.00  0.00    -0.254 NA
ATOM      8  H   UNL     1       3.834  -5.404  -2.351  0.00  0.00    +0.140 HD
ATOM      9  H   UNL     1       2.588  -4.467  -2.933  0.00  0.00    +0.140 HD
ENDBRANCH   5   7
ENDBRANCH   1   3
BRANCH   1  10
ATOM     10  S   UNL     1       4.041  -0.897   0.003  0.00  0.00    +0.049 S 
ATOM     11  O   UNL     1       5.040  -0.025   0.514  0.00  0.00    -0.163 OA
ATOM     12  O   UNL     1       3.835  -2.205   0.519  0.00  0.00    -0.163 OA
BRANCH  10  16
ATOM     13  C   UNL     1       0.095   1.285   0.394  0.00  0.00    +0.000 A 
ATOM     14  C   UNL     1       1.276   2.000   0.332  0.00  0.00    +0.002 A 
ATOM     15  C   UNL     1       2.482   1.333   0.213  0.00  0.00    +0.027 A 
ATOM     16  C   UNL     1       2.505  -0.047   0.155  0.00  0.00    +0.095 A 
ATOM     17  C   UNL     1       1.323  -0.762   0.217  0.00  0.00    +0.027 A 
ATOM     18  C   UNL     1       0.118  -0.096   0.337  0.00  0.00    +0.002 A 
ENDBRANCH  10  16
ENDBRANCH   1  10
BRANCH   2  19
ATOM     19  N   UNL     1       5.306  -0.310  -3.722  0.00  0.00    -0.236 N 
ATOM     20  H   UNL     1       4.949  -1.069  -4.208  0.00  0.00    +0.174 HD
BRANCH  19  21
ATOM     21  C   UNL     1       6.012   0.685  -4.402  0.00  0.00    +0.048 A 
ATOM     22  C   UNL     1       6.520   1.776  -3.708  0.00  0.00    +0.026 A 
ATOM     23  C   UNL     1       7.223   2.755  -4.383  0.00  0.00    +0.022 A 
ATOM     24  C   UNL     1       7.411   2.656  -5.750  0.00  0.00    +0.041 A 
ATOM     25  C   UNL     1       6.901   1.573  -6.445  0.00  0.00    +0.022 A 
ATOM     26  C   UNL     1       6.203   0.588  -5.775  0.00  0.00    +0.026 A 
ATOM     27 CL   UNL     1       8.289   3.892  -6.596  0.00  0.00    -0.084 Cl
ENDBRANCH  19  21
ENDBRANCH   2  19
TORSDOF 6
