REMARK  Name = ZINC22039237
REMARK  9 active torsions:
REMARK  status: ('A' for Active; 'I' for Inactive)
REMARK    1  A    between atoms: C_1  and  C_2
REMARK    2  A    between atoms: C_7  and  C_9
REMARK    3  A    between atoms: C_7  and  C_10
REMARK    4  A    between atoms: N_13  and  C_17
REMARK    5  A    between atoms: C_17  and  C_18
REMARK    6  A    between atoms: C_18  and  O_20
REMARK    7  A    between atoms: O_20  and  C_21
REMARK    8  A    between atoms: C_21  and  C_22
REMARK    9  A    between atoms: N_24  and  C_25
REMARK                            x       y       z     vdW  Elec       q    Type
REMARK                         _______ _______ _______ _____ _____    ______ ____
ROOT
ATOM      1  C   UNL     1      -3.408  -4.681  -3.046  0.00  0.00    +0.238 C 
ENDROOT
BRANCH   1  13
ATOM      2  C   UNL     1       0.360   0.756  -0.499  0.00  0.00    +0.007 C 
ATOM      3  C   UNL     1       0.528  -0.683  -0.990  0.00  0.00    -0.011 C 
ATOM      4  C   UNL     1      -0.817  -1.410  -0.910  0.00  0.00    +0.038 C 
ATOM      5  C   UNL     1      -0.646  -2.851  -1.379  0.00  0.00    +0.113 C 
ATOM      6  C   UNL     1       0.386  -3.578  -0.525  0.00  0.00    +0.041 C 
ATOM      7  C   UNL     1       1.727  -2.843  -0.606  0.00  0.00    -0.032 C 
ATOM      8  C   UNL     1       1.550  -1.406  -0.111  0.00  0.00    +0.009 C 
ATOM      9  C   UNL     1       2.756  -3.561   0.269  0.00  0.00    +0.011 C 
ATOM     10  C   UNL     1       2.212  -2.826  -2.057  0.00  0.00    +0.011 C 
ATOM     11  C   UNL     1      -1.970  -3.579  -1.341  0.00  0.00    +0.247 C 
ATOM     12  O   UNL     1      -2.664  -3.791  -0.370  0.00  0.00    -0.273 OA
ATOM     13  N   UNL     1      -2.217  -3.943  -2.617  0.00  0.00    -0.213 N 
ATOM     14  C   UNL     1      -1.240  -3.547  -3.441  0.00  0.00    +0.310 C 
ATOM     15  O   UNL     1      -1.238  -3.758  -4.638  0.00  0.00    -0.252 OA
ATOM     16  N   UNL     1      -0.259  -2.888  -2.795  0.00  0.00    -0.285 N 
ATOM     17  H   UNL     1       0.544  -2.512  -3.188  0.00  0.00    +0.151 HD
ENDBRANCH   1  13
BRANCH   1  18
ATOM     18  C   UNL     1      -4.498  -3.707  -3.412  0.00  0.00    +0.326 C 
ATOM     19  O   UNL     1      -4.301  -2.518  -3.322  0.00  0.00    -0.249 OA
BRANCH  18  20
ATOM     20  O   UNL     1      -5.688  -4.160  -3.836  0.00  0.00    -0.454 OA
BRANCH  20  21
ATOM     21  C   UNL     1      -6.675  -3.180  -4.165  0.00  0.00    +0.328 C 
BRANCH  21  22
ATOM     22  C   UNL     1      -7.936  -3.870  -4.618  0.00  0.00    +0.255 C 
ATOM     23  O   UNL     1      -7.985  -5.081  -4.656  0.00  0.00    -0.272 OA
ATOM     24  N   UNL     1      -9.010  -3.141  -4.982  0.00  0.00    -0.280 N 
ATOM     25  H   UNL     1      -8.955  -2.172  -5.001  0.00  0.00    +0.155 HD
BRANCH  24  26
ATOM     26  C   UNL     1     -10.204  -3.781  -5.333  0.00  0.00    +0.071 A 
ATOM     27  C   UNL     1     -10.672  -4.848  -4.575  0.00  0.00    +0.064 A 
ATOM     28  C   UNL     1     -11.851  -5.477  -4.925  0.00  0.00    +0.022 A 
ATOM     29  C   UNL     1     -12.566  -5.047  -6.027  0.00  0.00    +0.003 A 
ATOM     30  C   UNL     1     -12.105  -3.986  -6.784  0.00  0.00    +0.022 A 
ATOM     31  C   UNL     1     -10.929  -3.348  -6.437  0.00  0.00    +0.064 A 
ATOM     32 CL   UNL     1     -10.354  -2.010  -7.383  0.00  0.00    -0.082 Cl
ATOM     33 CL   UNL     1      -9.774  -5.389  -3.191  0.00  0.00    -0.082 Cl
ENDBRANCH  24  26
ENDBRANCH  21  22
ENDBRANCH  20  21
ENDBRANCH  18  20
ENDBRANCH   1  18
TORSDOF 6
