REMARK  Name = ZINC21314815
REMARK  6 active torsions:
REMARK  status: ('A' for Active; 'I' for Inactive)
REMARK    1  A    between atoms: C_1  and  N_2
REMARK    2  A    between atoms: N_7  and  C_10
REMARK    3  A    between atoms: N_11  and  C_30
REMARK    4  A    between atoms: C_20  and  C_22
REMARK    5  A    between atoms: C_23  and  C_24
REMARK    6  A    between atoms: C_30  and  C_31
REMARK                            x       y       z     vdW  Elec       q    Type
REMARK                         _______ _______ _______ _____ _____    ______ ____
ROOT
ATOM      1  C   UNL     1      -2.564   3.752   0.514  0.00  0.00    +0.155 C 
ATOM      2  N   UNL     1      -1.233   3.143   0.452  0.00  0.00    -0.280 N 
ATOM      3  C   UNL     1      -0.120   3.934   0.212  0.00  0.00    +0.170 A 
ATOM      4  C   UNL     1       1.132   3.331   0.159  0.00  0.00    +0.153 A 
ATOM      5  C   UNL     1       1.233   1.942   0.348  0.00  0.00    +0.282 A 
ATOM      6  O   UNL     1       2.320   1.392   0.305  0.00  0.00    -0.265 OA
ATOM      7  N   UNL     1       0.115   1.223   0.578  0.00  0.00    -0.262 N 
ATOM      8  C   UNL     1      -1.091   1.815   0.622  0.00  0.00    +0.333 A 
ATOM      9  O   UNL     1      -2.079   1.135   0.826  0.00  0.00    -0.246 OA
ATOM     10  C   UNL     1       0.215  -0.225   0.776  0.00  0.00    +0.157 C 
ATOM     11  N   UNL     1       2.045   4.347  -0.091  0.00  0.00    -0.302 N 
ATOM     12  C   UNL     1       1.331   5.501  -0.178  0.00  0.00    +0.201 A 
ATOM     13  N   UNL     1       0.053   5.240   0.004  0.00  0.00    -0.196 NA
ATOM     14  N   UNL     1       1.862   6.748  -0.418  0.00  0.00    -0.298 N 
ATOM     15  C   UNL     1       1.760   7.602   0.772  0.00  0.00    +0.127 C 
ATOM     16  C   UNL     1       2.519   8.910   0.525  0.00  0.00    +0.127 C 
ATOM     17  N   UNL     1       2.017   9.514  -0.719  0.00  0.00    -0.295 N 
ATOM     18  C   UNL     1       1.961   8.675  -1.926  0.00  0.00    +0.127 C 
ATOM     19  C   UNL     1       1.224   7.376  -1.582  0.00  0.00    +0.127 C 
ATOM     20  C   UNL     1       1.620  10.801  -0.752  0.00  0.00    +0.240 C 
ATOM     21  O   UNL     1       1.758  11.506   0.230  0.00  0.00    -0.271 OA
ENDROOT
BRANCH  20  22
ATOM     22  C   UNL     1       1.023  11.352  -1.970  0.00  0.00    +0.068 C 
ATOM     23  C   UNL     1       0.532  12.607  -1.972  0.00  0.00    +0.013 C 
BRANCH  23  24
ATOM     24  C   UNL     1      -0.069  13.161  -3.197  0.00  0.00    -0.025 A 
ATOM     25  C   UNL     1      -0.126  12.390  -4.362  0.00  0.00    +0.008 A 
ATOM     26  C   UNL     1      -0.695  12.914  -5.504  0.00  0.00    +0.001 A 
ATOM     27  C   UNL     1      -1.197  14.204  -5.502  0.00  0.00    +0.000 A 
ATOM     28  C   UNL     1      -1.140  14.975  -4.354  0.00  0.00    +0.001 A 
ATOM     29  C   UNL     1      -0.579  14.463  -3.203  0.00  0.00    +0.008 A 
ENDBRANCH  23  24
ENDBRANCH  20  22
BRANCH  11  30
ATOM     30  C   UNL     1       3.495   4.203  -0.233  0.00  0.00    +0.160 C 
BRANCH  30  31
ATOM     31  C   UNL     1       3.845   4.057  -1.691  0.00  0.00    -0.028 A 
ATOM     32  C   UNL     1       3.902   2.801  -2.266  0.00  0.00    +0.007 A 
ATOM     33  C   UNL     1       4.218   2.667  -3.605  0.00  0.00    +0.020 A 
ATOM     34  C   UNL     1       4.487   3.789  -4.367  0.00  0.00    +0.041 A 
ATOM     35  C   UNL     1       4.435   5.045  -3.791  0.00  0.00    +0.020 A 
ATOM     36  C   UNL     1       4.114   5.179  -2.453  0.00  0.00    +0.007 A 
ATOM     37 CL   UNL     1       4.889   3.620  -6.048  0.00  0.00    -0.084 Cl
ENDBRANCH  30  31
ENDBRANCH  11  30
TORSDOF 4
