REMARK  Name = ZINC47295168
REMARK  5 active torsions:
REMARK  status: ('A' for Active; 'I' for Inactive)
REMARK    1  A    between atoms: C_2  and  C_9
REMARK    2  A    between atoms: C_4  and  N_6
REMARK    3  A    between atoms: N_11  and  N_12
REMARK    4  A    between atoms: C_13  and  C_15
REMARK    5  A    between atoms: C_15  and  C_16
REMARK                            x       y       z     vdW  Elec       q    Type
REMARK                         _______ _______ _______ _____ _____    ______ ____
ROOT
ATOM      1  N   UNL     1       4.057   1.461   2.487  0.00  0.00    -0.234 N 
ATOM      2  C   UNL     1       5.224   2.134   2.535  0.00  0.00    +0.230 C 
ATOM      3  O   UNL     1       5.617   2.737   1.558  0.00  0.00    -0.274 OA
ATOM      4  H   UNL     1       3.743   0.979   3.268  0.00  0.00    +0.173 HD
ENDROOT
BRANCH   1   7
ATOM      5  C   UNL     1       2.132   0.783   1.261  0.00  0.00    +0.234 C 
ATOM      6  O   UNL     1       1.739   0.181   2.237  0.00  0.00    -0.274 OA
ATOM      7  N   UNL     1       3.299   1.457   1.309  0.00  0.00    -0.234 N 
ATOM      8  H   UNL     1       3.613   1.938   0.528  0.00  0.00    +0.173 HD
BRANCH   5  10
ATOM      9  C   UNL     1      -0.019   1.526   0.010  0.00  0.00    +0.047 C 
ATOM     10  C   UNL     1       1.317   0.779  -0.006  0.00  0.00    +0.108 C 
ATOM     11  C   UNL     1       0.002  -0.004   0.002  0.00  0.00    +0.182 C 
BRANCH  11  12
ATOM     12  N   UNL     1      -0.367  -0.692   1.241  0.00  0.00    +0.026 N 
ATOM     13  O   UNL     1      -0.518  -1.892   1.245  0.00  0.00    -0.131 OA
ATOM     14  O   UNL     1      -0.522  -0.061   2.261  0.00  0.00    -0.131 OA
ENDBRANCH  11  12
ENDBRANCH   5  10
ENDBRANCH   1   7
BRANCH   2  15
ATOM     15  C   UNL     1       6.040   2.139   3.802  0.00  0.00    +0.104 C 
BRANCH  15  16
ATOM     16  C   UNL     1       7.306   2.970   3.590  0.00  0.00    -0.020 C 
ATOM     17  C   UNL     1       8.132   2.361   2.454  0.00  0.00    +0.011 C 
ATOM     18  C   UNL     1       9.399   3.193   2.242  0.00  0.00    -0.010 C 
ATOM     19  C   UNL     1      10.227   3.197   3.529  0.00  0.00    +0.007 C 
ATOM     20  C   UNL     1       9.402   3.806   4.664  0.00  0.00    -0.010 C 
ATOM     21  C   UNL     1       8.135   2.975   4.876  0.00  0.00    +0.011 C 
ATOM     22  C   UNL     1       9.015   5.241   4.301  0.00  0.00    +0.007 C 
ATOM     23  C   UNL     1       8.187   5.237   3.015  0.00  0.00    -0.010 C 
ATOM     24  C   UNL     1       9.012   4.628   1.879  0.00  0.00    +0.007 C 
ATOM     25  C   UNL     1       6.920   4.405   3.227  0.00  0.00    +0.011 C 
ENDBRANCH  15  16
ENDBRANCH   2  15
TORSDOF 5
