REMARK  Name = ZINC39922835
REMARK  5 active torsions:
REMARK  status: ('A' for Active; 'I' for Inactive)
REMARK    1  A    between atoms: C_10  and  C_11
REMARK    2  A    between atoms: C_13  and  C_17
REMARK    3  A    between atoms: N_19  and  N_20
REMARK    4  A    between atoms: C_21  and  C_22
REMARK    5  A    between atoms: C_27  and  O_28
REMARK                            x       y       z     vdW  Elec       q    Type
REMARK                         _______ _______ _______ _____ _____    ______ ____
ROOT
ATOM      1  C   UNL     1       4.948   0.137  -0.044  0.00  0.00    +0.092 C 
ATOM      2  C   UNL     1       5.045   1.480  -0.130  0.00  0.00    +0.041 C 
ATOM      3  C   UNL     1       6.540   1.740  -0.098  0.00  0.00    +0.240 C 
ATOM      4  N   UNL     1       7.114   0.388   0.010  0.00  0.00    -0.170 NA
ATOM      5  N   UNL     1       6.185  -0.422   0.039  0.00  0.00    -0.153 NA
ENDROOT
BRANCH   1  15
ATOM      6  C   UNL     1       2.737  -3.236   3.098  0.00  0.00    +0.001 A 
ATOM      7  C   UNL     1       3.941  -2.534   3.110  0.00  0.00    +0.001 A 
ATOM      8  C   UNL     1       4.263  -1.679   2.100  0.00  0.00    +0.009 A 
ATOM      9  C   UNL     1       3.374  -1.500   1.031  0.00  0.00    -0.009 A 
ATOM     10  C   UNL     1       2.150  -2.212   1.017  0.00  0.00    -0.017 A 
ATOM     11  C   UNL     1       1.851  -3.087   2.076  0.00  0.00    +0.008 A 
ATOM     12  C   UNL     1       1.258  -2.035  -0.054  0.00  0.00    +0.008 A 
ATOM     13  C   UNL     1       1.572  -1.182  -1.070  0.00  0.00    +0.001 A 
ATOM     14  C   UNL     1       2.768  -0.475  -1.071  0.00  0.00    +0.011 A 
ATOM     15  C   UNL     1       3.675  -0.620  -0.036  0.00  0.00    +0.010 A 
ENDBRANCH   1  15
BRANCH   3  16
ATOM     16  C   UNL     1       6.991   2.412  -1.369  0.00  0.00    +0.263 C 
ATOM     17  O   UNL     1       7.513   1.760  -2.249  0.00  0.00    -0.271 OA
ATOM     18  N   UNL     1       6.813   3.739  -1.530  0.00  0.00    -0.205 N 
ATOM     19  H   UNL     1       6.395   4.260  -0.827  0.00  0.00    +0.177 HD
BRANCH  18  20
ATOM     20  N   UNL     1       7.231   4.364  -2.711  0.00  0.00    -0.188 NA
ATOM     21  C   UNL     1       7.060   5.641  -2.866  0.00  0.00    +0.142 C 
BRANCH  21  22
ATOM     22  C   UNL     1       7.501   6.299  -4.109  0.00  0.00    +0.036 A 
ATOM     23  C   UNL     1       7.324   7.674  -4.277  0.00  0.00    +0.013 A 
ATOM     24  C   UNL     1       7.738   8.283  -5.442  0.00  0.00    +0.001 A 
ATOM     25  C   UNL     1       8.330   7.538  -6.447  0.00  0.00    +0.004 A 
ATOM     26  C   UNL     1       8.510   6.176  -6.294  0.00  0.00    +0.046 A 
ATOM     27  C   UNL     1       8.105   5.549  -5.127  0.00  0.00    +0.125 A 
BRANCH  27  28
ATOM     28  O   UNL     1       8.287   4.212  -4.973  0.00  0.00    -0.506 OA
ATOM     29  H   UNL     1       7.547   3.675  -5.288  0.00  0.00    +0.292 HD
ENDBRANCH  27  28
ENDBRANCH  21  22
ENDBRANCH  18  20
ENDBRANCH   3  16
TORSDOF 5
