REMARK  Name = ZINC24130569
REMARK  4 active torsions:
REMARK  status: ('A' for Active; 'I' for Inactive)
REMARK    1  A    between atoms: C_6  and  C_7
REMARK    2  A    between atoms: N_9  and  N_10
REMARK    3  A    between atoms: C_11  and  C_13
REMARK    4  A    between atoms: C_13  and  C_14
REMARK                            x       y       z     vdW  Elec       q    Type
REMARK                         _______ _______ _______ _____ _____    ______ ____
ROOT
ATOM      1  N   UNL     1       3.008  -3.826   1.034  0.00  0.00    -0.234 N 
ATOM      2  C   UNL     1       2.660  -2.528   1.135  0.00  0.00    +0.229 C 
ATOM      3  O   UNL     1       3.310  -1.779   1.834  0.00  0.00    -0.274 OA
ATOM      4  H   UNL     1       2.419  -4.506   0.400  0.00  0.00    +0.173 HD
ENDROOT
BRANCH   1   7
ATOM      5  C   UNL     1       4.467  -5.609   1.634  0.00  0.00    +0.276 C 
ATOM      6  O   UNL     1       3.815  -6.361   0.933  0.00  0.00    -0.267 OA
ATOM      7  N   UNL     1       4.120  -4.311   1.736  0.00  0.00    -0.229 N 
ATOM      8  H   UNL     1       4.709  -3.632   2.369  0.00  0.00    +0.173 HD
BRANCH   5  14
ATOM      9  C   UNL     1       6.096  -7.414   2.363  0.00  0.00    +0.052 A 
ATOM     10  C   UNL     1       7.221  -7.452   3.194  0.00  0.00    +0.059 A 
ATOM     11  C   UNL     1       7.414  -6.205   3.688  0.00  0.00    +0.103 A 
ATOM     12  N   UNL     1       6.454  -5.384   3.194  0.00  0.00    -0.356 N 
ATOM     13  H   UNL     1       6.439  -4.322   3.479  0.00  0.00    +0.166 HD
ATOM     14  C   UNL     1       5.631  -6.116   2.369  0.00  0.00    +0.105 A 
ATOM     15 CL   UNL     1       8.193  -8.849   3.536  0.00  0.00    -0.082 Cl
ENDBRANCH   5  14
ENDBRANCH   1   7
BRANCH   2  16
ATOM     16  C   UNL     1       1.464  -2.007   0.381  0.00  0.00    +0.102 C 
BRANCH  16  17
ATOM     17  C   UNL     1       1.291  -0.515   0.668  0.00  0.00    +0.020 C 
ATOM     18  C   UNL     1       0.002  -0.004   0.002  0.00  0.00    +0.028 C 
ATOM     19  C   UNL     1      -0.019   1.544   0.011  0.00  0.00    +0.166 C 
ATOM     20  S   UNL     1       1.770   1.972  -0.004  0.00  0.00    -0.031 S 
ATOM     21  O   UNL     1       2.095   2.556  -1.258  0.00  0.00    -0.174 OA
ATOM     22  O   UNL     1       2.089   2.665   1.194  0.00  0.00    -0.174 OA
ATOM     23  C   UNL     1       2.490   0.278   0.073  0.00  0.00    +0.170 C 
ENDBRANCH  16  17
ENDBRANCH   2  16
TORSDOF 4
