REMARK  Name = ZINC53168554
REMARK  4 active torsions:
REMARK  status: ('A' for Active; 'I' for Inactive)
REMARK    1  A    between atoms: C_5  and  S_8
REMARK    2  A    between atoms: C_6  and  N_7
REMARK    3  A    between atoms: S_8  and  C_9
REMARK    4  A    between atoms: C_15  and  N_17
REMARK                            x       y       z     vdW  Elec       q    Type
REMARK                         _______ _______ _______ _____ _____    ______ ____
ROOT
ATOM      1  S   UNL     1       1.251  -2.444  -0.024  0.00  0.00    -0.047 S 
ENDROOT
BRANCH   1   6
ATOM      2  C   UNL     1      -0.017   1.382   0.010  0.00  0.00    +0.027 A 
ATOM      3  C   UNL     1       1.171   2.091   0.002  0.00  0.00    +0.043 A 
ATOM      4  C   UNL     1       2.381   1.421  -0.013  0.00  0.00    +0.160 A 
ATOM      5  C   UNL     1       2.409   0.035  -0.021  0.00  0.00    +0.174 A 
ATOM      6  C   UNL     1       1.220  -0.682  -0.013  0.00  0.00    +0.074 A 
ATOM      7  C   UNL     1       0.002  -0.004   0.002  0.00  0.00    +0.042 A 
ATOM      8  F   UNL     1       3.592  -0.618  -0.036  0.00  0.00    -0.201 F 
ATOM      9  F   UNL     1       3.538   2.118  -0.021  0.00  0.00    -0.202 F 
BRANCH   7  10
ATOM     10  N   UNL     1      -1.200  -0.722   0.010  0.00  0.00    -0.357 N 
ATOM     11  H   UNL     1      -2.047  -0.250   0.021  0.00  0.00    +0.142 HD
ATOM     12  H   UNL     1      -1.186  -1.692   0.005  0.00  0.00    +0.142 HD
ENDBRANCH   7  10
ENDBRANCH   1   6
BRANCH   1  13
ATOM     13  C   UNL     1       1.275  -2.880   1.683  0.00  0.00    +0.176 A 
ATOM     14  N   UNL     1       1.307  -4.196   2.036  0.00  0.00    -0.302 N 
ATOM     15  H   UNL     1       1.316  -4.881   1.349  0.00  0.00    +0.171 HD
ATOM     16  C   UNL     1       1.327  -4.548   3.338  0.00  0.00    +0.254 A 
ATOM     17  O   UNL     1       1.357  -5.724   3.663  0.00  0.00    -0.268 OA
ATOM     18  C   UNL     1       1.313  -3.542   4.310  0.00  0.00    +0.113 A 
ATOM     19  C   UNL     1       1.280  -2.217   3.899  0.00  0.00    +0.124 A 
ATOM     20  N   UNL     1       1.267  -1.927   2.593  0.00  0.00    -0.208 NA
BRANCH  19  21
ATOM     21  N   UNL     1       1.266  -1.201   4.834  0.00  0.00    -0.343 N 
ATOM     22  H   UNL     1       1.280  -1.413   5.780  0.00  0.00    +0.144 HD
ATOM     23  H   UNL     1       1.243  -0.276   4.545  0.00  0.00    +0.144 HD
ENDBRANCH  19  21
ENDBRANCH   1  13
TORSDOF 4
