REMARK  Name = ZINC38829881
REMARK  8 active torsions:
REMARK  status: ('A' for Active; 'I' for Inactive)
REMARK    1  A    between atoms: C_1  and  C_2
REMARK    2  A    between atoms: C_5  and  N_8
REMARK    3  A    between atoms: N_10  and  C_21
REMARK    4  A    between atoms: C_15  and  C_20
REMARK    5  A    between atoms: C_16  and  C_19
REMARK    6  A    between atoms: C_21  and  C_22
REMARK    7  A    between atoms: C_22  and  C_23
REMARK    8  A    between atoms: C_23  and  O_24
REMARK                            x       y       z     vdW  Elec       q    Type
REMARK                         _______ _______ _______ _____ _____    ______ ____
ROOT
ATOM      1  N   UNL     1       0.059  -4.169  -0.021  0.00  0.00    -0.288 N 
ATOM      2  C   UNL     1       0.180  -4.900   1.236  0.00  0.00    +0.041 C 
ATOM      3  N   UNL     1      -0.587  -6.139   1.196  0.00  0.00    +0.402 N 
ATOM      4  C   UNL     1      -0.278  -6.954   0.033  0.00  0.00    +0.055 C 
ATOM      5  N   UNL     1      -0.250  -6.189  -1.208  0.00  0.00    -0.297 N 
ATOM      6  C   UNL     1      -0.041  -4.846  -1.210  0.00  0.00    +0.202 A 
ATOM      7  N   UNL     1       0.069  -4.177  -2.342  0.00  0.00    -0.220 NA
ATOM      8  C   UNL     1      -0.066  -4.775  -3.522  0.00  0.00    +0.050 A 
ATOM      9  C   UNL     1      -0.333  -6.112  -3.581  0.00  0.00    +0.035 A 
ATOM     10  C   UNL     1      -0.432  -6.835  -2.384  0.00  0.00    +0.257 A 
ATOM     11  O   UNL     1      -0.694  -8.027  -2.402  0.00  0.00    -0.267 OA
ATOM     12  C   UNL     1      -0.508  -6.802  -4.910  0.00  0.00    +0.051 C 
ATOM     13  C   UNL     1       0.076  -3.978  -4.793  0.00  0.00    +0.066 C 
ATOM     14  H   UNL     1      -1.570  -5.913   1.183  0.00  0.00    -0.077 HD
ENDROOT
BRANCH   1  19
ATOM     15  C   UNL     1      -0.018   1.503   0.011  0.00  0.00    +0.044 C 
ATOM     16  C   UNL     1       0.003  -0.004   0.003  0.00  0.00    -0.050 A 
ATOM     17  C   UNL     1      -1.130  -0.707  -0.363  0.00  0.00    +0.005 A 
ATOM     18  C   UNL     1      -1.115  -2.088  -0.372  0.00  0.00    +0.024 A 
ATOM     19  C   UNL     1       0.041  -2.771  -0.013  0.00  0.00    +0.034 A 
ATOM     20  C   UNL     1       1.177  -2.061   0.353  0.00  0.00    +0.024 A 
ATOM     21  C   UNL     1       1.156  -0.680   0.355  0.00  0.00    +0.005 A 
ENDBRANCH   1  19
BRANCH   3  22
ATOM     22  C   UNL     1      -0.297  -6.915   2.409  0.00  0.00    -0.072 C 
BRANCH  22  23
ATOM     23  C   UNL     1      -1.187  -8.159   2.443  0.00  0.00    +0.009 C 
BRANCH  23  24
ATOM     24  C   UNL     1      -0.886  -8.967   3.707  0.00  0.00    +0.154 C 
BRANCH  24  25
ATOM     25  O   UNL     1      -1.717 -10.129   3.739  0.00  0.00    -0.395 OA
ATOM     26  H   UNL     1      -1.579 -10.690   4.514  0.00  0.00    +0.209 HD
ENDBRANCH  24  25
ENDBRANCH  23  24
ENDBRANCH  22  23
ENDBRANCH   3  22
TORSDOF 5
