REMARK  Name = ZINC49661722
REMARK  4 active torsions:
REMARK  status: ('A' for Active; 'I' for Inactive)
REMARK    1  A    between atoms: C_1  and  C_2
REMARK    2  A    between atoms: C_3  and  N_9
REMARK    3  A    between atoms: C_10  and  C_12
REMARK    4  A    between atoms: C_15  and  C_20
REMARK                            x       y       z     vdW  Elec       q    Type
REMARK                         _______ _______ _______ _____ _____    ______ ____
ROOT
ATOM      1  N   UNL     1      -0.010   0.010  -2.413  0.00  0.00    -0.279 N 
ATOM      2  C   UNL     1       0.095  -0.654  -3.580  0.00  0.00    +0.275 C 
ATOM      3  O   UNL     1       0.112  -1.870  -3.589  0.00  0.00    -0.268 OA
ATOM      4  H   UNL     1      -0.104   0.976  -2.410  0.00  0.00    +0.155 HD
ENDROOT
BRANCH   1   7
ATOM      5  C   UNL     1      -1.264   1.189  -0.146  0.00  0.00    +0.047 C 
ATOM      6  C   UNL     1      -0.583  -0.153  -0.073  0.00  0.00    -0.011 A 
ATOM      7  C   UNL     1       0.017  -0.692  -1.204  0.00  0.00    +0.038 A 
ATOM      8  C   UNL     1       0.643  -1.929  -1.132  0.00  0.00    +0.023 A 
ATOM      9  C   UNL     1       0.667  -2.621   0.064  0.00  0.00    +0.003 A 
ATOM     10  C   UNL     1       0.069  -2.084   1.188  0.00  0.00    +0.020 A 
ATOM     11  C   UNL     1      -0.551  -0.848   1.122  0.00  0.00    +0.046 A 
ATOM     12 CL   UNL     1      -1.294  -0.173   2.538  0.00  0.00    -0.083 Cl
ENDBRANCH   1   7
BRANCH   2  13
ATOM     13  C   UNL     1       0.190   0.095  -4.850  0.00  0.00    +0.187 A 
ATOM     14  N   UNL     1       0.194   1.389  -5.042  0.00  0.00    -0.151 NA
ATOM     15  N   UNL     1       0.291   1.926  -6.319  0.00  0.00    -0.190 N 
ATOM     16  C   UNL     1       0.330   3.155  -6.948  0.00  0.00    +0.159 A 
ATOM     17  N   UNL     1       0.434   2.948  -8.230  0.00  0.00    -0.131 NA
ATOM     18  N   UNL     1       0.465   1.684  -8.474  0.00  0.00    -0.120 NA
ATOM     19  C   UNL     1       0.382   1.026  -7.358  0.00  0.00    +0.218 A 
ATOM     20  S   UNL     1       0.337  -0.535  -6.515  0.00  0.00    -0.022 S 
BRANCH  16  21
ATOM     21  C   UNL     1       0.264   4.500  -6.271  0.00  0.00    +0.059 C 
ATOM     22  C   UNL     1       0.120   5.734  -7.163  0.00  0.00    +0.012 C 
ATOM     23  C   UNL     1       1.450   5.447  -6.463  0.00  0.00    +0.012 C 
ENDBRANCH  16  21
ENDBRANCH   2  13
TORSDOF 3
