REMARK  Name = ZINC63351289
REMARK  8 active torsions:
REMARK  status: ('A' for Active; 'I' for Inactive)
REMARK    1  A    between atoms: C_1  and  C_2
REMARK    2  A    between atoms: C_2  and  C_35
REMARK    3  A    between atoms: N_20  and  N_23
REMARK    4  A    between atoms: C_24  and  C_25
REMARK    5  A    between atoms: C_28  and  O_33
REMARK    6  A    between atoms: C_30  and  O_31
REMARK    7  A    between atoms: O_31  and  C_32
REMARK    8  A    between atoms: O_33  and  C_34
REMARK                            x       y       z     vdW  Elec       q    Type
REMARK                         _______ _______ _______ _____ _____    ______ ____
ROOT
ATOM      1  C   UNL     1      -0.019   1.522   0.010  0.00  0.00    +0.034 C 
ATOM      2  C   UNL     1       0.002  -0.004   0.002  0.00  0.00    +0.057 C 
ATOM      3  C   UNL     1       0.750  -0.510  -1.237  0.00  0.00    +0.129 C 
ATOM      4  C   UNL     1       0.800  -2.029  -1.108  0.00  0.00    -0.034 C 
ATOM      5  C   UNL     1       0.271  -2.517  -2.223  0.00  0.00    -0.001 A 
ATOM      6  C   UNL     1       0.092  -3.897  -2.702  0.00  0.00    +0.010 A 
ATOM      7  C   UNL     1      -0.502  -4.038  -3.916  0.00  0.00    +0.001 A 
ATOM      8  C   UNL     1      -0.933  -2.958  -4.692  0.00  0.00    +0.002 A 
ATOM      9  C   UNL     1      -0.807  -1.655  -4.331  0.00  0.00    +0.026 A 
ATOM     10  C   UNL     1      -0.193  -1.379  -3.075  0.00  0.00    +0.043 A 
ATOM     11  N   UNL     1       0.058  -0.242  -2.493  0.00  0.00    -0.375 N 
ATOM     12  C   UNL     1       1.348  -2.708   0.123  0.00  0.00    +0.065 C 
ATOM     13  C   UNL     1       0.655  -2.045   1.329  0.00  0.00    +0.168 C 
ATOM     14  N   UNL     1       0.699  -0.582   1.167  0.00  0.00    -0.281 N 
ATOM     15  C   UNL     1       1.394   0.152   2.037  0.00  0.00    +0.236 C 
ATOM     16  O   UNL     1       1.994   1.148   1.728  0.00  0.00    -0.274 OA
ATOM     17  C   UNL     1       1.508  -0.244   3.487  0.00  0.00    +0.230 C 
ATOM     18  N   UNL     1       1.653  -1.689   3.590  0.00  0.00    -0.183 N 
ATOM     19  C   UNL     1       1.300  -2.504   2.596  0.00  0.00    +0.256 C 
ATOM     20  O   UNL     1       1.516  -3.690   2.728  0.00  0.00    -0.272 OA
ATOM     21  C   UNL     1      -1.450  -0.504  -0.043  0.00  0.00    +0.034 C 
ATOM     22  H   UNL     1      -0.176   0.631  -2.847  0.00  0.00    +0.160 HD
ENDROOT
BRANCH  18  23
ATOM     23  N   UNL     1       2.177  -2.234   4.763  0.00  0.00    -0.184 NA
ATOM     24  C   UNL     1       2.527  -1.455   5.742  0.00  0.00    +0.142 C 
BRANCH  24  25
ATOM     25  C   UNL     1       3.080  -2.030   6.980  0.00  0.00    +0.036 A 
ATOM     26  C   UNL     1       3.451  -1.195   8.036  0.00  0.00    +0.016 A 
ATOM     27  C   UNL     1       3.968  -1.736   9.193  0.00  0.00    +0.046 A 
ATOM     28  C   UNL     1       4.121  -3.113   9.313  0.00  0.00    +0.124 A 
ATOM     29  C   UNL     1       3.756  -3.951   8.270  0.00  0.00    +0.091 A 
ATOM     30  C   UNL     1       3.230  -3.419   7.105  0.00  0.00    +0.132 A 
BRANCH  30  31
ATOM     31  O   UNL     1       2.866  -4.238   6.085  0.00  0.00    -0.494 OA
ATOM     32  C   UNL     1       3.047  -5.641   6.284  0.00  0.00    +0.277 C 
ENDBRANCH  30  31
BRANCH  28  33
ATOM     33  O   UNL     1       4.632  -3.639  10.456  0.00  0.00    -0.495 OA
ATOM     34  C   UNL     1       4.988  -2.720  11.491  0.00  0.00    +0.277 C 
ENDBRANCH  28  33
ENDBRANCH  24  25
ENDBRANCH  18  23
TORSDOF 4
