REMARK  Name = ZINC34704197
REMARK  10 active torsions:
REMARK  status: ('A' for Active; 'I' for Inactive)
REMARK    1  A    between atoms: C_3  and  C_10
REMARK    2  A    between atoms: C_5  and  N_7
REMARK    3  A    between atoms: C_12  and  C_13
REMARK    4  A    between atoms: C_13  and  C_14
REMARK    5  A    between atoms: N_26  and  C_27
REMARK    6  A    between atoms: C_27  and  C_28
REMARK    7  A    between atoms: C_28  and  O_29
REMARK    8  A    between atoms: O_29  and  C_30
REMARK    9  A    between atoms: C_30  and  C_31
REMARK   10  A    between atoms: C_31  and  O_32
REMARK                            x       y       z     vdW  Elec       q    Type
REMARK                         _______ _______ _______ _____ _____    ______ ____
ROOT
ATOM      1  C   UNL     1       3.381   1.867   0.021  0.00  0.00    +0.145 C 
ATOM      2  C   UNL     1       3.833   2.651   1.230  0.00  0.00    +0.076 C 
ATOM      3  C   UNL     1       3.878   3.952   0.858  0.00  0.00    +0.249 C 
ATOM      4  O   UNL     1       4.237   4.984   1.656  0.00  0.00    -0.282 OA
ATOM      5  C   UNL     1       3.471   4.065  -0.558  0.00  0.00    +0.288 C 
ATOM      6  O   UNL     1       3.409   5.104  -1.185  0.00  0.00    -0.266 OA
ATOM      7  N   UNL     1       3.180   2.848  -1.052  0.00  0.00    -0.281 N 
ENDROOT
BRANCH   1  10
ATOM      8  C   UNL     1      -0.268   1.220   0.740  0.00  0.00    +0.003 A 
ATOM      9  C   UNL     1       0.919   1.875   0.467  0.00  0.00    +0.006 A 
ATOM     10  C   UNL     1       2.088   1.153   0.320  0.00  0.00    -0.020 A 
ATOM     11  C   UNL     1       2.071  -0.224   0.447  0.00  0.00    +0.038 A 
ATOM     12  C   UNL     1       0.885  -0.878   0.721  0.00  0.00    +0.127 A 
ATOM     13  C   UNL     1      -0.285  -0.156   0.867  0.00  0.00    +0.033 A 
BRANCH  12  14
ATOM     14  N   UNL     1       0.867  -2.352   0.856  0.00  0.00    +0.056 N 
ATOM     15  O   UNL     1       1.904  -2.973   0.837  0.00  0.00    -0.126 OA
ATOM     16  O   UNL     1      -0.184  -2.934   0.986  0.00  0.00    -0.126 OA
ENDBRANCH  12  14
ENDBRANCH   1  10
BRANCH   2  17
ATOM     17  C   UNL     1       4.161   2.108   2.552  0.00  0.00    +0.195 C 
ATOM     18  O   UNL     1       3.466   2.385   3.513  0.00  0.00    -0.287 OA
BRANCH  17  19
ATOM     19  C   UNL     1       5.335   1.226   2.719  0.00  0.00    +0.022 A 
ATOM     20  C   UNL     1       6.201   1.000   1.646  0.00  0.00    +0.013 A 
ATOM     21  C   UNL     1       7.294   0.176   1.808  0.00  0.00    +0.016 A 
ATOM     22  C   UNL     1       7.534  -0.429   3.030  0.00  0.00    +0.018 A 
ATOM     23  C   UNL     1       6.679  -0.209   4.098  0.00  0.00    +0.016 A 
ATOM     24  C   UNL     1       5.586   0.618   3.951  0.00  0.00    +0.013 A 
ATOM     25 BR   UNL     1       9.036  -1.558   3.243  0.00  0.00    -0.050 Br
ENDBRANCH  17  19
ENDBRANCH   2  17
BRANCH   7  26
ATOM     26  C   UNL     1       2.740   2.554  -2.418  0.00  0.00    +0.137 C 
BRANCH  26  27
ATOM     27  C   UNL     1       1.213   2.614  -2.486  0.00  0.00    +0.179 C 
BRANCH  27  28
ATOM     28  O   UNL     1       0.778   3.951  -2.228  0.00  0.00    -0.376 OA
BRANCH  28  29
ATOM     29  C   UNL     1      -0.641   4.118  -2.268  0.00  0.00    +0.187 C 
BRANCH  29  30
ATOM     30  C   UNL     1      -0.991   5.579  -1.980  0.00  0.00    +0.184 C 
BRANCH  30  31
ATOM     31  O   UNL     1      -0.483   6.406  -3.028  0.00  0.00    -0.393 OA
ATOM     32  H   UNL     1      -0.669   7.348  -2.911  0.00  0.00    +0.209 HD
ENDBRANCH  30  31
ENDBRANCH  29  30
ENDBRANCH  28  29
ENDBRANCH  27  28
ENDBRANCH  26  27
ENDBRANCH   7  26
TORSDOF 10
