REMARK  Name = ZINC64120384
REMARK  4 active torsions:
REMARK  status: ('A' for Active; 'I' for Inactive)
REMARK    1  A    between atoms: C_1  and  C_2
REMARK    2  A    between atoms: C_7  and  C_8
REMARK    3  A    between atoms: C_13  and  C_17
REMARK    4  A    between atoms: C_20  and  C_23
REMARK                            x       y       z     vdW  Elec       q    Type
REMARK                         _______ _______ _______ _____ _____    ______ ____
ROOT
ATOM      1  C   UNL     1       0.032  -0.392   2.496  0.00  0.00    +0.267 C 
ATOM      2  O   UNL     1       0.019   0.795   2.765  0.00  0.00    -0.268 OA
ATOM      3  N   UNL     1       0.055  -1.306   3.485  0.00  0.00    -0.248 N 
ATOM      4  C   UNL     1       0.062  -0.892   4.820  0.00  0.00    +0.241 A 
ATOM      5  N   UNL     1       0.089  -1.700   5.881  0.00  0.00    -0.193 NA
ATOM      6  C   UNL     1       0.089  -0.982   6.987  0.00  0.00    +0.164 A 
ATOM      7  N   UNL     1       0.062   0.324   6.635  0.00  0.00    -0.257 N 
ATOM      8  H   UNL     1       0.055   1.088   7.233  0.00  0.00    +0.191 HD
ATOM      9  N   UNL     1       0.050   0.355   5.231  0.00  0.00    -0.136 NA
ATOM     10  H   UNL     1       0.065  -2.252   3.271  0.00  0.00    +0.158 HD
ENDROOT
BRANCH   1  17
ATOM     11  C   UNL     1      -0.018   1.503   0.010  0.00  0.00    +0.047 C 
ATOM     12  C   UNL     1       0.002  -0.004   0.002  0.00  0.00    -0.010 A 
ATOM     13  C   UNL     1       0.008  -0.834  -1.125  0.00  0.00    +0.042 A 
ATOM     14  C   UNL     1       0.026  -2.156  -0.678  0.00  0.00    +0.027 A 
ATOM     15  N   UNL     1       0.034  -2.137   0.655  0.00  0.00    -0.354 N 
ATOM     16  H   UNL     1       0.048  -2.921   1.227  0.00  0.00    +0.166 HD
ATOM     17  C   UNL     1       0.024  -0.827   1.094  0.00  0.00    +0.106 A 
ATOM     18  C   UNL     1       0.031  -3.337  -1.615  0.00  0.00    +0.054 C 
ATOM     19  C   UNL     1      -0.488  -2.895  -2.987  0.00  0.00    +0.014 C 
ATOM     20  C   UNL     1       0.287  -1.673  -3.491  0.00  0.00    +0.080 C 
ATOM     21  C   UNL     1       0.002  -0.505  -2.559  0.00  0.00    +0.165 C 
ATOM     22  O   UNL     1      -0.214   0.616  -2.968  0.00  0.00    -0.292 OA
ENDBRANCH   1  17
BRANCH   6  23
ATOM     23  C   UNL     1       0.114  -1.510   8.366  0.00  0.00    +0.048 C 
ATOM     24  C   UNL     1       0.147  -2.791   8.737  0.00  0.00    -0.008 C 
ATOM     25  C   UNL     1       0.154  -3.135  10.192  0.00  0.00    +0.042 C 
ATOM     26  C   UNL     1       0.577  -1.912  11.046  0.00  0.00    +0.052 C 
ATOM     27  S   UNL     1       0.115  -0.566   9.879  0.00  0.00    -0.118 S 
ATOM     28  C   UNL     1      -0.225  -1.833  12.347  0.00  0.00    +0.019 C 
ENDBRANCH   6  23
TORSDOF 2
