REMARK  Name = ZINC38979905
REMARK  5 active torsions:
REMARK  status: ('A' for Active; 'I' for Inactive)
REMARK    1  A    between atoms: C_4  and  S_7
REMARK    2  A    between atoms: S_7  and  N_10
REMARK    3  A    between atoms: C_12  and  N_22
REMARK    4  A    between atoms: N_22  and  C_23
REMARK    5  A    between atoms: C_23  and  C_24
REMARK                            x       y       z     vdW  Elec       q    Type
REMARK                         _______ _______ _______ _____ _____    ______ ____
ROOT
ATOM      1  N   UNL     1       4.378  -1.079   1.536  0.00  0.00    -0.112 NA
ATOM      2  C   UNL     1       5.487  -1.699   1.809  0.00  0.00    +0.167 C 
ATOM      3  C   UNL     1       5.900  -1.936   3.244  0.00  0.00    +0.217 C 
ATOM      4  N   UNL     1       7.167  -2.644   3.487  0.00  0.00    -0.362 N 
ATOM      5  C   UNL     1       7.869  -3.032   2.459  0.00  0.00    +0.060 A 
ATOM      6  C   UNL     1       9.142  -3.744   2.647  0.00  0.00    +0.027 A 
ATOM      7  C   UNL     1       9.842  -4.130   1.558  0.00  0.00    +0.002 A 
ATOM      8  C   UNL     1       9.384  -3.870   0.256  0.00  0.00    +0.002 A 
ATOM      9  C   UNL     1       8.226  -3.222   0.004  0.00  0.00    +0.028 A 
ATOM     10  C   UNL     1       7.410  -2.771   1.073  0.00  0.00    +0.064 A 
ATOM     11  N   UNL     1       6.280  -2.143   0.821  0.00  0.00    -0.338 N 
ATOM     12  H   UNL     1       7.472  -2.819   4.391  0.00  0.00    +0.162 HD
ATOM     13  H   UNL     1       6.016  -1.996  -0.100  0.00  0.00    +0.167 HD
ENDROOT
BRANCH   1  14
ATOM     14  S   UNL     1       3.934  -0.832  -0.041  0.00  0.00    +0.100 S 
ATOM     15  O   UNL     1       3.674  -2.114  -0.595  0.00  0.00    -0.146 OA
ATOM     16  O   UNL     1       4.890   0.060  -0.597  0.00  0.00    -0.146 OA
BRANCH  14  20
ATOM     17  C   UNL     1      -0.017   1.378   0.010  0.00  0.00    +0.000 A 
ATOM     18  C   UNL     1       1.171   2.086   0.002  0.00  0.00    +0.002 A 
ATOM     19  C   UNL     1       2.377   1.411  -0.013  0.00  0.00    +0.029 A 
ATOM     20  C   UNL     1       2.396   0.029  -0.020  0.00  0.00    +0.113 A 
ATOM     21  C   UNL     1       1.208  -0.679  -0.012  0.00  0.00    +0.029 A 
ATOM     22  C   UNL     1       0.002  -0.004   0.002  0.00  0.00    +0.002 A 
ENDBRANCH  14  20
ENDBRANCH   1  14
BRANCH   3  23
ATOM     23  N   UNL     1       5.985  -0.628   3.908  0.00  0.00    -0.288 NA
ATOM     24  H   UNL     1       6.943  -0.321   3.981  0.00  0.00    +0.124 HD
BRANCH  23  25
ATOM     25  C   UNL     1       5.343  -0.666   5.229  0.00  0.00    +0.114 C 
BRANCH  25  26
ATOM     26  C   UNL     1       5.450   0.711   5.888  0.00  0.00    +0.132 C 
ATOM     27  C   UNL     1       4.886   0.649   7.324  0.00  0.00    +0.035 C 
ATOM     28  C   UNL     1       4.140   2.006   7.443  0.00  0.00    +0.031 C 
ATOM     29  C   UNL     1       3.626   2.187   5.992  0.00  0.00    +0.160 C 
ATOM     30  O   UNL     1       4.671   1.663   5.155  0.00  0.00    -0.375 OA
ENDBRANCH  25  26
ENDBRANCH  23  25
ENDBRANCH   3  23
TORSDOF 5
