REMARK  Name = ZINC64538927
REMARK  6 active torsions:
REMARK  status: ('A' for Active; 'I' for Inactive)
REMARK    1  A    between atoms: C_1  and  C_2
REMARK    2  A    between atoms: C_7  and  S_8
REMARK    3  A    between atoms: S_8  and  N_11
REMARK    4  A    between atoms: C_17  and  C_19
REMARK    5  A    between atoms: C_19  and  C_20
REMARK    6  A    between atoms: C_30  and  C_35
REMARK                            x       y       z     vdW  Elec       q    Type
REMARK                         _______ _______ _______ _____ _____    ______ ____
ROOT
ATOM      1  N   UNL     1       1.616   1.132   2.607  0.00  0.00    -0.174 NA
ATOM      2  C   UNL     1       2.940   0.584   2.934  0.00  0.00    +0.128 C 
ATOM      3  C   UNL     1       3.872   0.805   1.736  0.00  0.00    +0.125 C 
ATOM      4  N   UNL     1       3.771   2.210   1.315  0.00  0.00    -0.299 N 
ATOM      5  C   UNL     1       2.447   2.758   0.988  0.00  0.00    +0.125 C 
ATOM      6  C   UNL     1       1.516   2.535   2.181  0.00  0.00    +0.128 C 
ATOM      7  C   UNL     1       4.872   2.982   1.231  0.00  0.00    +0.220 C 
ATOM      8  O   UNL     1       5.960   2.519   1.504  0.00  0.00    -0.275 OA
ENDROOT
BRANCH   1   9
ATOM      9  S   UNL     1       0.263   0.184   2.711  0.00  0.00    +0.061 S 
ATOM     10  O   UNL     1      -0.843   1.067   2.834  0.00  0.00    -0.153 OA
ATOM     11  O   UNL     1       0.545  -0.824   3.672  0.00  0.00    -0.153 OA
BRANCH   9  18
ATOM     12  C   UNL     1      -0.516   1.570   0.144  0.00  0.00    +0.046 C 
ATOM     13  C   UNL     1      -0.279   0.086   0.039  0.00  0.00    -0.022 A 
ATOM     14  C   UNL     1      -0.417  -0.550  -1.182  0.00  0.00    +0.032 A 
ATOM     15  C   UNL     1      -0.199  -1.914  -1.277  0.00  0.00    +0.076 A 
ATOM     16  C   UNL     1       0.159  -2.643  -0.143  0.00  0.00    +0.145 A 
ATOM     17  C   UNL     1       0.296  -2.000   1.074  0.00  0.00    +0.076 A 
ATOM     18  C   UNL     1       0.082  -0.636   1.161  0.00  0.00    +0.112 A 
ATOM     19  O   UNL     1       0.368  -3.982  -0.248  0.00  0.00    -0.478 OA
ATOM     20  C   UNL     1      -0.424  -4.684  -1.210  0.00  0.00    +0.256 C 
ATOM     21  C   UNL     1      -0.426  -3.925  -2.513  0.00  0.00    +0.258 C 
ATOM     22  O   UNL     1      -0.512  -4.523  -3.565  0.00  0.00    -0.271 OA
ATOM     23  N   UNL     1      -0.333  -2.578  -2.505  0.00  0.00    -0.280 N 
ATOM     24  C   UNL     1      -1.859  -4.811  -0.694  0.00  0.00    +0.062 C 
ATOM     25  H   UNL     1      -0.358  -2.077  -3.335  0.00  0.00    +0.155 HD
ENDBRANCH   9  18
ENDBRANCH   1   9
BRANCH   7  26
ATOM     26  C   UNL     1       4.753   4.420   0.799  0.00  0.00    +0.129 C 
BRANCH  26  27
ATOM     27  C   UNL     1       6.119   5.056   0.788  0.00  0.00    -0.033 C 
ATOM     28  C   UNL     1       6.947   5.188  -0.274  0.00  0.00    -0.001 A 
ATOM     29  C   UNL     1       6.827   4.792  -1.683  0.00  0.00    +0.010 A 
ATOM     30  C   UNL     1       7.846   5.064  -2.529  0.00  0.00    +0.001 A 
ATOM     31  C   UNL     1       9.011   5.713  -2.096  0.00  0.00    +0.002 A 
ATOM     32  C   UNL     1       9.194   6.107  -0.818  0.00  0.00    +0.026 A 
ATOM     33  C   UNL     1       8.186   5.872   0.158  0.00  0.00    +0.043 A 
ATOM     34  N   UNL     1       8.127   6.152   1.437  0.00  0.00    -0.380 N 
ATOM     35  C   UNL     1       6.840   5.683   1.960  0.00  0.00    +0.145 C 
ATOM     36  H   UNL     1       8.818   6.599   1.951  0.00  0.00    +0.160 HD
ENDBRANCH  26  27
ENDBRANCH   7  26
TORSDOF 4
