REMARK  Name = ZINC13811289
REMARK  9 active torsions:
REMARK  status: ('A' for Active; 'I' for Inactive)
REMARK    1  A    between atoms: C_1  and  O_2
REMARK    2  A    between atoms: O_2  and  C_3
REMARK    3  A    between atoms: C_5  and  C_13
REMARK    4  A    between atoms: C_6  and  O_11
REMARK    5  A    between atoms: C_8  and  O_9
REMARK    6  A    between atoms: O_9  and  C_10
REMARK    7  A    between atoms: O_11  and  C_12
REMARK    8  A    between atoms: N_21  and  C_24
REMARK    9  A    between atoms: N_32  and  C_33
REMARK                            x       y       z     vdW  Elec       q    Type
REMARK                         _______ _______ _______ _____ _____    ______ ____
ROOT
ATOM      1  C   UNL     1       2.401   0.384  -4.230  0.00  0.00    +0.161 C 
ATOM      2  C   UNL     1       3.925   0.539  -4.010  0.00  0.00    +0.146 C 
ATOM      3  C   UNL     1       4.047   1.912  -3.296  0.00  0.00    +0.249 C 
ATOM      4  C   UNL     1       4.755   2.775  -4.317  0.00  0.00    +0.259 C 
ATOM      5  O   UNL     1       5.045   3.942  -4.166  0.00  0.00    -0.272 OA
ATOM      6  N   UNL     1       5.010   2.049  -5.411  0.00  0.00    -0.206 N 
ATOM      7  C   UNL     1       4.593   0.760  -5.349  0.00  0.00    +0.235 C 
ATOM      8  O   UNL     1       4.725  -0.080  -6.213  0.00  0.00    -0.274 OA
ATOM      9  O   UNL     1       2.698   2.375  -3.111  0.00  0.00    -0.257 OA
ATOM     10  N   UNL     1       1.911   1.782  -4.160  0.00  0.00    -0.244 N 
ENDROOT
BRANCH   6  11
ATOM     11  C   UNL     1       5.664   2.576  -6.535  0.00  0.00    +0.062 A 
ATOM     12  C   UNL     1       7.047   2.505  -6.631  0.00  0.00    +0.025 A 
ATOM     13  C   UNL     1       7.689   3.024  -7.739  0.00  0.00    +0.002 A 
ATOM     14  C   UNL     1       6.955   3.615  -8.751  0.00  0.00    +0.002 A 
ATOM     15  C   UNL     1       5.578   3.688  -8.659  0.00  0.00    +0.022 A 
ATOM     16  C   UNL     1       4.929   3.164  -7.556  0.00  0.00    +0.063 A 
ATOM     17 CL   UNL     1       3.199   3.249  -7.444  0.00  0.00    -0.082 Cl
ENDBRANCH   6  11
BRANCH   1  20
ATOM     18  C   UNL     1       0.607  -0.608  -1.057  0.00  0.00    +0.162 A 
ATOM     19  C   UNL     1       1.173   0.160  -2.062  0.00  0.00    +0.058 A 
ATOM     20  C   UNL     1       1.787  -0.453  -3.138  0.00  0.00    +0.023 A 
ATOM     21  C   UNL     1       1.838  -1.837  -3.214  0.00  0.00    +0.129 A 
ATOM     22  C   UNL     1       1.272  -2.609  -2.211  0.00  0.00    +0.095 A 
ATOM     23  C   UNL     1       0.661  -1.996  -1.129  0.00  0.00    +0.165 A 
BRANCH  18  25
ATOM     24  C   UNL     1      -0.017   1.425   0.010  0.00  0.00    +0.277 C 
ATOM     25  O   UNL     1       0.002  -0.004   0.002  0.00  0.00    -0.491 OA
ENDBRANCH  18  25
BRANCH  23  26
ATOM     26  O   UNL     1       0.112  -2.751  -0.140  0.00  0.00    -0.491 OA
ATOM     27  C   UNL     1       0.205  -4.170  -0.279  0.00  0.00    +0.277 C 
ENDBRANCH  23  26
BRANCH  21  28
ATOM     28  O   UNL     1       2.442  -2.437  -4.274  0.00  0.00    -0.495 OA
ATOM     29  C   UNL     1       2.458  -3.866  -4.288  0.00  0.00    +0.277 C 
ENDBRANCH  21  28
ENDBRANCH   1  20
BRANCH  10  30
ATOM     30  C   UNL     1       0.911   2.377  -4.932  0.00  0.00    +0.065 A 
ATOM     31  C   UNL     1       0.244   1.635  -5.899  0.00  0.00    +0.028 A 
ATOM     32  C   UNL     1      -0.745   2.226  -6.660  0.00  0.00    +0.002 A 
ATOM     33  C   UNL     1      -1.072   3.555  -6.461  0.00  0.00    +0.000 A 
ATOM     34  C   UNL     1      -0.410   4.296  -5.499  0.00  0.00    +0.002 A 
ATOM     35  C   UNL     1       0.576   3.710  -4.730  0.00  0.00    +0.028 A 
ENDBRANCH  10  30
TORSDOF 6
