REMARK  Name = ZINC02956736
REMARK  10 active torsions:
REMARK  status: ('A' for Active; 'I' for Inactive)
REMARK    1  A    between atoms: C_1  and  C_2
REMARK    2  A    between atoms: C_2  and  O_3
REMARK    3  A    between atoms: O_3  and  C_4
REMARK    4  A    between atoms: C_7  and  N_10
REMARK    5  A    between atoms: C_14  and  C_34
REMARK    6  A    between atoms: C_15  and  C_29
REMARK    7  A    between atoms: N_18  and  C_21
REMARK    8  A    between atoms: C_21  and  C_22
REMARK    9  A    between atoms: N_31  and  C_32
REMARK   10  A    between atoms: N_31  and  C_33
REMARK                            x       y       z     vdW  Elec       q    Type
REMARK                         _______ _______ _______ _____ _____    ______ ____
ROOT
ATOM      1  N   UNL     1      -5.280  -1.234   0.866  0.00  0.00    -0.228 N 
ATOM      2  C   UNL     1      -6.063  -1.072  -0.215  0.00  0.00    +0.270 A 
ATOM      3  O   UNL     1      -6.662  -0.028  -0.391  0.00  0.00    -0.266 OA
ATOM      4  C   UNL     1      -6.183  -2.181  -1.193  0.00  0.00    +0.074 A 
ATOM      5  C   UNL     1      -6.929  -2.230  -2.376  0.00  0.00    -0.017 A 
ATOM      6  C   UNL     1      -6.892  -3.371  -3.122  0.00  0.00    +0.080 A 
ATOM      7  S   UNL     1      -5.799  -4.420  -2.181  0.00  0.00    -0.065 S 
ATOM      8  C   UNL     1      -5.452  -3.339  -0.884  0.00  0.00    +0.098 A 
ATOM      9  N   UNL     1      -4.685  -3.415   0.242  0.00  0.00    -0.283 N 
ATOM     10  C   UNL     1      -4.609  -2.375   1.093  0.00  0.00    +0.338 A 
ATOM     11  O   UNL     1      -3.919  -2.470   2.090  0.00  0.00    -0.246 OA
ATOM     12  C   UNL     1      -7.757  -1.049  -2.814  0.00  0.00    +0.046 C 
ENDROOT
BRANCH   1  16
ATOM     13  C   UNL     1      -4.938   1.896   3.603  0.00  0.00    +0.121 A 
ATOM     14  C   UNL     1      -3.826   1.476   2.887  0.00  0.00    +0.047 A 
ATOM     15  C   UNL     1      -3.939   0.440   1.981  0.00  0.00    +0.030 A 
ATOM     16  C   UNL     1      -5.165  -0.181   1.787  0.00  0.00    +0.055 A 
ATOM     17  C   UNL     1      -6.277   0.239   2.503  0.00  0.00    +0.030 A 
ATOM     18  C   UNL     1      -6.163   1.276   3.409  0.00  0.00    +0.047 A 
BRANCH  13  19
ATOM     19  O   UNL     1      -4.826   2.916   4.495  0.00  0.00    -0.492 OA
BRANCH  19  21
ATOM     20  C   UNL     1      -3.605   4.629   5.684  0.00  0.00    +0.048 C 
ATOM     21  C   UNL     1      -3.534   3.508   4.645  0.00  0.00    +0.225 C 
ENDBRANCH  19  21
ENDBRANCH  13  19
ENDBRANCH   1  16
BRANCH   6  22
ATOM     22  C   UNL     1      -7.577  -3.663  -4.384  0.00  0.00    +0.253 C 
ATOM     23  O   UNL     1      -8.384  -2.870  -4.835  0.00  0.00    -0.269 OA
ATOM     24  N   UNL     1      -7.315  -4.808  -5.044  0.00  0.00    -0.303 N 
ATOM     25  C   UNL     1      -7.874  -5.027  -6.381  0.00  0.00    +0.132 C 
ATOM     26  C   UNL     1      -6.471  -5.833  -4.426  0.00  0.00    +0.132 C 
ENDBRANCH   6  22
BRANCH   9  27
ATOM     27  C   UNL     1      -3.937  -4.642   0.528  0.00  0.00    +0.164 C 
BRANCH  27  28
ATOM     28  C   UNL     1      -4.806  -5.588   1.316  0.00  0.00    -0.009 A 
ATOM     29  C   UNL     1      -5.582  -6.524   0.659  0.00  0.00    +0.007 A 
ATOM     30  C   UNL     1      -6.379  -7.392   1.382  0.00  0.00    +0.000 A 
ATOM     31  C   UNL     1      -6.400  -7.324   2.763  0.00  0.00    +0.001 A 
ATOM     32  C   UNL     1      -5.625  -6.388   3.421  0.00  0.00    +0.020 A 
ATOM     33  C   UNL     1      -4.823  -5.523   2.698  0.00  0.00    +0.046 A 
ATOM     34 CL   UNL     1      -3.843  -4.352   3.524  0.00  0.00    -0.083 Cl
ENDBRANCH  27  28
ENDBRANCH   9  27
TORSDOF 6
