REMARK  Name = ZINC04491355
REMARK  5 active torsions:
REMARK  status: ('A' for Active; 'I' for Inactive)
REMARK    1  A    between atoms: C_3  and  C_10
REMARK    2  A    between atoms: C_5  and  N_7
REMARK    3  A    between atoms: C_10  and  C_12
REMARK    4  A    between atoms: C_10  and  N_47
REMARK    5  A    between atoms: N_16  and  C_17
REMARK                            x       y       z     vdW  Elec       q    Type
REMARK                         _______ _______ _______ _____ _____    ______ ____
ROOT
ATOM      1  C   UNL     1      -0.119   5.635   0.114  0.00  0.00    +0.034 C 
ENDROOT
BRANCH   1   7
ATOM      2  C   UNL     1      -2.436   6.110   0.632  0.00  0.00    -0.077 C 
ATOM      3  C   UNL     1      -3.357   6.834   1.617  0.00  0.00    -0.019 C 
ATOM      4  C   UNL     1      -3.114   8.343   1.520  0.00  0.00    -0.004 C 
ATOM      5  C   UNL     1      -1.639   8.634   1.809  0.00  0.00    -0.019 C 
ATOM      6  C   UNL     1      -0.768   7.858   0.819  0.00  0.00    -0.077 C 
ATOM      7  N   UNL     1      -1.030   6.412   0.979  0.00  0.00    +0.389 N 
ATOM      8  H   UNL     1      -0.866   6.150   1.958  0.00  0.00    -0.080 HD
ENDBRANCH   1   7
BRANCH   1  11
ATOM      9  C   UNL     1      -0.530   1.934  -0.509  0.00  0.00    +0.002 A 
ATOM     10  C   UNL     1      -0.309   3.282  -0.719  0.00  0.00    +0.002 A 
ATOM     11  C   UNL     1      -0.365   4.166   0.342  0.00  0.00    -0.051 A 
ATOM     12  C   UNL     1      -0.647   3.701   1.614  0.00  0.00    +0.035 A 
ATOM     13  C   UNL     1      -0.873   2.354   1.823  0.00  0.00    +0.126 A 
ATOM     14  C   UNL     1      -0.817   1.470   0.761  0.00  0.00    +0.033 A 
BRANCH  13  15
ATOM     15  N   UNL     1      -1.175   1.857   3.184  0.00  0.00    +0.056 N 
ATOM     16  O   UNL     1      -1.374   0.670   3.369  0.00  0.00    -0.126 OA
ATOM     17  O   UNL     1      -1.225   2.635   4.120  0.00  0.00    -0.126 OA
ENDBRANCH  13  15
ENDBRANCH   1  11
BRANCH   1  18
ATOM     18  C   UNL     1      -0.356   5.964  -1.337  0.00  0.00    +0.148 A 
ATOM     19  N   UNL     1      -1.505   5.937  -1.961  0.00  0.00    -0.114 NA
ATOM     20  N   UNL     1      -1.360   6.272  -3.192  0.00  0.00    -0.023 NA
ATOM     21  N   UNL     1      -0.122   6.534  -3.439  0.00  0.00    -0.039 NA
ATOM     22  N   UNL     1       0.578   6.348  -2.234  0.00  0.00    -0.198 N 
BRANCH  22  23
ATOM     23  C   UNL     1       1.952   6.521  -2.012  0.00  0.00    +0.070 A 
ATOM     24  C   UNL     1       2.613   7.611  -2.562  0.00  0.00    +0.028 A 
ATOM     25  C   UNL     1       3.966   7.780  -2.341  0.00  0.00    +0.003 A 
ATOM     26  C   UNL     1       4.663   6.865  -1.573  0.00  0.00    +0.020 A 
ATOM     27  C   UNL     1       4.006   5.778  -1.023  0.00  0.00    +0.043 A 
ATOM     28  C   UNL     1       2.651   5.606  -1.237  0.00  0.00    +0.048 A 
ATOM     29 CL   UNL     1       4.884   4.632  -0.058  0.00  0.00    -0.083 Cl
ENDBRANCH  22  23
ENDBRANCH   1  18
TORSDOF 5
