REMARK  Name = ZINC49414044
REMARK  7 active torsions:
REMARK  status: ('A' for Active; 'I' for Inactive)
REMARK    1  A    between atoms: C_1  and  C_2
REMARK    2  A    between atoms: C_2  and  O_3
REMARK    3  A    between atoms: O_3  and  C_4
REMARK    4  A    between atoms: C_14  and  C_16
REMARK    5  A    between atoms: C_16  and  N_17
REMARK    6  A    between atoms: N_17  and  C_18
REMARK    7  A    between atoms: C_19  and  C_21
REMARK                            x       y       z     vdW  Elec       q    Type
REMARK                         _______ _______ _______ _____ _____    ______ ____
ROOT
ATOM      1  C   UNL     1       0.555  -1.810  -1.532  0.00  0.00    +0.122 A 
ATOM      2  C   UNL     1       0.099  -2.668  -0.535  0.00  0.00    +0.048 A 
ATOM      3  C   UNL     1       0.226  -4.027  -0.649  0.00  0.00    +0.032 A 
ATOM      4  C   UNL     1       0.827  -4.605  -1.791  0.00  0.00    +0.081 A 
ATOM      5  C   UNL     1       1.278  -3.706  -2.784  0.00  0.00    +0.044 A 
ATOM      6  C   UNL     1       1.143  -2.345  -2.668  0.00  0.00    +0.063 A 
ATOM      7  S   UNL     1       1.947  -4.802  -4.012  0.00  0.00    -0.052 S 
ATOM      8  C   UNL     1       1.599  -6.334  -3.159  0.00  0.00    +0.165 A 
ATOM      9  N   UNL     1       1.025  -5.916  -2.055  0.00  0.00    -0.225 NA
ATOM     10  N   UNL     1       1.866  -7.633  -3.562  0.00  0.00    -0.263 N 
ATOM     11  C   UNL     1       1.522  -8.668  -2.769  0.00  0.00    +0.236 C 
ATOM     12  O   UNL     1       0.979  -8.463  -1.705  0.00  0.00    -0.274 OA
ATOM     13  H   UNL     1       2.300  -7.797  -4.413  0.00  0.00    +0.157 HD
ENDROOT
BRANCH   1  14
ATOM     14  O   UNL     1       0.418  -0.464  -1.397  0.00  0.00    -0.492 OA
BRANCH  14  16
ATOM     15  C   UNL     1      -0.263   1.537  -0.225  0.00  0.00    +0.048 C 
ATOM     16  C   UNL     1      -0.199   0.009  -0.197  0.00  0.00    +0.225 C 
ENDBRANCH  14  16
ENDBRANCH   1  14
BRANCH  11  17
ATOM     17  C   UNL     1       1.813 -10.081  -3.207  0.00  0.00    +0.203 C 
BRANCH  17  18
ATOM     18  N   UNL     1       1.347 -11.015  -2.180  0.00  0.00    -0.292 N 
ATOM     19  C   UNL     1      -0.020 -11.541  -2.233  0.00  0.00    +0.133 C 
ATOM     20  C   UNL     1       2.175 -11.393  -1.186  0.00  0.00    +0.249 C 
ATOM     21  O   UNL     1       3.274 -10.881  -1.083  0.00  0.00    -0.270 OA
BRANCH  20  22
ATOM     22  C   UNL     1       1.751 -12.421  -0.227  0.00  0.00    +0.062 A 
ATOM     23  C   UNL     1       0.972 -13.510  -0.489  0.00  0.00    +0.096 A 
ATOM     24  N   UNL     1       0.795 -14.230   0.645  0.00  0.00    -0.360 N 
ATOM     25  H   UNL     1       0.277 -15.048   0.706  0.00  0.00    +0.165 HD
ATOM     26  C   UNL     1       1.456 -13.637   1.701  0.00  0.00    +0.047 A 
ATOM     27  C   UNL     1       2.089 -12.484   1.207  0.00  0.00    +0.012 A 
ATOM     28  C   UNL     1       2.842 -11.682   2.059  0.00  0.00    +0.011 A 
ATOM     29  C   UNL     1       2.967 -12.026   3.388  0.00  0.00    +0.001 A 
ATOM     30  C   UNL     1       2.346 -13.166   3.876  0.00  0.00    +0.002 A 
ATOM     31  C   UNL     1       1.589 -13.964   3.046  0.00  0.00    +0.026 A 
ENDBRANCH  20  22
ENDBRANCH  17  18
ENDBRANCH  11  17
TORSDOF 5
