REMARK  Name = ZINC02056374
REMARK  7 active torsions:
REMARK  status: ('A' for Active; 'I' for Inactive)
REMARK    1  A    between atoms: C_1  and  C_2
REMARK    2  A    between atoms: C_3  and  C_21
REMARK    3  A    between atoms: C_15  and  C_19
REMARK    4  A    between atoms: C_16  and  N_18
REMARK    5  A    between atoms: C_21  and  O_23
REMARK    6  A    between atoms: O_23  and  C_24
REMARK    7  A    between atoms: C_24  and  C_25
REMARK                            x       y       z     vdW  Elec       q    Type
REMARK                         _______ _______ _______ _____ _____    ______ ____
ROOT
ATOM      1  C   UNL     1       4.911  -3.082  -2.497  0.00  0.00    +0.087 C 
ATOM      2  C   UNL     1       4.466  -2.417  -1.220  0.00  0.00    +0.116 C 
ATOM      3  C   UNL     1       4.329  -1.084  -1.197  0.00  0.00    +0.099 C 
ATOM      4  C   UNL     1       3.890  -0.377   0.053  0.00  0.00    +0.148 C 
ATOM      5  C   UNL     1       2.465   0.097  -0.081  0.00  0.00    -0.000 A 
ATOM      6  C   UNL     1       1.271  -0.559  -0.280  0.00  0.00    +0.027 A 
ATOM      7  C   UNL     1       0.092   0.163  -0.363  0.00  0.00    +0.041 A 
ATOM      8  C   UNL     1       0.119   1.542  -0.245  0.00  0.00    +0.022 A 
ATOM      9  C   UNL     1       1.315   2.200  -0.046  0.00  0.00    +0.025 A 
ATOM     10  C   UNL     1       2.505   1.481   0.038  0.00  0.00    +0.038 A 
ATOM     11  N   UNL     1       3.819   1.911   0.233  0.00  0.00    -0.284 N 
ATOM     12  C   UNL     1       4.691   0.887   0.253  0.00  0.00    +0.238 C 
ATOM     13  O   UNL     1       5.892   0.965   0.403  0.00  0.00    -0.274 OA
ATOM     14 CL   UNL     1      -1.416  -0.660  -0.614  0.00  0.00    -0.084 Cl
ATOM     15  C   UNL     1       4.034  -1.281   1.244  0.00  0.00    +0.110 C 
ATOM     16  C   UNL     1       4.191  -2.617   1.077  0.00  0.00    +0.199 C 
ATOM     17  O   UNL     1       4.220  -3.179  -0.144  0.00  0.00    -0.445 OA
ATOM     18  H   UNL     1       4.074   2.841   0.341  0.00  0.00    +0.155 HD
ENDROOT
BRANCH  16  19
ATOM     19  N   UNL     1       4.324  -3.418   2.184  0.00  0.00    -0.328 N 
ATOM     20  H   UNL     1       4.437  -4.376   2.080  0.00  0.00    +0.145 HD
ATOM     21  H   UNL     1       4.305  -3.026   3.072  0.00  0.00    +0.145 HD
ENDBRANCH  16  19
BRANCH  15  22
ATOM     22  C   UNL     1       4.004  -0.727   2.564  0.00  0.00    +0.102 C 
ATOM     23  N   UNL     1       3.981  -0.288   3.612  0.00  0.00    -0.191 NA
ENDBRANCH  15  22
BRANCH   3  24
ATOM     24  C   UNL     1       4.602  -0.332  -2.366  0.00  0.00    +0.340 C 
ATOM     25  O   UNL     1       3.686   0.139  -3.014  0.00  0.00    -0.245 OA
BRANCH  24  26
ATOM     26  O   UNL     1       5.877  -0.139  -2.762  0.00  0.00    -0.457 OA
BRANCH  26  27
ATOM     27  C   UNL     1       6.079   0.628  -3.950  0.00  0.00    +0.259 C 
BRANCH  27  28
ATOM     28  C   UNL     1       7.555   0.738  -4.233  0.00  0.00    +0.006 C 
ATOM     29  C   UNL     1       8.004   0.551  -5.449  0.00  0.00    +0.007 C 
ENDBRANCH  27  28
ENDBRANCH  26  27
ENDBRANCH  24  26
ENDBRANCH   3  24
TORSDOF 6
