REMARK  Name = ZINC12074050
REMARK  8 active torsions:
REMARK  status: ('A' for Active; 'I' for Inactive)
REMARK    1  A    between atoms: C_4  and  C_7
REMARK    2  A    between atoms: C_7  and  N_60
REMARK    3  A    between atoms: C_13  and  C_15
REMARK    4  A    between atoms: C_15  and  C_16
REMARK    5  A    between atoms: N_18  and  C_19
REMARK    6  A    between atoms: C_19  and  C_20
REMARK    7  A    between atoms: C_20  and  N_21
REMARK    8  A    between atoms: C_26  and  C_28
REMARK                            x       y       z     vdW  Elec       q    Type
REMARK                         _______ _______ _______ _____ _____    ______ ____
ROOT
ATOM      1  C   UNL     1       4.447   5.603  -2.651  0.00  0.00    +0.212 C 
ATOM      2  O   UNL     1       3.862   5.488  -3.707  0.00  0.00    -0.276 OA
ATOM      3  N   UNL     1       3.829   5.277  -1.499  0.00  0.00    -0.314 N 
ATOM      4  H   UNL     1       4.296   5.369  -0.654  0.00  0.00    +0.149 HD
ENDROOT
BRANCH   1   5
ATOM      5  C   UNL     1       5.866   6.110  -2.627  0.00  0.00    +0.089 C 
BRANCH   5  11
ATOM      6  C   UNL     1       5.825   7.187  -6.223  0.00  0.00    -0.058 C 
ATOM      7  C   UNL     1       5.428   5.833  -6.814  0.00  0.00    +0.085 C 
ATOM      8  N   UNL     1       5.971   4.752  -5.996  0.00  0.00    -0.318 N 
ATOM      9  C   UNL     1       6.390   4.931  -4.739  0.00  0.00    +0.200 C 
ATOM     10  O   UNL     1       6.798   3.971  -4.120  0.00  0.00    -0.278 OA
ATOM     11  C   UNL     1       6.375   6.272  -4.061  0.00  0.00    +0.028 C 
ATOM     12  H   UNL     1       6.031   3.864  -6.382  0.00  0.00    +0.149 HD
ATOM     13  N   UNL     1       5.471   7.182  -4.789  0.00  0.00    +0.391 N 
ATOM     14  H   UNL     1       4.505   6.852  -4.684  0.00  0.00    -0.080 HD
BRANCH  13  15
ATOM     15  C   UNL     1       5.576   8.551  -4.235  0.00  0.00    -0.042 C 
BRANCH  15  19
ATOM     16  C   UNL     1       2.260  10.861  -5.618  0.00  0.00    +0.000 A 
ATOM     17  C   UNL     1       2.157  10.139  -4.445  0.00  0.00    +0.000 A 
ATOM     18  C   UNL     1       3.230   9.391  -3.997  0.00  0.00    +0.002 A 
ATOM     19  C   UNL     1       4.406   9.366  -4.723  0.00  0.00    -0.064 A 
ATOM     20  C   UNL     1       4.511  10.092  -5.895  0.00  0.00    +0.002 A 
ATOM     21  C   UNL     1       3.436  10.836  -6.345  0.00  0.00    +0.000 A 
ENDBRANCH  15  19
ENDBRANCH  13  15
ENDBRANCH   5  11
ENDBRANCH   1   5
BRANCH   3  22
ATOM     22  C   UNL     1       2.449   4.784  -1.522  0.00  0.00    +0.127 C 
BRANCH  22  23
ATOM     23  C   UNL     1       1.988   4.490  -0.093  0.00  0.00    +0.166 C 
BRANCH  23  24
ATOM     24  N   UNL     1       0.609   3.997  -0.117  0.00  0.00    -0.227 N 
ATOM     25  C   UNL     1       0.388   2.674  -0.226  0.00  0.00    +0.267 A 
ATOM     26  O   UNL     1       1.327   1.898  -0.305  0.00  0.00    -0.266 OA
ATOM     27  C   UNL     1      -0.939   2.189  -0.250  0.00  0.00    +0.074 A 
ATOM     28  C   UNL     1      -1.952   3.098  -0.166  0.00  0.00    +0.035 A 
ATOM     29  C   UNL     1      -1.615   4.467  -0.048  0.00  0.00    +0.092 A 
ATOM     30  N   UNL     1      -0.357   4.839  -0.032  0.00  0.00    -0.168 NA
BRANCH  29  31
ATOM     31  C   UNL     1      -2.688   5.486   0.053  0.00  0.00    +0.002 A 
ATOM     32  C   UNL     1      -4.026   5.097   0.031  0.00  0.00    +0.010 A 
ATOM     33  C   UNL     1      -5.021   6.049   0.131  0.00  0.00    +0.001 A 
ATOM     34  C   UNL     1      -4.691   7.388   0.240  0.00  0.00    +0.000 A 
ATOM     35  C   UNL     1      -3.365   7.780   0.257  0.00  0.00    +0.001 A 
ATOM     36  C   UNL     1      -2.362   6.836   0.164  0.00  0.00    +0.010 A 
ENDBRANCH  29  31
ENDBRANCH  23  24
ENDBRANCH  22  23
ENDBRANCH   3  22
TORSDOF 8
