REMARK  Name = ZINC54368917
REMARK  7 active torsions:
REMARK  status: ('A' for Active; 'I' for Inactive)
REMARK    1  A    between atoms: C_1  and  C_2
REMARK    2  A    between atoms: C_2  and  C_4
REMARK    3  A    between atoms: C_2  and  N_21
REMARK    4  A    between atoms: N_6  and  N_7
REMARK    5  A    between atoms: C_8  and  C_10
REMARK    6  A    between atoms: C_19  and  O_20
REMARK    7  A    between atoms: C_22  and  C_24
REMARK                            x       y       z     vdW  Elec       q    Type
REMARK                         _______ _______ _______ _____ _____    ______ ____
ROOT
ATOM      1  N   UNL     1      -3.551  -0.702   1.043  0.00  0.00    -0.230 N 
ATOM      2  C   UNL     1      -4.375  -0.393   2.063  0.00  0.00    +0.264 C 
ATOM      3  O   UNL     1      -3.978   0.306   2.975  0.00  0.00    -0.269 OA
ATOM      4  H   UNL     1      -3.867  -1.260   0.316  0.00  0.00    +0.173 HD
ENDROOT
BRANCH   2   5
ATOM      5  C   UNL     1      -5.760  -0.904   2.074  0.00  0.00    +0.080 A 
ATOM      6  C   UNL     1      -6.206  -1.705   1.035  0.00  0.00    +0.025 A 
ATOM      7  C   UNL     1      -7.522  -2.187   1.051  0.00  0.00    -0.017 A 
ATOM      8  C   UNL     1      -8.008  -3.004   0.013  0.00  0.00    +0.008 A 
ATOM      9  C   UNL     1      -9.290  -3.457   0.056  0.00  0.00    +0.001 A 
ATOM     10  C   UNL     1     -10.133  -3.124   1.115  0.00  0.00    +0.001 A 
ATOM     11  C   UNL     1      -9.699  -2.337   2.137  0.00  0.00    +0.008 A 
ATOM     12  C   UNL     1      -8.380  -1.849   2.129  0.00  0.00    -0.014 A 
ATOM     13  C   UNL     1      -7.904  -1.035   3.170  0.00  0.00    +0.054 A 
ATOM     14  C   UNL     1      -6.619  -0.578   3.144  0.00  0.00    +0.130 A 
BRANCH  14  15
ATOM     15  O   UNL     1      -6.164   0.204   4.157  0.00  0.00    -0.506 OA
ATOM     16  H   UNL     1      -6.301   1.151   4.014  0.00  0.00    +0.292 HD
ENDBRANCH  14  15
ENDBRANCH   2   5
BRANCH   1  19
ATOM     17  C   UNL     1      -1.412  -0.526   0.013  0.00  0.00    +0.249 C 
ATOM     18  O   UNL     1      -1.808  -1.223  -0.897  0.00  0.00    -0.272 OA
ATOM     19  N   UNL     1      -2.236  -0.217   1.033  0.00  0.00    -0.233 N 
ATOM     20  H   UNL     1      -1.920   0.341   1.761  0.00  0.00    +0.173 HD
BRANCH  17  22
ATOM     21  C   UNL     1      -0.019   1.526   0.010  0.00  0.00    +0.038 C 
ATOM     22  C   UNL     1       0.002  -0.004   0.002  0.00  0.00    +0.158 C 
BRANCH  22  23
ATOM     23  N   UNL     1       0.688  -0.476  -1.203  0.00  0.00    -0.300 N 
ATOM     24  C   UNL     1       2.031  -0.587  -1.215  0.00  0.00    +0.251 C 
ATOM     25  O   UNL     1       2.674  -0.294  -0.224  0.00  0.00    -0.270 OA
ATOM     26  H   UNL     1       0.175  -0.710  -1.993  0.00  0.00    +0.150 HD
BRANCH  24  27
ATOM     27  C   UNL     1       2.717  -1.060  -2.421  0.00  0.00    +0.074 A 
ATOM     28  C   UNL     1       4.074  -1.248  -2.638  0.00  0.00    +0.021 A 
ATOM     29  C   UNL     1       4.421  -1.707  -3.886  0.00  0.00    +0.008 A 
ATOM     30  C   UNL     1       3.444  -1.939  -4.798  0.00  0.00    +0.046 A 
ATOM     31  S   UNL     1       2.024  -1.549  -3.989  0.00  0.00    -0.092 S 
ENDBRANCH  24  27
ENDBRANCH  22  23
ENDBRANCH  17  22
ENDBRANCH   1  19
TORSDOF 6
