REMARK  Name = ZINC22939623
REMARK  8 active torsions:
REMARK  status: ('A' for Active; 'I' for Inactive)
REMARK    1  A    between atoms: C_1  and  C_2
REMARK    2  A    between atoms: C_5  and  C_7
REMARK    3  A    between atoms: C_14  and  O_28
REMARK    4  A    between atoms: C_15  and  C_18
REMARK    5  A    between atoms: C_18  and  N_19
REMARK    6  A    between atoms: N_22  and  C_25
REMARK    7  A    between atoms: C_25  and  C_26
REMARK    8  A    between atoms: C_26  and  O_27
REMARK                            x       y       z     vdW  Elec       q    Type
REMARK                         _______ _______ _______ _____ _____    ______ ____
ROOT
ATOM      1  C   UNL     1       2.040  -3.175   0.149  0.00  0.00    +0.096 C 
ATOM      2  C   UNL     1       3.342  -2.779   0.247  0.00  0.00    +0.179 C 
ATOM      3  C   UNL     1       4.464  -3.640   0.384  0.00  0.00    +0.232 C 
ATOM      4  O   UNL     1       4.461  -4.858   0.439  0.00  0.00    -0.283 OA
ATOM      5  C   UNL     1       5.632  -2.744   0.447  0.00  0.00    +0.068 A 
ATOM      6  C   UNL     1       7.003  -2.961   0.579  0.00  0.00    +0.019 A 
ATOM      7  C   UNL     1       7.861  -1.898   0.607  0.00  0.00    +0.046 A 
ATOM      8  C   UNL     1       7.370  -0.599   0.506  0.00  0.00    +0.122 A 
ATOM      9  C   UNL     1       6.010  -0.368   0.375  0.00  0.00    +0.020 A 
ATOM     10  C   UNL     1       5.126  -1.437   0.344  0.00  0.00    +0.144 A 
ATOM     11  O   UNL     1       3.783  -1.499   0.222  0.00  0.00    -0.451 OA
ENDROOT
BRANCH   1  16
ATOM     12  C   UNL     1      -0.238   1.208  -0.273  0.00  0.00    +0.086 C 
ATOM     13  C   UNL     1      -0.008  -0.278  -0.178  0.00  0.00    +0.103 A 
ATOM     14  C   UNL     1      -0.972  -1.225  -0.217  0.00  0.00    +0.045 A 
ATOM     15  C   UNL     1      -0.337  -2.470  -0.099  0.00  0.00    +0.049 A 
ATOM     16  C   UNL     1       1.016  -2.211   0.010  0.00  0.00    +0.132 A 
ATOM     17  O   UNL     1       1.186  -0.873  -0.046  0.00  0.00    -0.460 OA
ENDBRANCH   1  16
BRANCH   8  18
ATOM     18  O   UNL     1       8.231   0.450   0.535  0.00  0.00    -0.506 OA
ATOM     19  H   UNL     1       8.559   0.715  -0.335  0.00  0.00    +0.292 HD
ENDBRANCH   8  18
BRANCH   9  20
ATOM     20  C   UNL     1       5.492   1.043   0.267  0.00  0.00    -0.035 C 
BRANCH  20  21
ATOM     21  N   UNL     1       5.445   1.441  -1.146  0.00  0.00    +0.384 N 
ATOM     22  C   UNL     1       4.464   0.609  -1.856  0.00  0.00    -0.063 C 
ATOM     23  C   UNL     1       4.429   1.011  -3.333  0.00  0.00    +0.066 C 
ATOM     24  N   UNL     1       4.064   2.430  -3.443  0.00  0.00    -0.304 NA
ATOM     25  C   UNL     1       5.024   3.273  -2.715  0.00  0.00    +0.066 C 
ATOM     26  C   UNL     1       5.054   2.853  -1.244  0.00  0.00    -0.063 C 
ATOM     27  H   UNL     1       6.356   1.315  -1.561  0.00  0.00    -0.081 HD
BRANCH  24  28
ATOM     28  C   UNL     1       3.964   2.840  -4.850  0.00  0.00    +0.112 C 
BRANCH  28  29
ATOM     29  C   UNL     1       2.660   2.306  -5.445  0.00  0.00    +0.171 C 
BRANCH  29  30
ATOM     30  O   UNL     1       1.550   2.920  -4.787  0.00  0.00    -0.394 OA
ATOM     31  H   UNL     1       0.688   2.627  -5.115  0.00  0.00    +0.209 HD
ENDBRANCH  29  30
ENDBRANCH  28  29
ENDBRANCH  24  28
ENDBRANCH  20  21
ENDBRANCH   9  20
TORSDOF 7
