REMARK  Name = ZINC13052204
REMARK  11 active torsions:
REMARK  status: ('A' for Active; 'I' for Inactive)
REMARK    1  A    between atoms: C_1  and  C_2
REMARK    2  A    between atoms: C_2  and  N_3
REMARK    3  A    between atoms: N_3  and  C_4
REMARK    4  A    between atoms: C_11  and  C_13
REMARK    5  A    between atoms: C_13  and  S_14
REMARK    6  A    between atoms: S_14  and  C_15
REMARK    7  A    between atoms: C_19  and  C_31
REMARK    8  A    between atoms: N_25  and  C_26
REMARK    9  A    between atoms: C_26  and  C_27
REMARK   10  A    between atoms: C_27  and  C_29
REMARK   11  A    between atoms: C_27  and  O_30
REMARK                            x       y       z     vdW  Elec       q    Type
REMARK                         _______ _______ _______ _____ _____    ______ ____
ROOT
ATOM      1  C   UNL     1      -3.440  -2.864   1.446  0.00  0.00    +0.173 A 
ATOM      2  N   UNL     1      -2.681  -3.102   0.405  0.00  0.00    -0.223 NA
ATOM      3  C   UNL     1      -2.761  -4.267  -0.279  0.00  0.00    +0.080 A 
ATOM      4  C   UNL     1      -1.950  -4.519  -1.389  0.00  0.00    +0.043 A 
ATOM      5  C   UNL     1      -2.067  -5.730  -2.059  0.00  0.00    +0.065 A 
ATOM      6  C   UNL     1      -2.989  -6.694  -1.630  0.00  0.00    +0.016 A 
ATOM      7  C   UNL     1      -3.787  -6.458  -0.548  0.00  0.00    +0.016 A 
ATOM      8  C   UNL     1      -3.686  -5.250   0.141  0.00  0.00    +0.065 A 
ATOM      9  C   UNL     1      -4.526  -4.955   1.313  0.00  0.00    +0.262 A 
ATOM     10  O   UNL     1      -5.342  -5.761   1.722  0.00  0.00    -0.267 OA
ATOM     11  N   UNL     1      -4.356  -3.759   1.921  0.00  0.00    -0.285 N 
ENDROOT
BRANCH   5  12
ATOM     12  C   UNL     1      -1.211  -6.005  -3.235  0.00  0.00    +0.387 C 
ATOM     13  O   UNL     1      -0.410  -5.173  -3.610  0.00  0.00    -0.241 OA
ATOM     14  O   UNL     1      -1.321  -7.177  -3.888  0.00  0.00    -0.241 OA
ENDBRANCH   5  12
BRANCH   1  15
ATOM     15  S   UNL     1      -3.268  -1.319   2.276  0.00  0.00    -0.078 S 
BRANCH  15  16
ATOM     16  C   UNL     1      -1.967  -0.565   1.269  0.00  0.00    +0.173 C 
BRANCH  16  18
ATOM     17  N   UNL     1      -0.698   1.558   1.213  0.00  0.00    -0.271 N 
ATOM     18  C   UNL     1      -1.644   0.805   1.809  0.00  0.00    +0.230 C 
ATOM     19  O   UNL     1      -2.236   1.229   2.779  0.00  0.00    -0.274 OA
BRANCH  17  20
ATOM     20  C   UNL     1      -0.321   2.783   1.777  0.00  0.00    +0.036 A 
ATOM     21  C   UNL     1      -1.218   3.843   1.802  0.00  0.00    +0.026 A 
ATOM     22  C   UNL     1      -0.847   5.048   2.365  0.00  0.00    +0.040 A 
ATOM     23  C   UNL     1       0.424   5.204   2.893  0.00  0.00    +0.124 A 
ATOM     24  C   UNL     1       1.322   4.151   2.863  0.00  0.00    +0.040 A 
ATOM     25  C   UNL     1       0.952   2.942   2.307  0.00  0.00    +0.026 A 
ATOM     26  F   UNL     1       0.788   6.386   3.438  0.00  0.00    -0.205 F 
ENDBRANCH  17  20
BRANCH  17  28
ATOM     27  C   UNL     1      -0.863   1.604  -1.226  0.00  0.00    +0.025 C 
ATOM     28  C   UNL     1      -0.065   1.096  -0.024  0.00  0.00    +0.110 C 
ENDBRANCH  17  28
ENDBRANCH  16  18
ENDBRANCH  15  16
ENDBRANCH   1  15
BRANCH  11  29
ATOM     29  C   UNL     1      -5.163  -3.419   3.095  0.00  0.00    +0.158 C 
BRANCH  29  30
ATOM     30  C   UNL     1      -6.451  -2.727   2.645  0.00  0.00    +0.131 C 
ATOM     31  C   UNL     1      -7.235  -2.261   3.874  0.00  0.00    +0.039 C 
BRANCH  30  32
ATOM     32  O   UNL     1      -7.247  -3.644   1.892  0.00  0.00    -0.390 OA
ATOM     33  H   UNL     1      -8.081  -3.272   1.574  0.00  0.00    +0.210 HD
ENDBRANCH  30  32
ENDBRANCH  29  30
ENDBRANCH  11  29
TORSDOF 9
