REMARK  Name = ZINC06072593
REMARK  4 active torsions:
REMARK  status: ('A' for Active; 'I' for Inactive)
REMARK    1  A    between atoms: C_1  and  C_2
REMARK    2  A    between atoms: C_7  and  C_8
REMARK    3  A    between atoms: C_8  and  C_9
REMARK    4  A    between atoms: N_15  and  C_16
REMARK                            x       y       z     vdW  Elec       q    Type
REMARK                         _______ _______ _______ _____ _____    ______ ____
ROOT
ATOM      1  C   UNL     1      -1.996   0.028   2.948  0.00  0.00    +0.144 C 
ATOM      2  C   UNL     1      -2.417   0.752   4.218  0.00  0.00    +0.232 C 
ATOM      3  O   UNL     1      -2.232   0.281   5.319  0.00  0.00    -0.274 OA
ATOM      4  N   UNL     1      -2.995   1.928   4.043  0.00  0.00    -0.264 N 
ATOM      5  C   UNL     1      -3.209   2.471   2.801  0.00  0.00    +0.164 C 
ATOM      6  N   UNL     1      -3.772   3.628   2.502  0.00  0.00    -0.193 NA
ATOM      7  S   UNL     1      -2.545   1.246   1.681  0.00  0.00    -0.077 S 
ATOM      8  H   UNL     1      -3.281   2.426   4.825  0.00  0.00    +0.157 HD
ENDROOT
BRANCH   6   9
ATOM      9  C   UNL     1      -4.114   4.482   3.482  0.00  0.00    +0.195 C 
ATOM     10  N   UNL     1      -5.285   5.128   3.429  0.00  0.00    -0.370 N 
ATOM     11  N   UNL     1      -3.282   4.687   4.511  0.00  0.00    -0.370 N 
ATOM     12  H   UNL     1      -5.888   4.980   2.684  0.00  0.00    +0.159 HD
ATOM     13  H   UNL     1      -2.398   4.286   4.508  0.00  0.00    +0.159 HD
ATOM     14  H   UNL     1      -3.563   5.235   5.260  0.00  0.00    +0.159 HD
ATOM     15  H   UNL     1      -5.531   5.744   4.137  0.00  0.00    +0.159 HD
ENDBRANCH   6   9
BRANCH   1  16
ATOM     16  C   UNL     1      -0.480  -0.176   2.902  0.00  0.00    +0.059 C 
BRANCH  16  23
ATOM     17  C   UNL     1      -0.766  -3.030   2.554  0.00  0.00    +0.044 C 
ATOM     18  C   UNL     1      -0.236  -2.182   1.426  0.00  0.00    -0.047 A 
ATOM     19  C   UNL     1       0.108  -2.770   0.223  0.00  0.00    +0.003 A 
ATOM     20  C   UNL     1       0.593  -1.993  -0.812  0.00  0.00    +0.000 A 
ATOM     21  C   UNL     1       0.735  -0.628  -0.644  0.00  0.00    +0.000 A 
ATOM     22  C   UNL     1       0.390  -0.040   0.558  0.00  0.00    +0.004 A 
ATOM     23  C   UNL     1      -0.100  -0.817   1.592  0.00  0.00    -0.043 A 
ENDBRANCH  16  23
ENDBRANCH   1  16
TORSDOF 3
