REMARK  Name = ZINC01576670
REMARK  9 active torsions:
REMARK  status: ('A' for Active; 'I' for Inactive)
REMARK    1  A    between atoms: C_1  and  C_2
REMARK    2  A    between atoms: C_2  and  C_3
REMARK    3  A    between atoms: C_2  and  C_4
REMARK    4  A    between atoms: C_5  and  O_26
REMARK    5  A    between atoms: C_8  and  O_11
REMARK    6  A    between atoms: C_9  and  O_10
REMARK    7  A    between atoms: C_12  and  C_25
REMARK    8  A    between atoms: C_16  and  C_23
REMARK    9  A    between atoms: C_16  and  C_24
REMARK                            x       y       z     vdW  Elec       q    Type
REMARK                         _______ _______ _______ _____ _____    ______ ____
ROOT
ATOM      1  C   UNL     1       1.867   2.016   1.021  0.00  0.00    +0.042 A 
ATOM      2  C   UNL     1       3.081   2.657   1.194  0.00  0.00    +0.135 A 
ATOM      3  C   UNL     1       3.840   3.033   0.071  0.00  0.00    +0.074 A 
ATOM      4  C   UNL     1       3.395   2.725  -1.221  0.00  0.00    +0.019 A 
ATOM      5  C   UNL     1       2.178   2.085  -1.374  0.00  0.00    +0.163 A 
ATOM      6  C   UNL     1       1.416   1.730  -0.259  0.00  0.00    +0.166 A 
ATOM      7  C   UNL     1       4.197   3.047  -2.446  0.00  0.00    +0.008 C 
ATOM      8  C   UNL     1       3.284   3.274  -3.647  0.00  0.00    +0.012 C 
ATOM      9  C   UNL     1       2.471   4.555  -3.447  0.00  0.00    +0.001 C 
ATOM     10  C   UNL     1       3.429   5.739  -3.294  0.00  0.00    +0.007 C 
ATOM     11  C   UNL     1       4.314   5.517  -2.066  0.00  0.00    -0.024 C 
ATOM     12  C   UNL     1       5.130   4.234  -2.243  0.00  0.00    +0.080 C 
ATOM     13  C   UNL     1       5.928   3.999  -0.971  0.00  0.00    +0.207 C 
ATOM     14  O   UNL     1       7.136   3.999  -0.954  0.00  0.00    -0.288 OA
ATOM     15  C   UNL     1       5.104   3.766   0.265  0.00  0.00    +0.232 C 
ATOM     16  O   UNL     1       5.460   4.158   1.358  0.00  0.00    -0.283 OA
ATOM     17  C   UNL     1       3.433   5.392  -0.821  0.00  0.00    +0.011 C 
ATOM     18  C   UNL     1       5.263   6.706  -1.901  0.00  0.00    +0.011 C 
ATOM     19  C   UNL     1       5.061   1.827  -2.771  0.00  0.00    +0.017 C 
ENDROOT
BRANCH   1  21
ATOM     20  C   UNL     1      -0.323   2.314   2.146  0.00  0.00    +0.012 C 
ATOM     21  C   UNL     1       1.041   1.623   2.218  0.00  0.00    +0.020 C 
ATOM     22  C   UNL     1       0.844   0.106   2.227  0.00  0.00    +0.012 C 
ENDBRANCH   1  21
BRANCH   6  23
ATOM     23  O   UNL     1       0.223   1.107  -0.430  0.00  0.00    -0.503 OA
ATOM     24  H   UNL     1       0.283   0.142  -0.451  0.00  0.00    +0.292 HD
ENDBRANCH   6  23
BRANCH   5  25
ATOM     25  O   UNL     1       1.720   1.799  -2.623  0.00  0.00    -0.503 OA
ATOM     26  H   UNL     1       2.045   0.960  -2.979  0.00  0.00    +0.292 HD
ENDBRANCH   5  25
BRANCH   2  27
ATOM     27  O   UNL     1       3.535   2.927   2.444  0.00  0.00    -0.506 OA
ATOM     28  H   UNL     1       3.253   3.786   2.788  0.00  0.00    +0.292 HD
ENDBRANCH   2  27
TORSDOF 4
