REMARK  Name = ZINC32648766
REMARK  4 active torsions:
REMARK  status: ('A' for Active; 'I' for Inactive)
REMARK    1  A    between atoms: C_1  and  C_2
REMARK    2  A    between atoms: C_5  and  N_9
REMARK    3  A    between atoms: C_10  and  C_12
REMARK    4  A    between atoms: C_18  and  C_20
REMARK                            x       y       z     vdW  Elec       q    Type
REMARK                         _______ _______ _______ _____ _____    ______ ____
ROOT
ATOM      1  N   UNL     1      -2.428   1.041   0.020  0.00  0.00    -0.279 N 
ATOM      2  C   UNL     1      -2.414  -0.303  -0.089  0.00  0.00    +0.267 C 
ATOM      3  O   UNL     1      -1.356  -0.902  -0.097  0.00  0.00    -0.268 OA
ATOM      4  H   UNL     1      -3.384   1.575   0.119  0.00  0.00    +0.155 HD
ENDROOT
BRANCH   2   5
ATOM      5  C   UNL     1      -3.681  -1.044  -0.197  0.00  0.00    +0.135 A 
ATOM      6  C   UNL     1      -3.679  -2.410  -0.314  0.00  0.00    +0.081 A 
ATOM      7  S   UNL     1      -5.379  -2.755  -0.402  0.00  0.00    -0.060 S 
ATOM      8  C   UNL     1      -5.973  -1.075  -0.288  0.00  0.00    +0.165 A 
ATOM      9  N   UNL     1      -4.848  -0.397  -0.190  0.00  0.00    -0.220 NA
ATOM     10  N   UNL     1      -7.280  -0.605  -0.300  0.00  0.00    -0.265 N 
ATOM     11  C   UNL     1      -8.307  -1.472  -0.410  0.00  0.00    +0.216 C 
ATOM     12  O   UNL     1      -8.089  -2.662  -0.498  0.00  0.00    -0.276 OA
ATOM     13  C   UNL     1      -9.725  -0.963  -0.423  0.00  0.00    +0.109 C 
ATOM     14  H   UNL     1      -7.478   0.474  -0.220  0.00  0.00    +0.157 HD
ENDBRANCH   2   5
BRANCH   1  19
ATOM     15  C   UNL     1       2.447   3.943  -0.045  0.00  0.00    +0.044 C 
ATOM     16  C   UNL     1       1.153   3.171  -0.025  0.00  0.00    -0.049 A 
ATOM     17  C   UNL     1       1.082   1.928  -0.626  0.00  0.00    +0.005 A 
ATOM     18  C   UNL     1      -0.103   1.218  -0.610  0.00  0.00    +0.025 A 
ATOM     19  C   UNL     1      -1.225   1.755   0.006  0.00  0.00    +0.052 A 
ATOM     20  C   UNL     1      -1.149   3.003   0.614  0.00  0.00    +0.062 A 
ATOM     21  C   UNL     1       0.040   3.708   0.594  0.00  0.00    +0.025 A 
ATOM     22 CL   UNL     1      -2.547   3.678   1.390  0.00  0.00    -0.082 Cl
ENDBRANCH   1  19
TORSDOF 2
