REMARK  Name = ZINC64079317
REMARK  4 active torsions:
REMARK  status: ('A' for Active; 'I' for Inactive)
REMARK    1  A    between atoms: C_4  and  N_11
REMARK    2  A    between atoms: C_5  and  C_7
REMARK    3  A    between atoms: C_13  and  C_16
REMARK    4  A    between atoms: C_21  and  C_24
REMARK                            x       y       z     vdW  Elec       q    Type
REMARK                         _______ _______ _______ _____ _____    ______ ____
ROOT
ATOM      1  C   UNL     1       7.236  -0.983  -0.068  0.00  0.00    +0.269 C 
ATOM      2  O   UNL     1       7.756   0.115  -0.134  0.00  0.00    -0.268 OA
ATOM      3  N   UNL     1       8.002  -2.088   0.016  0.00  0.00    -0.292 N 
ATOM      4  C   UNL     1       9.470  -1.997   0.108  0.00  0.00    +0.113 C 
ATOM      5  C   UNL     1       9.899  -2.591   1.451  0.00  0.00    +0.054 C 
ATOM      6  C   UNL     1       9.193  -3.892   1.697  0.00  0.00    -0.043 C 
ATOM      7  C   UNL     1       8.083  -4.267   1.072  0.00  0.00    -0.004 C 
ATOM      8  C   UNL     1       7.406  -3.431   0.027  0.00  0.00    +0.135 C 
ENDROOT
BRANCH   6   9
ATOM      9  C   UNL     1       9.742  -4.770   2.653  0.00  0.00    -0.015 C 
ATOM     10  C   UNL     1      10.820  -4.528   3.496  0.00  0.00    +0.022 A 
ATOM     11  C   UNL     1      11.667  -3.410   3.672  0.00  0.00    +0.013 A 
ATOM     12  C   UNL     1      12.657  -3.491   4.606  0.00  0.00    +0.020 A 
ATOM     13  C   UNL     1      12.824  -4.650   5.364  0.00  0.00    +0.113 A 
ATOM     14  N   UNL     1      12.057  -5.701   5.225  0.00  0.00    -0.238 NA
ATOM     15  C   UNL     1      11.048  -5.723   4.328  0.00  0.00    +0.135 A 
ATOM     16  N   UNL     1      10.174  -6.660   4.033  0.00  0.00    -0.365 N 
ATOM     17  C   UNL     1       9.278  -6.172   2.980  0.00  0.00    +0.150 C 
ATOM     18  H   UNL     1      10.126  -7.535   4.449  0.00  0.00    +0.161 HD
ENDBRANCH   6   9
BRANCH   1  21
ATOM     19  N   UNL     1       3.642  -0.607  -0.063  0.00  0.00    -0.219 N 
ATOM     20  C   UNL     1       4.879  -0.065  -0.031  0.00  0.00    +0.149 A 
ATOM     21  C   UNL     1       5.766  -1.103  -0.079  0.00  0.00    +0.167 A 
ATOM     22  N   UNL     1       5.073  -2.253  -0.139  0.00  0.00    -0.124 NA
ATOM     23  N   UNL     1       3.811  -1.998  -0.125  0.00  0.00    -0.060 NA
BRANCH  19  27
ATOM     24  C   UNL     1       0.021   1.457   0.024  0.00  0.00    +0.001 A 
ATOM     25  C   UNL     1       1.214   2.155   0.059  0.00  0.00    +0.002 A 
ATOM     26  C   UNL     1       2.415   1.474   0.030  0.00  0.00    +0.028 A 
ATOM     27  C   UNL     1       2.424   0.087  -0.033  0.00  0.00    +0.079 A 
ATOM     28  C   UNL     1       1.225  -0.611  -0.067  0.00  0.00    +0.080 A 
ATOM     29  C   UNL     1       0.026   0.076  -0.039  0.00  0.00    +0.014 A 
BRANCH  28  30
ATOM     30  C   UNL     1       1.230  -2.116  -0.136  0.00  0.00    +0.419 C 
ATOM     31  F   UNL     1      -0.087  -2.587  -0.160  0.00  0.00    -0.166 F 
ATOM     32  F   UNL     1       1.893  -2.528  -1.297  0.00  0.00    -0.166 F 
ATOM     33  F   UNL     1       1.889  -2.632   0.985  0.00  0.00    -0.166 F 
ENDBRANCH  28  30
ENDBRANCH  19  27
ENDBRANCH   1  21
TORSDOF 4
