REMARK  Name = ZINC66687544
REMARK  6 active torsions:
REMARK  status: ('A' for Active; 'I' for Inactive)
REMARK    1  A    between atoms: C_1  and  C_2
REMARK    2  A    between atoms: C_2  and  N_3
REMARK    3  A    between atoms: C_9  and  C_11
REMARK    4  A    between atoms: C_11  and  C_12
REMARK    5  A    between atoms: N_20  and  C_21
REMARK    6  A    between atoms: C_21  and  C_22
REMARK                            x       y       z     vdW  Elec       q    Type
REMARK                         _______ _______ _______ _____ _____    ______ ____
ROOT
ATOM      1  C   UNL     1       0.746  -4.968   5.750  0.00  0.00    +0.001 C 
ATOM      2  C   UNL     1      -0.773  -4.904   5.923  0.00  0.00    +0.023 C 
ATOM      3  C   UNL     1      -1.163  -5.587   7.237  0.00  0.00    +0.109 C 
ATOM      4  N   UNL     1      -0.612  -6.949   7.242  0.00  0.00    -0.286 N 
ATOM      5  C   UNL     1       0.825  -7.132   6.996  0.00  0.00    +0.109 C 
ATOM      6  C   UNL     1       1.192  -6.431   5.684  0.00  0.00    +0.023 C 
ATOM      7  C   UNL     1      -1.410  -8.012   7.470  0.00  0.00    +0.302 C 
ATOM      8  O   UNL     1      -0.963  -9.139   7.379  0.00  0.00    -0.253 OA
ATOM      9  N   UNL     1      -2.704  -7.825   7.800  0.00  0.00    -0.297 N 
ATOM     10  H   UNL     1      -3.079  -6.930   7.802  0.00  0.00    +0.150 HD
ENDROOT
BRANCH   1  11
ATOM     11  C   UNL     1       1.143  -4.255   4.455  0.00  0.00    +0.099 C 
BRANCH  11  18
ATOM     12  N   UNL     1       0.726  -0.506   1.179  0.00  0.00    +0.382 N 
ATOM     13  C   UNL     1      -0.025  -0.121   2.380  0.00  0.00    -0.060 C 
ATOM     14  C   UNL     1       0.767  -0.523   3.628  0.00  0.00    +0.089 C 
ATOM     15  N   UNL     1       1.079  -1.958   3.540  0.00  0.00    -0.305 N 
ATOM     16  C   UNL     1       1.688  -2.461   2.299  0.00  0.00    +0.089 C 
ATOM     17  C   UNL     1       0.852  -1.967   1.113  0.00  0.00    -0.060 C 
ATOM     18  C   UNL     1       0.815  -2.789   4.568  0.00  0.00    +0.216 C 
ATOM     19  O   UNL     1       0.313  -2.356   5.584  0.00  0.00    -0.276 OA
ATOM     20  H   UNL     1       1.646  -0.092   1.214  0.00  0.00    -0.082 HD
BRANCH  12  22
ATOM     21  C   UNL     1      -0.003   1.507  -0.011  0.00  0.00    -0.017 C 
ATOM     22  C   UNL     1       0.019  -0.023  -0.015  0.00  0.00    -0.082 C 
ENDBRANCH  12  22
ENDBRANCH  11  18
ENDBRANCH   1  11
BRANCH   9  23
ATOM     23  C   UNL     1      -3.542  -8.972   8.154  0.00  0.00    +0.137 C 
BRANCH  23  24
ATOM     24  C   UNL     1      -4.956  -8.488   8.482  0.00  0.00    +0.135 C 
ATOM     25  C   UNL     1      -5.852  -9.684   8.894  0.00  0.00    +0.035 C 
ATOM     26  C   UNL     1      -6.922  -8.966   9.761  0.00  0.00    +0.031 C 
ATOM     27  C   UNL     1      -6.102  -7.842  10.430  0.00  0.00    +0.160 C 
ATOM     28  O   UNL     1      -4.933  -7.623   9.629  0.00  0.00    -0.375 OA
ENDBRANCH  23  24
ENDBRANCH   9  23
TORSDOF 5
