REMARK  Name = ZINC40924690
REMARK  7 active torsions:
REMARK  status: ('A' for Active; 'I' for Inactive)
REMARK    1  A    between atoms: C_4  and  N_26
REMARK    2  A    between atoms: C_5  and  C_7
REMARK    3  A    between atoms: N_8  and  N_9
REMARK    4  A    between atoms: C_10  and  C_12
REMARK    5  A    between atoms: C_12  and  S_13
REMARK    6  A    between atoms: S_13  and  C_14
REMARK    7  A    between atoms: C_16  and  C_19
REMARK                            x       y       z     vdW  Elec       q    Type
REMARK                         _______ _______ _______ _____ _____    ______ ____
ROOT
ATOM      1  N   UNL     1       1.881  -4.285   0.170  0.00  0.00    -0.206 N 
ATOM      2  C   UNL     1       2.981  -5.056   0.275  0.00  0.00    +0.242 C 
ATOM      3  O   UNL     1       4.077  -4.543   0.349  0.00  0.00    -0.273 OA
ATOM      4  H   UNL     1       1.004  -4.695   0.112  0.00  0.00    +0.177 HD
ENDROOT
BRANCH   1   6
ATOM      5  C   UNL     1       0.945  -2.146   0.045  0.00  0.00    +0.140 C 
ATOM      6  N   UNL     1       2.004  -2.889   0.146  0.00  0.00    -0.188 NA
BRANCH   5  11
ATOM      7  C   UNL     1       2.453   1.289  -0.043  0.00  0.00    +0.001 A 
ATOM      8  C   UNL     1       1.318   2.081  -0.028  0.00  0.00    +0.002 A 
ATOM      9  C   UNL     1       0.062   1.501   0.011  0.00  0.00    +0.033 A 
ATOM     10  C   UNL     1      -0.067   0.128   0.035  0.00  0.00    +0.135 A 
ATOM     11  C   UNL     1       1.074  -0.677   0.019  0.00  0.00    +0.025 A 
ATOM     12  C   UNL     1       2.339  -0.085  -0.020  0.00  0.00    +0.012 A 
BRANCH  10  13
ATOM     13  N   UNL     1      -1.411  -0.491   0.077  0.00  0.00    +0.057 N 
ATOM     14  O   UNL     1      -2.392   0.204   0.206  0.00  0.00    -0.126 OA
ATOM     15  O   UNL     1      -1.527  -1.690  -0.017  0.00  0.00    -0.126 OA
ENDBRANCH  10  13
ENDBRANCH   5  11
ENDBRANCH   1   6
BRANCH   2  16
ATOM     16  C   UNL     1       2.849  -6.557   0.301  0.00  0.00    +0.173 C 
BRANCH  16  17
ATOM     17  S   UNL     1       4.494  -7.307   0.449  0.00  0.00    -0.089 S 
BRANCH  17  18
ATOM     18  C   UNL     1       4.173  -9.039   0.466  0.00  0.00    +0.136 A 
ATOM     19  N   UNL     1       5.024 -10.046   0.562  0.00  0.00    -0.233 NA
ATOM     20  C   UNL     1       4.599 -11.307   0.559  0.00  0.00    +0.079 A 
ATOM     21  C   UNL     1       3.262 -11.563   0.454  0.00  0.00    +0.076 A 
ATOM     22  S   UNL     1       2.610  -9.900   0.365  0.00  0.00    -0.069 S 
BRANCH  20  23
ATOM     23  C   UNL     1       5.569 -12.424   0.668  0.00  0.00    +0.001 A 
ATOM     24  C   UNL     1       5.121 -13.743   0.658  0.00  0.00    +0.011 A 
ATOM     25  C   UNL     1       6.027 -14.779   0.759  0.00  0.00    +0.020 A 
ATOM     26  C   UNL     1       7.380 -14.509   0.871  0.00  0.00    +0.041 A 
ATOM     27  C   UNL     1       7.831 -13.200   0.881  0.00  0.00    +0.020 A 
ATOM     28  C   UNL     1       6.934 -12.157   0.775  0.00  0.00    +0.011 A 
ATOM     29 CL   UNL     1       8.516 -15.816   0.998  0.00  0.00    -0.084 Cl
ENDBRANCH  20  23
ENDBRANCH  17  18
ENDBRANCH  16  17
ENDBRANCH   2  16
TORSDOF 7
