REMARK  Name = ZINC37970092
REMARK  4 active torsions:
REMARK  status: ('A' for Active; 'I' for Inactive)
REMARK    1  A    between atoms: C_6  and  O_7
REMARK    2  A    between atoms: C_10  and  C_11
REMARK    3  A    between atoms: C_10  and  N_13
REMARK    4  A    between atoms: N_13  and  C_14
REMARK                            x       y       z     vdW  Elec       q    Type
REMARK                         _______ _______ _______ _____ _____    ______ ____
ROOT
ATOM      1  C   UNL     1       0.016   1.086  -0.455  0.00  0.00    +0.046 A 
ATOM      2  C   UNL     1       1.240   1.697  -0.249  0.00  0.00    +0.014 A 
ATOM      3  C   UNL     1       2.392   1.110  -0.724  0.00  0.00    +0.032 A 
ATOM      4  C   UNL     1       2.347  -0.100  -1.407  0.00  0.00    +0.130 A 
ATOM      5  C   UNL     1       1.113  -0.709  -1.616  0.00  0.00    +0.091 A 
ATOM      6  C   UNL     1      -0.045  -0.118  -1.141  0.00  0.00    +0.120 A 
ATOM      7  O   UNL     1       3.594  -0.510  -1.766  0.00  0.00    -0.488 OA
ATOM      8  C   UNL     1       4.490   0.615  -1.733  0.00  0.00    +0.271 C 
ATOM      9  C   UNL     1       3.847   1.533  -0.667  0.00  0.00    +0.170 C 
ENDROOT
BRANCH   6  10
ATOM     10  O   UNL     1      -1.246  -0.719  -1.349  0.00  0.00    -0.507 OA
ATOM     11  H   UNL     1      -1.682  -0.454  -2.170  0.00  0.00    +0.292 HD
ENDBRANCH   6  10
BRANCH   9  12
ATOM     12  C   UNL     1       4.419   1.274   0.664  0.00  0.00    +0.093 C 
ATOM     13  N   UNL     1       4.860   1.074   1.692  0.00  0.00    -0.194 NA
ENDBRANCH   9  12
BRANCH   9  14
ATOM     14  N   UNL     1       3.997   2.948  -1.034  0.00  0.00    -0.290 NA
ATOM     15  H   UNL     1       3.623   3.124  -1.955  0.00  0.00    +0.124 HD
BRANCH  14  16
ATOM     16  C   UNL     1       5.402   3.368  -0.947  0.00  0.00    +0.055 C 
ATOM     17  C   UNL     1       5.571   4.296   0.274  0.00  0.00    +0.019 C 
ATOM     18  C   UNL     1       7.023   4.311   0.665  0.00  0.00    +0.002 C 
ATOM     19  C   UNL     1       7.793   5.484   0.028  0.00  0.00    +0.000 C 
ATOM     20  C   UNL     1       7.410   5.720  -1.446  0.00  0.00    +0.000 C 
ATOM     21  C   UNL     1       7.262   4.435  -2.215  0.00  0.00    +0.002 C 
ATOM     22  C   UNL     1       5.777   4.018  -2.194  0.00  0.00    +0.019 C 
ENDBRANCH  14  16
ENDBRANCH   9  14
TORSDOF 4
