REMARK  Name = ZINC40049753
REMARK  6 active torsions:
REMARK  status: ('A' for Active; 'I' for Inactive)
REMARK    1  A    between atoms: C_11  and  C_13
REMARK    2  A    between atoms: C_13  and  S_14
REMARK    3  A    between atoms: S_14  and  C_15
REMARK    4  A    between atoms: C_19  and  C_28
REMARK    5  A    between atoms: N_20  and  C_21
REMARK    6  A    between atoms: C_21  and  C_22
REMARK                            x       y       z     vdW  Elec       q    Type
REMARK                         _______ _______ _______ _____ _____    ______ ____
ROOT
ATOM      1  C   UNL     1       7.777  -2.301   3.711  0.00  0.00    +0.237 C 
ATOM      2  N   UNL     1       8.722  -1.766   2.716  0.00  0.00    -0.237 N 
ATOM      3  N   UNL     1       8.465  -0.393   2.623  0.00  0.00    -0.169 NA
ATOM      4  C   UNL     1       7.498  -0.035   3.425  0.00  0.00    +0.147 C 
ATOM      5  N   UNL     1       7.001  -1.128   4.145  0.00  0.00    -0.283 N 
ATOM      6  H   UNL     1       9.390  -2.266   2.223  0.00  0.00    +0.171 HD
ENDROOT
BRANCH   4   7
ATOM      7  C   UNL     1       7.019   1.278   3.552  0.00  0.00    +0.022 C 
ATOM      8  C   UNL     1       7.406   2.392   2.806  0.00  0.00    +0.006 A 
ATOM      9  C   UNL     1       8.335   2.561   1.757  0.00  0.00    +0.010 A 
ATOM     10  C   UNL     1       8.510   3.789   1.204  0.00  0.00    +0.001 A 
ATOM     11  C   UNL     1       7.791   4.901   1.648  0.00  0.00    +0.002 A 
ATOM     12  C   UNL     1       6.884   4.811   2.652  0.00  0.00    +0.026 A 
ATOM     13  C   UNL     1       6.646   3.561   3.278  0.00  0.00    +0.043 A 
ATOM     14  N   UNL     1       5.831   3.216   4.257  0.00  0.00    -0.380 N 
ATOM     15  C   UNL     1       5.972   1.781   4.520  0.00  0.00    +0.152 C 
ATOM     16  H   UNL     1       5.231   3.817   4.725  0.00  0.00    +0.160 HD
ENDBRANCH   4   7
BRANCH   1  17
ATOM     17  S   UNL     1       6.688  -3.537   2.951  0.00  0.00    -0.109 S 
BRANCH  17  18
ATOM     18  C   UNL     1       5.906  -2.647   1.577  0.00  0.00    +0.168 C 
BRANCH  18  29
ATOM     19  C   UNL     1       0.592  -0.016  -1.571  0.00  0.00    +0.000 A 
ATOM     20  C   UNL     1       1.726   0.771  -1.504  0.00  0.00    +0.000 A 
ATOM     21  C   UNL     1       2.944   0.192  -1.214  0.00  0.00    +0.005 A 
ATOM     22  C   UNL     1       3.038  -1.174  -0.985  0.00  0.00    -0.027 A 
ATOM     23  C   UNL     1       1.908  -1.958  -1.042  0.00  0.00    -0.041 A 
ATOM     24  C   UNL     1       0.683  -1.373  -1.342  0.00  0.00    +0.004 A 
ATOM     25  C   UNL     1       1.927  -3.440  -0.775  0.00  0.00    +0.054 C 
ATOM     26  C   UNL     1       3.337  -4.004  -0.942  0.00  0.00    +0.113 C 
ATOM     27  N   UNL     1       4.266  -3.126  -0.211  0.00  0.00    -0.296 N 
ATOM     28  C   UNL     1       4.402  -1.745  -0.688  0.00  0.00    +0.143 C 
ATOM     29  C   UNL     1       4.963  -3.573   0.852  0.00  0.00    +0.226 C 
ATOM     30  O   UNL     1       4.832  -4.719   1.225  0.00  0.00    -0.275 OA
ENDBRANCH  18  29
ENDBRANCH  17  18
ENDBRANCH   1  17
BRANCH   5  31
ATOM     31  C   UNL     1       5.921  -1.111   5.135  0.00  0.00    +0.140 C 
BRANCH  31  32
ATOM     32  C   UNL     1       4.572  -1.206   4.420  0.00  0.00    +0.136 C 
ATOM     33  C   UNL     1       3.425  -1.053   5.442  0.00  0.00    +0.035 C 
ATOM     34  C   UNL     1       2.387  -2.088   4.930  0.00  0.00    +0.031 C 
ATOM     35  C   UNL     1       3.321  -3.194   4.380  0.00  0.00    +0.160 C 
ATOM     36  O   UNL     1       4.437  -2.492   3.805  0.00  0.00    -0.375 OA
ENDBRANCH  31  32
ENDBRANCH   5  31
TORSDOF 6
