REMARK  Name = ZINC39530664
REMARK  10 active torsions:
REMARK  status: ('A' for Active; 'I' for Inactive)
REMARK    1  A    between atoms: C_1  and  C_2
REMARK    2  A    between atoms: C_2  and  C_3
REMARK    3  A    between atoms: C_2  and  S_4
REMARK    4  A    between atoms: S_4  and  C_7
REMARK    5  A    between atoms: C_9  and  C_30
REMARK    6  A    between atoms: C_12  and  N_13
REMARK    7  A    between atoms: C_17  and  S_20
REMARK    8  A    between atoms: S_20  and  O_23
REMARK    9  A    between atoms: O_23  and  C_24
REMARK   10  A    between atoms: C_30  and  C_31
REMARK                            x       y       z     vdW  Elec       q    Type
REMARK                         _______ _______ _______ _____ _____    ______ ____
ROOT
ATOM      1  C   UNL     1       0.029   0.226   2.646  0.00  0.00    +0.110 A 
ATOM      2  C   UNL     1      -0.589  -0.617   3.549  0.00  0.00    +0.032 A 
ATOM      3  C   UNL     1      -1.617  -0.146   4.345  0.00  0.00    -0.041 A 
ATOM      4  C   UNL     1      -2.030   1.170   4.239  0.00  0.00    +0.006 A 
ATOM      5  C   UNL     1      -1.417   2.018   3.338  0.00  0.00    +0.025 A 
ATOM      6  C   UNL     1      -0.380   1.549   2.541  0.00  0.00    +0.055 A 
ENDROOT
BRANCH   6   7
ATOM      7  N   UNL     1       0.246   2.405   1.632  0.00  0.00    -0.330 N 
ATOM      8  C   UNL     1      -0.425   2.810   0.387  0.00  0.00    +0.086 C 
ATOM      9  C   UNL     1       0.534   2.570  -0.783  0.00  0.00    -0.061 C 
ATOM     10  N   UNL     1       1.802   3.265  -0.525  0.00  0.00    +0.398 N 
ATOM     11  C   UNL     1       2.461   2.684   0.652  0.00  0.00    +0.133 C 
ATOM     12  C   UNL     1       1.594   2.934   1.896  0.00  0.00    +0.115 C 
ATOM     13  H   UNL     1       2.406   3.170  -1.328  0.00  0.00    -0.083 HD
ATOM     14  H   UNL     1       1.620   4.243  -0.358  0.00  0.00    -0.083 HD
BRANCH  11  15
ATOM     15  S   UNL     1       4.084   3.460   0.882  0.00  0.00    +0.109 S 
ATOM     16  O   UNL     1       3.936   4.865   1.037  0.00  0.00    -0.138 OA
ATOM     17  O   UNL     1       4.861   2.707   1.803  0.00  0.00    -0.138 OA
BRANCH  15  18
ATOM     18  O   UNL     1       4.792   3.289  -0.455  0.00  0.00    -0.347 OA
BRANCH  18  19
ATOM     19  C   UNL     1       5.245   2.029  -0.683  0.00  0.00    +0.156 A 
ATOM     20  C   UNL     1       6.479   1.634  -0.187  0.00  0.00    +0.048 A 
ATOM     21  C   UNL     1       6.937   0.351  -0.420  0.00  0.00    +0.004 A 
ATOM     22  C   UNL     1       6.167  -0.538  -1.147  0.00  0.00    +0.000 A 
ATOM     23  C   UNL     1       4.937  -0.146  -1.642  0.00  0.00    +0.004 A 
ATOM     24  C   UNL     1       4.472   1.133  -1.407  0.00  0.00    +0.048 A 
ENDBRANCH  18  19
ENDBRANCH  15  18
ENDBRANCH  11  15
ENDBRANCH   6   7
BRANCH   1  25
ATOM     25  S   UNL     1       1.339  -0.375   1.632  0.00  0.00    +0.001 S 
ATOM     26  O   UNL     1       1.201   0.330   0.406  0.00  0.00    -0.169 OA
ATOM     27  O   UNL     1       1.209  -1.790   1.673  0.00  0.00    -0.169 OA
BRANCH  25  29
ATOM     28  C   UNL     1       2.815  -0.336   3.934  0.00  0.00    +0.032 C 
ATOM     29  C   UNL     1       2.858   0.138   2.480  0.00  0.00    +0.130 C 
ATOM     30  C   UNL     1       4.068  -0.481   1.778  0.00  0.00    +0.032 C 
ENDBRANCH  25  29
ENDBRANCH   1  25
BRANCH   3  31
ATOM     31  C   UNL     1      -2.289  -1.068   5.329  0.00  0.00    +0.070 C 
BRANCH  31  32
ATOM     32  C   UNL     1      -1.571  -1.000   6.652  0.00  0.00    -0.043 A 
ATOM     33  C   UNL     1      -0.518  -1.857   6.912  0.00  0.00    +0.004 A 
ATOM     34  C   UNL     1       0.140  -1.795   8.126  0.00  0.00    +0.000 A 
ATOM     35  C   UNL     1      -0.254  -0.875   9.079  0.00  0.00    +0.000 A 
ATOM     36  C   UNL     1      -1.306  -0.017   8.819  0.00  0.00    +0.000 A 
ATOM     37  C   UNL     1      -1.962  -0.077   7.604  0.00  0.00    +0.004 A 
ENDBRANCH  31  32
ENDBRANCH   3  31
TORSDOF 8
