REMARK  Name = ZINC39337311
REMARK  5 active torsions:
REMARK  status: ('A' for Active; 'I' for Inactive)
REMARK    1  A    between atoms: C_1  and  C_2
REMARK    2  A    between atoms: C_7  and  C_16
REMARK    3  A    between atoms: C_19  and  N_22
REMARK    4  A    between atoms: N_22  and  C_23
REMARK    5  A    between atoms: N_22  and  C_24
REMARK                            x       y       z     vdW  Elec       q    Type
REMARK                         _______ _______ _______ _____ _____    ______ ____
ROOT
ATOM      1  C   UNL     1      -0.094   1.517   0.047  0.00  0.00    +0.068 C 
ATOM      2  C   UNL     1      -0.059   0.010   0.033  0.00  0.00    +0.064 C 
ATOM      3  C   UNL     1      -1.134  -0.784   0.028  0.00  0.00    -0.012 C 
ATOM      4  C   UNL     1      -0.565  -2.167  -0.296  0.00  0.00    +0.106 C 
ATOM      5  N   UNL     1      -1.181  -3.069   0.682  0.00  0.00    +0.405 N 
ATOM      6  C   UNL     1      -2.630  -3.093   0.441  0.00  0.00    -0.003 C 
ATOM      7  C   UNL     1      -3.256  -1.722   0.460  0.00  0.00    -0.011 C 
ATOM      8  C   UNL     1      -2.509  -0.604   0.251  0.00  0.00    -0.037 C 
ATOM      9  C   UNL     1      -3.130   0.762   0.232  0.00  0.00    +0.036 C 
ATOM     10  C   UNL     1      -4.596   0.659  -0.195  0.00  0.00    +0.012 C 
ATOM     11  C   UNL     1      -5.320  -0.285   0.771  0.00  0.00    +0.079 C 
ATOM     12  C   UNL     1      -4.641  -1.615   0.715  0.00  0.00    +0.158 C 
ATOM     13  O   UNL     1      -5.287  -2.619   0.933  0.00  0.00    -0.292 OA
ATOM     14  N   UNL     1       0.871  -1.956  -0.122  0.00  0.00    -0.198 NA
ATOM     15  N   UNL     1       1.062  -0.740   0.016  0.00  0.00    -0.160 NA
ATOM     16  H   UNL     1      -0.803  -3.998   0.572  0.00  0.00    -0.081 HD
ATOM     17  H   UNL     1      -0.997  -2.736   1.616  0.00  0.00    -0.081 HD
ENDROOT
BRANCH   6  18
ATOM     18  C   UNL     1      -2.887  -3.721  -0.904  0.00  0.00    -0.057 A 
ATOM     19  C   UNL     1      -2.386  -4.980  -1.185  0.00  0.00    +0.004 A 
ATOM     20  C   UNL     1      -2.620  -5.559  -2.417  0.00  0.00    +0.023 A 
ATOM     21  C   UNL     1      -3.359  -4.876  -3.374  0.00  0.00    +0.029 A 
ATOM     22  C   UNL     1      -3.860  -3.612  -3.090  0.00  0.00    +0.023 A 
ATOM     23  C   UNL     1      -3.627  -3.041  -1.854  0.00  0.00    +0.004 A 
BRANCH  21  24
ATOM     24  N   UNL     1      -3.597  -5.458  -4.621  0.00  0.00    -0.336 N 
ATOM     25  C   UNL     1      -3.171  -6.836  -4.880  0.00  0.00    +0.129 C 
ATOM     26  C   UNL     1      -4.272  -4.691  -5.671  0.00  0.00    +0.129 C 
ENDBRANCH  21  24
ENDBRANCH   6  18
TORSDOF 2
