REMARK  Name = ZINC29563812
REMARK  9 active torsions:
REMARK  status: ('A' for Active; 'I' for Inactive)
REMARK    1  A    between atoms: C_1  and  C_2
REMARK    2  A    between atoms: C_4  and  C_14
REMARK    3  A    between atoms: C_14  and  O_16
REMARK    4  A    between atoms: O_16  and  C_17
REMARK    5  A    between atoms: C_17  and  C_19
REMARK    6  A    between atoms: C_17  and  C_20
REMARK    7  A    between atoms: N_22  and  C_23
REMARK    8  A    between atoms: C_23  and  C_24
REMARK    9  A    between atoms: N_26  and  C_27
REMARK                            x       y       z     vdW  Elec       q    Type
REMARK                         _______ _______ _______ _____ _____    ______ ____
ROOT
ATOM      1  C   UNL     1      -6.075   1.602  -0.383  0.00  0.00    +0.254 C 
ATOM      2  O   UNL     1      -6.307   2.792  -0.395  0.00  0.00    -0.272 OA
ATOM      3  N   UNL     1      -4.804   1.164  -0.281  0.00  0.00    -0.304 N 
ATOM      4  H   UNL     1      -4.594   0.085  -0.271  0.00  0.00    +0.149 HD
ENDROOT
BRANCH   1   5
ATOM      5  C   UNL     1      -7.207   0.613  -0.483  0.00  0.00    +0.259 C 
ATOM      6  C   UNL     1      -7.083  -0.174  -1.790  0.00  0.00    +0.062 C 
BRANCH   5   7
ATOM      7  O   UNL     1      -8.474   1.322  -0.464  0.00  0.00    -0.450 OA
BRANCH   7   8
ATOM      8  C   UNL     1      -9.526   0.677   0.063  0.00  0.00    +0.353 C 
ATOM      9  O   UNL     1      -9.393  -0.444   0.493  0.00  0.00    -0.246 OA
BRANCH   8  12
ATOM     10  C   UNL     1      -9.785   3.562   0.572  0.00  0.00    +0.056 C 
ATOM     11  C   UNL     1     -10.814   2.548   1.076  0.00  0.00    +0.222 C 
ATOM     12  C   UNL     1     -10.873   1.350   0.118  0.00  0.00    +0.321 C 
ATOM     13  O   UNL     1     -11.854   0.430   0.610  0.00  0.00    -0.470 OA
ATOM     14  C   UNL     1     -13.047   0.957   0.998  0.00  0.00    +0.163 A 
ATOM     15  C   UNL     1     -14.146   0.123   1.139  0.00  0.00    +0.049 A 
ATOM     16  C   UNL     1     -15.363   0.643   1.536  0.00  0.00    +0.004 A 
ATOM     17  C   UNL     1     -15.490   1.996   1.792  0.00  0.00    +0.004 A 
ATOM     18  C   UNL     1     -14.399   2.833   1.652  0.00  0.00    +0.049 A 
ATOM     19  C   UNL     1     -13.174   2.317   1.253  0.00  0.00    +0.163 A 
ATOM     20  O   UNL     1     -12.111   3.155   1.114  0.00  0.00    -0.481 OA
ENDBRANCH   8  12
ENDBRANCH   7   8
ENDBRANCH   5   7
ENDBRANCH   1   5
BRANCH   3  21
ATOM     21  C   UNL     1      -3.704   2.126  -0.184  0.00  0.00    +0.200 C 
BRANCH  21  22
ATOM     22  C   UNL     1      -2.396   1.385  -0.081  0.00  0.00    +0.234 C 
ATOM     23  O   UNL     1      -2.385   0.172  -0.088  0.00  0.00    -0.274 OA
ATOM     24  N   UNL     1      -1.239   2.069   0.019  0.00  0.00    -0.282 N 
ATOM     25  H   UNL     1      -1.255   3.164   0.117  0.00  0.00    +0.155 HD
BRANCH  24  26
ATOM     26  C   UNL     1      -0.016   1.385  -0.002  0.00  0.00    +0.072 A 
ATOM     27  C   UNL     1       0.075   0.144  -0.617  0.00  0.00    +0.029 A 
ATOM     28  C   UNL     1       1.283  -0.527  -0.642  0.00  0.00    +0.043 A 
ATOM     29  C   UNL     1       2.403   0.036  -0.054  0.00  0.00    +0.161 A 
ATOM     30  C   UNL     1       2.316   1.275   0.561  0.00  0.00    +0.195 A 
ATOM     31  C   UNL     1       1.107   1.951   0.589  0.00  0.00    +0.182 A 
ATOM     32  F   UNL     1       1.021   3.159   1.188  0.00  0.00    -0.200 F 
ATOM     33  F   UNL     1       3.410   1.823   1.134  0.00  0.00    -0.199 F 
ATOM     34  F   UNL     1       3.582  -0.623  -0.081  0.00  0.00    -0.202 F 
ENDBRANCH  24  26
ENDBRANCH  21  22
ENDBRANCH   3  21
TORSDOF 7
