REMARK  Name = ZINC65902035
REMARK  5 active torsions:
REMARK  status: ('A' for Active; 'I' for Inactive)
REMARK    1  A    between atoms: C_1  and  C_2
REMARK    2  A    between atoms: C_2  and  C_3
REMARK    3  A    between atoms: C_3  and  S_4
REMARK    4  A    between atoms: S_4  and  N_7
REMARK    5  A    between atoms: C_12  and  C_13
REMARK                            x       y       z     vdW  Elec       q    Type
REMARK                         _______ _______ _______ _____ _____    ______ ____
ROOT
ATOM      1  N   UNL     1      -3.062  -2.603   0.040  0.00  0.00    -0.169 NA
ATOM      2  C   UNL     1      -3.758  -2.892   1.301  0.00  0.00    +0.110 C 
ATOM      3  C   UNL     1      -5.127  -2.204   1.278  0.00  0.00    +0.017 C 
ATOM      4  C   UNL     1      -5.891  -2.638   0.025  0.00  0.00    +0.003 C 
ATOM      5  C   UNL     1      -5.114  -2.210  -1.222  0.00  0.00    +0.030 C 
ATOM      6  C   UNL     1      -3.747  -2.892  -1.228  0.00  0.00    +0.165 C 
ENDROOT
BRANCH   6   7
ATOM      7  C   UNL     1      -2.927  -2.366  -2.377  0.00  0.00    +0.235 C 
ATOM      8  O   UNL     1      -2.462  -1.247  -2.328  0.00  0.00    -0.274 OA
ATOM      9  N   UNL     1      -2.709  -3.140  -3.459  0.00  0.00    -0.298 N 
ATOM     10  C   UNL     1      -3.393  -4.428  -3.551  0.00  0.00    +0.117 C 
ATOM     11  C   UNL     1      -2.359  -5.559  -3.540  0.00  0.00    +0.114 C 
ATOM     12  C   UNL     1      -1.773  -5.691  -4.928  0.00  0.00    +0.215 C 
ATOM     13  O   UNL     1      -2.056  -6.651  -5.613  0.00  0.00    -0.276 OA
ATOM     14  N   UNL     1      -0.946  -4.756  -5.405  0.00  0.00    -0.314 N 
ATOM     15  C   UNL     1      -0.585  -3.589  -4.590  0.00  0.00    +0.123 C 
ATOM     16  C   UNL     1      -1.803  -2.655  -4.497  0.00  0.00    +0.126 C 
ATOM     17  H   UNL     1      -0.580  -4.850  -6.299  0.00  0.00    +0.149 HD
ENDBRANCH   6   7
BRANCH   1  18
ATOM     18  S   UNL     1      -1.538  -1.957   0.046  0.00  0.00    +0.032 S 
ATOM     19  O   UNL     1      -0.937  -2.433  -1.151  0.00  0.00    -0.158 OA
ATOM     20  O   UNL     1      -1.001  -2.306   1.315  0.00  0.00    -0.158 OA
BRANCH  18  21
ATOM     21  C   UNL     1      -1.791  -0.163  -0.053  0.00  0.00    +0.185 C 
BRANCH  21  23
ATOM     22  C   UNL     1      -0.648   2.057  -0.138  0.00  0.00    +0.005 C 
ATOM     23  C   UNL     1      -0.434   0.544  -0.054  0.00  0.00    +0.021 C 
ENDBRANCH  21  23
ENDBRANCH  18  21
ENDBRANCH   1  18
TORSDOF 4
