REMARK  Name = ZINC35294508
REMARK  3 active torsions:
REMARK  status: ('A' for Active; 'I' for Inactive)
REMARK    1  A    between atoms: C_1  and  C_2
REMARK    2  A    between atoms: C_3  and  N_9
REMARK    3  A    between atoms: C_12  and  C_16
REMARK                            x       y       z     vdW  Elec       q    Type
REMARK                         _______ _______ _______ _____ _____    ______ ____
ROOT
ATOM      1  C   UNL     1       1.677   0.591  -0.189  0.00  0.00    +0.047 C 
ATOM      2  C   UNL     1       0.584  -0.443  -0.113  0.00  0.00    -0.007 A 
ATOM      3  C   UNL     1      -0.216  -0.699  -1.229  0.00  0.00    +0.071 A 
ATOM      4  C   UNL     1      -1.227  -1.659  -1.151  0.00  0.00    +0.028 A 
ATOM      5  C   UNL     1      -1.429  -2.349   0.027  0.00  0.00    +0.004 A 
ATOM      6  C   UNL     1      -0.634  -2.091   1.129  0.00  0.00    +0.020 A 
ATOM      7  C   UNL     1       0.373  -1.144   1.057  0.00  0.00    +0.046 A 
ATOM      8 CL   UNL     1       1.370  -0.833   2.444  0.00  0.00    -0.083 Cl
ENDROOT
BRANCH   3   9
ATOM      9  N   UNL     1      -0.010  -0.011  -2.395  0.00  0.00    -0.226 NA
ATOM     10  C   UNL     1       0.093  -0.661  -3.532  0.00  0.00    +0.155 C 
ATOM     11  N   UNL     1       0.197  -0.150  -4.811  0.00  0.00    -0.320 N 
ATOM     12  C   UNL     1       0.972  -0.918  -5.770  0.00  0.00    +0.079 C 
ATOM     13  C   UNL     1       1.049  -2.420  -5.407  0.00  0.00    +0.099 C 
ATOM     14  S   UNL     1       0.141  -2.427  -3.808  0.00  0.00    -0.089 S 
ATOM     15  C   UNL     1       2.393  -0.352  -5.824  0.00  0.00    +0.028 C 
ATOM     16  H   UNL     1      -0.230   0.685  -5.058  0.00  0.00    +0.148 HD
ENDBRANCH   3   9
TORSDOF 1
