REMARK  Name = ZINC59853431
REMARK  7 active torsions:
REMARK  status: ('A' for Active; 'I' for Inactive)
REMARK    1  A    between atoms: C_4  and  C_7
REMARK    2  A    between atoms: C_9  and  C_18
REMARK    3  A    between atoms: N_11  and  C_12
REMARK    4  A    between atoms: N_20  and  N_21
REMARK    5  A    between atoms: C_22  and  C_24
REMARK    6  A    between atoms: N_28  and  C_29
REMARK    7  A    between atoms: C_29  and  C_30
REMARK                            x       y       z     vdW  Elec       q    Type
REMARK                         _______ _______ _______ _____ _____    ______ ____
ROOT
ATOM      1  C   UNL     1       6.835  -0.862  -0.788  0.00  0.00    +0.299 C 
ATOM      2  O   UNL     1       7.351   0.158  -1.203  0.00  0.00    -0.265 OA
ATOM      3  N   UNL     1       7.600  -1.931  -0.490  0.00  0.00    -0.227 N 
ATOM      4  H   UNL     1       7.189  -2.744  -0.159  0.00  0.00    +0.173 HD
ENDROOT
BRANCH   1   7
ATOM      5  C   UNL     1       3.294  -0.392  -0.582  0.00  0.00    +0.164 A 
ATOM      6  N   UNL     1       4.499   0.061  -0.868  0.00  0.00    -0.202 NA
ATOM      7  C   UNL     1       5.369  -0.929  -0.609  0.00  0.00    +0.239 A 
ATOM      8  N   UNL     1       4.693  -1.970  -0.171  0.00  0.00    -0.139 NA
ATOM      9  N   UNL     1       3.440  -1.672  -0.138  0.00  0.00    -0.212 N 
BRANCH   5  13
ATOM     10  C   UNL     1      -0.357   1.748  -0.954  0.00  0.00    +0.000 A 
ATOM     11  C   UNL     1      -0.259   0.706  -0.049  0.00  0.00    +0.001 A 
ATOM     12  C   UNL     1       0.924   0.007   0.076  0.00  0.00    +0.011 A 
ATOM     13  C   UNL     1       2.022   0.353  -0.711  0.00  0.00    +0.019 A 
ATOM     14  C   UNL     1       1.917   1.405  -1.622  0.00  0.00    +0.011 A 
ATOM     15  C   UNL     1       0.728   2.096  -1.738  0.00  0.00    +0.001 A 
ENDBRANCH   5  13
BRANCH   9  16
ATOM     16  C   UNL     1       2.405  -2.518   0.278  0.00  0.00    +0.068 A 
ATOM     17  C   UNL     1       1.232  -2.600  -0.461  0.00  0.00    +0.028 A 
ATOM     18  C   UNL     1       0.214  -3.436  -0.048  0.00  0.00    +0.002 A 
ATOM     19  C   UNL     1       0.361  -4.192   1.101  0.00  0.00    +0.000 A 
ATOM     20  C   UNL     1       1.527  -4.113   1.839  0.00  0.00    +0.002 A 
ATOM     21  C   UNL     1       2.552  -3.283   1.428  0.00  0.00    +0.028 A 
ENDBRANCH   9  16
ENDBRANCH   1   7
BRANCH   3  22
ATOM     22  N   UNL     1       8.989  -1.867  -0.659  0.00  0.00    -0.229 N 
ATOM     23  C   UNL     1       9.754  -2.936  -0.362  0.00  0.00    +0.277 C 
ATOM     24  O   UNL     1       9.232  -3.985  -0.032  0.00  0.00    -0.267 OA
ATOM     25  H   UNL     1       9.401  -1.053  -0.991  0.00  0.00    +0.173 HD
BRANCH  23  26
ATOM     26  C   UNL     1      11.216  -2.835  -0.435  0.00  0.00    +0.106 A 
ATOM     27  C   UNL     1      11.936  -1.747  -0.880  0.00  0.00    +0.032 A 
ATOM     28  C   UNL     1      13.290  -2.082  -0.779  0.00  0.00    +0.020 A 
ATOM     29  C   UNL     1      13.371  -3.341  -0.285  0.00  0.00    +0.087 A 
ATOM     30  N   UNL     1      12.118  -3.808  -0.068  0.00  0.00    -0.338 N 
BRANCH  30  31
ATOM     31  C   UNL     1      11.779  -5.129   0.467  0.00  0.00    +0.164 C 
BRANCH  31  32
ATOM     32  C   UNL     1      11.534  -6.084  -0.672  0.00  0.00    +0.009 A 
ATOM     33  C   UNL     1      12.414  -6.891  -1.314  0.00  0.00    +0.013 A 
ATOM     34  C   UNL     1      11.960  -7.694  -2.344  0.00  0.00    +0.008 A 
ATOM     35  C   UNL     1      10.648  -7.651  -2.681  0.00  0.00    +0.045 A 
ATOM     36  S   UNL     1      10.008  -6.453  -1.522  0.00  0.00    -0.100 S 
ENDBRANCH  31  32
ENDBRANCH  30  31
ENDBRANCH  23  26
ENDBRANCH   3  22
TORSDOF 7
