REMARK  Name = ZINC58083604
REMARK  10 active torsions:
REMARK  status: ('A' for Active; 'I' for Inactive)
REMARK    1  A    between atoms: C_1  and  C_2
REMARK    2  A    between atoms: C_2  and  C_4
REMARK    3  A    between atoms: C_2  and  N_17
REMARK    4  A    between atoms: N_6  and  C_7
REMARK    5  A    between atoms: C_11  and  N_13
REMARK    6  A    between atoms: N_17  and  C_18
REMARK    7  A    between atoms: C_18  and  C_20
REMARK    8  A    between atoms: C_18  and  C_30
REMARK    9  A    between atoms: C_30  and  C_31
REMARK   10  A    between atoms: C_30  and  C_32
REMARK                            x       y       z     vdW  Elec       q    Type
REMARK                         _______ _______ _______ _____ _____    ______ ____
ROOT
ATOM      1  N   UNL     1       0.711  -0.493   1.192  0.00  0.00    +0.391 N 
ATOM      2  H   UNL     1       0.803  -1.496   1.144  0.00  0.00    -0.084 HD
ATOM      3  H   UNL     1       1.627  -0.072   1.230  0.00  0.00    -0.084 HD
ENDROOT
BRANCH   1   5
ATOM      4  C   UNL     1      -0.033   1.520   0.013  0.00  0.00    -0.004 C 
ATOM      5  C   UNL     1      -0.002  -0.009   0.002  0.00  0.00    +0.014 C 
BRANCH   5   6
ATOM      6  C   UNL     1       0.708  -0.488  -1.238  0.00  0.00    +0.203 C 
ATOM      7  O   UNL     1       1.710  -1.166  -1.140  0.00  0.00    -0.277 OA
ATOM      8  N   UNL     1       0.231  -0.164  -2.456  0.00  0.00    -0.287 N 
ATOM      9  H   UNL     1      -0.606   0.320  -2.535  0.00  0.00    +0.155 HD
BRANCH   8  10
ATOM     10  C   UNL     1       0.943  -0.526  -3.606  0.00  0.00    +0.036 A 
ATOM     11  C   UNL     1       0.954   0.315  -4.710  0.00  0.00    +0.026 A 
ATOM     12  C   UNL     1       1.657  -0.043  -5.844  0.00  0.00    +0.042 A 
ATOM     13  C   UNL     1       2.349  -1.242  -5.880  0.00  0.00    +0.154 A 
ATOM     14  C   UNL     1       2.339  -2.083  -4.779  0.00  0.00    +0.163 A 
ATOM     15  C   UNL     1       1.643  -1.725  -3.642  0.00  0.00    +0.059 A 
ATOM     16  F   UNL     1       3.035  -1.592  -6.990  0.00  0.00    -0.203 F 
BRANCH  14  17
ATOM     17  N   UNL     1       3.080  -3.364  -4.821  0.00  0.00    +0.059 N 
ATOM     18  O   UNL     1       3.072  -4.098  -3.860  0.00  0.00    -0.126 OA
ATOM     19  O   UNL     1       3.694  -3.675  -5.815  0.00  0.00    -0.126 OA
ENDBRANCH  14  17
ENDBRANCH   8  10
ENDBRANCH   5   6
ENDBRANCH   1   5
BRANCH   1  20
ATOM     20  C   UNL     1      -0.046  -0.128   2.397  0.00  0.00    -0.037 C 
BRANCH  20  21
ATOM     21  C   UNL     1       0.743  -0.515   3.622  0.00  0.00    -0.057 A 
ATOM     22  C   UNL     1       1.444  -1.706   3.644  0.00  0.00    +0.006 A 
ATOM     23  C   UNL     1       2.167  -2.065   4.765  0.00  0.00    +0.049 A 
ATOM     24  C   UNL     1       2.193  -1.229   5.872  0.00  0.00    +0.162 A 
ATOM     25  C   UNL     1       1.491  -0.030   5.849  0.00  0.00    +0.162 A 
ATOM     26  C   UNL     1       0.770   0.326   4.719  0.00  0.00    +0.051 A 
ATOM     27  O   UNL     1       1.509   0.808   6.921  0.00  0.00    -0.485 OA
ATOM     28  C   UNL     1       1.940   0.250   8.167  0.00  0.00    +0.270 C 
ATOM     29  C   UNL     1       3.215  -0.565   7.913  0.00  0.00    +0.270 C 
ATOM     30  O   UNL     1       2.907  -1.598   6.971  0.00  0.00    -0.485 OA
ENDBRANCH  20  21
BRANCH  20  31
ATOM     31  C   UNL     1      -1.386  -0.866   2.401  0.00  0.00    -0.027 C 
ATOM     32  C   UNL     1      -1.140  -2.371   2.518  0.00  0.00    +0.006 C 
ATOM     33  C   UNL     1      -2.226  -0.392   3.590  0.00  0.00    +0.006 C 
ENDBRANCH  20  31
ENDBRANCH   1  20
TORSDOF 7
