REMARK  Name = ZINC12204027
REMARK  6 active torsions:
REMARK  status: ('A' for Active; 'I' for Inactive)
REMARK    1  A    between atoms: C_1  and  N_54
REMARK    2  A    between atoms: C_2  and  C_3
REMARK    3  A    between atoms: C_2  and  N_54
REMARK    4  A    between atoms: C_4  and  C_13
REMARK    5  A    between atoms: C_25  and  C_26
REMARK    6  A    between atoms: C_25  and  N_54
REMARK                            x       y       z     vdW  Elec       q    Type
REMARK                         _______ _______ _______ _____ _____    ______ ____
ROOT
ATOM      1  C   UNL     1      -2.496   1.303   0.018  0.00  0.00    +0.039 A 
ATOM      2  C   UNL     1      -3.300   2.407   0.013  0.00  0.00    +0.146 A 
ATOM      3  N   UNL     1      -2.514   3.498  -0.044  0.00  0.00    -0.223 NA
ATOM      4  C   UNL     1      -1.248   3.115  -0.074  0.00  0.00    +0.139 A 
ATOM      5  N   UNL     1      -1.209   1.744  -0.042  0.00  0.00    -0.303 N 
ATOM      6  C   UNL     1      -0.011   1.086  -0.056  0.00  0.00    +0.113 A 
ATOM      7  C   UNL     1       1.149   1.772  -0.113  0.00  0.00    +0.058 A 
ATOM      8  C   UNL     1       1.142   3.178  -0.153  0.00  0.00    +0.025 A 
ATOM      9  C   UNL     1      -0.041   3.846  -0.134  0.00  0.00    +0.048 A 
ATOM     10 CL   UNL     1       2.659   0.915  -0.137  0.00  0.00    -0.082 Cl
ENDROOT
BRANCH   2  11
ATOM     11  C   UNL     1      -4.775   2.404   0.060  0.00  0.00    +0.267 C 
ATOM     12  O   UNL     1      -5.384   1.354  -0.004  0.00  0.00    -0.268 OA
ATOM     13  N   UNL     1      -5.448   3.567   0.175  0.00  0.00    -0.292 N 
ATOM     14  C   UNL     1      -6.915   3.594   0.294  0.00  0.00    +0.113 C 
ATOM     15  C   UNL     1      -7.257   4.168   1.674  0.00  0.00    +0.054 C 
ATOM     16  C   UNL     1      -6.468   5.422   1.943  0.00  0.00    -0.041 A 
ATOM     17  C   UNL     1      -6.942   6.283   2.925  0.00  0.00    +0.004 A 
ATOM     18  C   UNL     1      -6.261   7.442   3.231  0.00  0.00    +0.000 A 
ATOM     19  C   UNL     1      -5.095   7.753   2.554  0.00  0.00    +0.000 A 
ATOM     20  C   UNL     1      -4.625   6.903   1.575  0.00  0.00    +0.005 A 
ATOM     21  C   UNL     1      -5.312   5.737   1.265  0.00  0.00    -0.027 A 
ATOM     22  C   UNL     1      -4.748   4.856   0.178  0.00  0.00    +0.143 C 
ENDBRANCH   2  11
BRANCH   1  23
ATOM     23  C   UNL     1      -2.949  -0.134   0.074  0.00  0.00    -0.021 C 
BRANCH  23  25
ATOM     24  C   UNL     1      -4.119   0.170   2.172  0.00  0.00    -0.095 C 
ATOM     25  N   UNL     1      -3.026  -0.554   1.489  0.00  0.00    +0.386 N 
ATOM     26  H   UNL     1      -2.137  -0.331   1.952  0.00  0.00    -0.081 HD
BRANCH  25  27
ATOM     27  C   UNL     1      -3.257  -2.012   1.571  0.00  0.00    -0.003 C 
BRANCH  27  28
ATOM     28  C   UNL     1      -3.112  -2.447   3.006  0.00  0.00    +0.090 A 
ATOM     29  N   UNL     1      -4.123  -2.598   3.889  0.00  0.00    -0.350 N 
ATOM     30  H   UNL     1      -5.095  -2.440   3.711  0.00  0.00    +0.166 HD
ATOM     31  C   UNL     1      -3.570  -3.006   5.073  0.00  0.00    +0.103 A 
ATOM     32  C   UNL     1      -2.240  -3.083   4.875  0.00  0.00    +0.130 A 
ATOM     33  N   UNL     1      -1.989  -2.736   3.604  0.00  0.00    -0.243 NA
ENDBRANCH  27  28
ENDBRANCH  25  27
ENDBRANCH  23  25
ENDBRANCH   1  23
TORSDOF 5
