REMARK  Name = ZINC11455821
REMARK  7 active torsions:
REMARK  status: ('A' for Active; 'I' for Inactive)
REMARK    1  A    between atoms: C_3  and  N_16
REMARK    2  A    between atoms: C_5  and  S_7
REMARK    3  A    between atoms: S_7  and  N_10
REMARK    4  A    between atoms: C_17  and  C_19
REMARK    5  A    between atoms: C_19  and  O_20
REMARK    6  A    between atoms: O_20  and  C_21
REMARK    7  A    between atoms: C_21  and  C_23
REMARK                            x       y       z     vdW  Elec       q    Type
REMARK                         _______ _______ _______ _____ _____    ______ ____
ROOT
ATOM      1  C   UNL     1      -0.042   3.853   0.044  0.00  0.00    +0.004 A 
ATOM      2  C   UNL     1       1.164   3.180   0.023  0.00  0.00    +0.023 A 
ATOM      3  C   UNL     1       1.183   1.791   0.007  0.00  0.00    +0.035 A 
ATOM      4  C   UNL     1      -0.013   1.084   0.012  0.00  0.00    +0.052 A 
ATOM      5  C   UNL     1      -1.215   1.762   0.028  0.00  0.00    +0.114 A 
ATOM      6  C   UNL     1      -1.230   3.145   0.049  0.00  0.00    +0.029 A 
ENDROOT
BRANCH   3   7
ATOM      7  N   UNL     1       2.403   1.107  -0.015  0.00  0.00    -0.283 N 
ATOM      8  C   UNL     1       3.450   1.617  -0.692  0.00  0.00    +0.255 C 
ATOM      9  O   UNL     1       3.362   2.710  -1.211  0.00  0.00    -0.272 OA
ATOM     10  H   UNL     1       2.494   0.264   0.457  0.00  0.00    +0.155 HD
BRANCH   8  11
ATOM     11  C   UNL     1       4.731   0.832  -0.803  0.00  0.00    +0.328 C 
BRANCH  11  12
ATOM     12  O   UNL     1       5.699   1.591  -1.574  0.00  0.00    -0.452 OA
BRANCH  12  13
ATOM     13  C   UNL     1       6.907   1.025  -1.767  0.00  0.00    +0.341 C 
ATOM     14  O   UNL     1       7.144  -0.073  -1.304  0.00  0.00    -0.245 OA
BRANCH  13  15
ATOM     15  C   UNL     1       7.940   1.738  -2.541  0.00  0.00    +0.077 A 
ATOM     16  C   UNL     1       7.670   3.001  -3.075  0.00  0.00    +0.019 A 
ATOM     17  C   UNL     1       8.639   3.662  -3.797  0.00  0.00    +0.039 A 
ATOM     18  C   UNL     1       9.882   3.078  -3.995  0.00  0.00    +0.125 A 
ATOM     19  C   UNL     1      10.157   1.826  -3.469  0.00  0.00    +0.059 A 
ATOM     20  C   UNL     1       9.196   1.155  -2.739  0.00  0.00    +0.058 A 
ATOM     21 CL   UNL     1       9.544  -0.410  -2.073  0.00  0.00    -0.083 Cl
ATOM     22  F   UNL     1      10.828   3.732  -4.705  0.00  0.00    -0.205 F 
ENDBRANCH  13  15
ENDBRANCH  12  13
ENDBRANCH  11  12
ENDBRANCH   8  11
ENDBRANCH   3   7
BRANCH   5  23
ATOM     23  S   UNL     1      -2.732   0.866   0.027  0.00  0.00    +0.100 S 
ATOM     24  O   UNL     1      -3.719   1.738  -0.507  0.00  0.00    -0.146 OA
ATOM     25  O   UNL     1      -2.451  -0.406  -0.541  0.00  0.00    -0.146 OA
BRANCH  23  26
ATOM     26  N   UNL     1      -3.143   0.598   1.609  0.00  0.00    -0.118 NA
ATOM     27  C   UNL     1      -4.227  -0.047   1.894  0.00  0.00    +0.117 C 
ATOM     28  C   UNL     1      -5.203  -0.601   0.880  0.00  0.00    +0.074 C 
ATOM     29  C   UNL     1      -6.052  -1.615   1.684  0.00  0.00    +0.026 C 
ATOM     30  C   UNL     1      -5.934  -1.064   3.122  0.00  0.00    +0.103 C 
ATOM     31  N   UNL     1      -4.666  -0.326   3.159  0.00  0.00    -0.331 N 
ATOM     32  H   UNL     1      -4.202  -0.071   3.971  0.00  0.00    +0.147 HD
ENDBRANCH  23  26
ENDBRANCH   5  23
TORSDOF 7
