REMARK  Name = ZINC63375952
REMARK  7 active torsions:
REMARK  status: ('A' for Active; 'I' for Inactive)
REMARK    1  A    between atoms: C_1  and  C_2
REMARK    2  A    between atoms: C_2  and  C_3
REMARK    3  A    between atoms: C_2  and  C_4
REMARK    4  A    between atoms: C_4  and  C_6
REMARK    5  A    between atoms: C_4  and  N_15
REMARK    6  A    between atoms: N_8  and  C_9
REMARK    7  A    between atoms: C_16  and  C_18
REMARK                            x       y       z     vdW  Elec       q    Type
REMARK                         _______ _______ _______ _____ _____    ______ ____
ROOT
ATOM      1  C   UNL     1      -3.409   1.639   2.468  0.00  0.00    +0.167 C 
ATOM      2  C   UNL     1      -2.454   1.557   3.675  0.00  0.00    +0.065 C 
ATOM      3  C   UNL     1      -3.304   1.632   4.919  0.00  0.00    -0.034 C 
ATOM      4  C   UNL     1      -3.227   2.434   5.975  0.00  0.00    -0.001 A 
ATOM      5  C   UNL     1      -2.240   3.458   6.355  0.00  0.00    +0.010 A 
ATOM      6  C   UNL     1      -2.480   4.119   7.518  0.00  0.00    +0.001 A 
ATOM      7  C   UNL     1      -3.589   3.868   8.331  0.00  0.00    +0.002 A 
ATOM      8  C   UNL     1      -4.542   2.939   8.063  0.00  0.00    +0.026 A 
ATOM      9  C   UNL     1      -4.394   2.173   6.871  0.00  0.00    +0.043 A 
ATOM     10  N   UNL     1      -5.131   1.218   6.387  0.00  0.00    -0.375 N 
ATOM     11  C   UNL     1      -4.502   0.721   5.162  0.00  0.00    +0.131 C 
ATOM     12  C   UNL     1      -5.424   0.881   3.948  0.00  0.00    +0.134 C 
ATOM     13  N   UNL     1      -4.575   0.787   2.740  0.00  0.00    -0.276 N 
ATOM     14  C   UNL     1      -5.045  -0.202   1.958  0.00  0.00    +0.248 C 
ATOM     15  O   UNL     1      -4.619  -0.477   0.854  0.00  0.00    -0.270 OA
ATOM     16  C   UNL     1      -6.143  -0.897   2.631  0.00  0.00    +0.042 A 
ATOM     17  C   UNL     1      -6.408  -0.241   3.874  0.00  0.00    -0.013 A 
ATOM     18  C   UNL     1      -7.393  -0.657   4.742  0.00  0.00    +0.006 A 
ATOM     19  C   UNL     1      -8.152  -1.759   4.356  0.00  0.00    +0.000 A 
ATOM     20  C   UNL     1      -7.932  -2.410   3.159  0.00  0.00    +0.001 A 
ATOM     21  C   UNL     1      -6.897  -2.006   2.239  0.00  0.00    +0.013 A 
ATOM     22  H   UNL     1      -5.959   0.890   6.773  0.00  0.00    +0.160 HD
ENDROOT
BRANCH   1  24
ATOM     23  N   UNL     1      -2.358  -0.145   1.115  0.00  0.00    -0.302 N 
ATOM     24  C   UNL     1      -2.704   1.153   1.228  0.00  0.00    +0.235 C 
ATOM     25  O   UNL     1      -2.448   1.929   0.333  0.00  0.00    -0.274 OA
ATOM     26  H   UNL     1      -2.563  -0.766   1.831  0.00  0.00    +0.150 HD
BRANCH  23  27
ATOM     27  C   UNL     1      -1.672  -0.617  -0.090  0.00  0.00    +0.161 C 
BRANCH  27  28
ATOM     28  C   UNL     1      -1.933  -2.090  -0.272  0.00  0.00    +0.234 C 
ATOM     29  O   UNL     1      -2.624  -2.687   0.527  0.00  0.00    -0.274 OA
ATOM     30  N   UNL     1      -1.399  -2.745  -1.322  0.00  0.00    -0.311 N 
ATOM     31  H   UNL     1      -0.847  -2.268  -1.961  0.00  0.00    +0.149 HD
BRANCH  30  32
ATOM     32  C   UNL     1      -1.653  -4.177  -1.499  0.00  0.00    +0.073 C 
ATOM     33  C   UNL     1      -0.645  -4.979  -0.673  0.00  0.00    +0.022 C 
ATOM     34  C   UNL     1      -0.910  -6.474  -0.858  0.00  0.00    +0.002 C 
ATOM     35  C   UNL     1      -0.764  -6.840  -2.337  0.00  0.00    +0.000 C 
ATOM     36  C   UNL     1      -1.772  -6.037  -3.162  0.00  0.00    +0.002 C 
ATOM     37  C   UNL     1      -1.507  -4.542  -2.977  0.00  0.00    +0.022 C 
ENDBRANCH  30  32
ENDBRANCH  27  28
BRANCH  27  39
ATOM     38  C   UNL     1       0.098   1.116   0.237  0.00  0.00    +0.009 C 
ATOM     39  C   UNL     1      -0.167  -0.380   0.053  0.00  0.00    +0.012 C 
ATOM     40  C   UNL     1       0.356  -1.145   1.270  0.00  0.00    +0.009 C 
ENDBRANCH  27  39
ENDBRANCH  23  27
ENDBRANCH   1  24
TORSDOF 5
