REMARK  Name = ZINC20059582
REMARK  4 active torsions:
REMARK  status: ('A' for Active; 'I' for Inactive)
REMARK    1  A    between atoms: C_13  and  C_22
REMARK    2  A    between atoms: C_14  and  N_15
REMARK    3  A    between atoms: N_15  and  C_16
REMARK    4  A    between atoms: N_24  and  C_25
REMARK                            x       y       z     vdW  Elec       q    Type
REMARK                         _______ _______ _______ _____ _____    ______ ____
ROOT
ATOM      1  C   UNL     1       2.179   4.173  -0.001  0.00  0.00    +0.005 A 
ATOM      2  C   UNL     1       3.421   3.523   0.006  0.00  0.00    +0.018 A 
ATOM      3  C   UNL     1       3.479   2.173   0.008  0.00  0.00    +0.096 A 
ATOM      4  N   UNL     1       2.339   1.425   0.000  0.00  0.00    -0.268 N 
ATOM      5  C   UNL     1       1.113   2.030   0.002  0.00  0.00    +0.143 A 
ATOM      6  C   UNL     1       1.034   3.435  -0.003  0.00  0.00    +0.047 A 
ATOM      7  N   UNL     1      -0.016   1.319   0.009  0.00  0.00    -0.210 NA
ATOM      8  C   UNL     1       0.002  -0.004   0.002  0.00  0.00    +0.169 A 
ATOM      9  C   UNL     1       1.240  -0.687  -0.030  0.00  0.00    +0.085 A 
ATOM     10  C   UNL     1       2.436   0.077  -0.010  0.00  0.00    +0.268 A 
ATOM     11  O   UNL     1       3.524  -0.470  -0.002  0.00  0.00    -0.267 OA
ATOM     12  C   UNL     1       1.281  -2.088  -0.092  0.00  0.00    +0.033 A 
ATOM     13  C   UNL     1       0.099  -2.792  -0.301  0.00  0.00    +0.077 A 
ATOM     14  C   UNL     1      -1.145  -2.014  -0.486  0.00  0.00    +0.134 A 
ATOM     15  N   UNL     1      -1.170  -0.729   0.044  0.00  0.00    -0.212 NA
ENDROOT
BRANCH  13  16
ATOM     16  C   UNL     1       0.087  -4.259  -0.339  0.00  0.00    +0.248 C 
ATOM     17  O   UNL     1      -0.958  -4.855  -0.523  0.00  0.00    -0.270 OA
ATOM     18  N   UNL     1       1.234  -4.947  -0.168  0.00  0.00    -0.308 N 
ATOM     19  H   UNL     1       2.178  -4.408  -0.001  0.00  0.00    +0.149 HD
BRANCH  18  20
ATOM     20  C   UNL     1       1.222  -6.411  -0.205  0.00  0.00    +0.073 C 
ATOM     21  C   UNL     1       0.912  -6.973   1.198  0.00  0.00    +0.022 C 
ATOM     22  C   UNL     1       1.800  -8.238   1.304  0.00  0.00    +0.002 C 
ATOM     23  C   UNL     1       3.103  -7.804   0.586  0.00  0.00    +0.002 C 
ATOM     24  C   UNL     1       2.614  -6.940  -0.594  0.00  0.00    +0.022 C 
ENDBRANCH  18  20
ENDBRANCH  13  16
BRANCH  14  25
ATOM     25  N   UNL     1      -2.176  -2.513  -1.119  0.00  0.00    -0.326 N 
ATOM     26  H   UNL     1      -2.129  -3.533  -1.529  0.00  0.00    +0.148 HD
BRANCH  25  27
ATOM     27  C   UNL     1      -3.392  -1.713  -1.284  0.00  0.00    +0.072 C 
ATOM     28  C   UNL     1      -4.597  -2.450  -0.665  0.00  0.00    +0.022 C 
ATOM     29  C   UNL     1      -5.771  -2.132  -1.626  0.00  0.00    +0.002 C 
ATOM     30  C   UNL     1      -5.092  -2.167  -3.018  0.00  0.00    +0.002 C 
ATOM     31  C   UNL     1      -3.706  -1.532  -2.779  0.00  0.00    +0.022 C 
ENDBRANCH  25  27
ENDBRANCH  14  25
TORSDOF 4
