REMARK  Name = ZINC39462114
REMARK  6 active torsions:
REMARK  status: ('A' for Active; 'I' for Inactive)
REMARK    1  A    between atoms: C_1  and  C_2
REMARK    2  A    between atoms: C_5  and  C_30
REMARK    3  A    between atoms: C_12  and  N_15
REMARK    4  A    between atoms: C_16  and  C_18
REMARK    5  A    between atoms: C_18  and  N_19
REMARK    6  A    between atoms: C_23  and  C_26
REMARK                            x       y       z     vdW  Elec       q    Type
REMARK                         _______ _______ _______ _____ _____    ______ ____
ROOT
ATOM      1  N   UNL     1       0.508  -2.860   0.932  0.00  0.00    -0.285 N 
ATOM      2  C   UNL     1       0.737  -3.634   2.011  0.00  0.00    +0.229 C 
ATOM      3  O   UNL     1       1.657  -3.375   2.758  0.00  0.00    -0.274 OA
ATOM      4  H   UNL     1      -0.228  -3.067   0.334  0.00  0.00    +0.152 HD
ENDROOT
BRANCH   1  15
ATOM      5  C   UNL     1      -0.019   1.526   0.010  0.00  0.00    +0.043 C 
ATOM      6  C   UNL     1       0.002  -0.004   0.002  0.00  0.00    +0.150 C 
ATOM      7  C   UNL     1       0.727  -0.507  -1.220  0.00  0.00    +0.016 A 
ATOM      8  C   UNL     1       0.712  -0.148  -2.573  0.00  0.00    +0.065 A 
ATOM      9  N   UNL     1       1.470  -0.784  -3.427  0.00  0.00    -0.176 NA
ATOM     10  N   UNL     1       2.248  -1.745  -3.080  0.00  0.00    -0.243 N 
ATOM     11  C   UNL     1       2.332  -2.164  -1.800  0.00  0.00    +0.272 A 
ATOM     12  O   UNL     1       3.079  -3.079  -1.495  0.00  0.00    -0.266 OA
ATOM     13  C   UNL     1       1.546  -1.527  -0.825  0.00  0.00    +0.072 A 
ATOM     14  H   UNL     1       2.789  -2.182  -3.757  0.00  0.00    +0.192 HD
ATOM     15  C   UNL     1       1.370  -1.707   0.661  0.00  0.00    +0.243 C 
ATOM     16  O   UNL     1       0.745  -0.497   1.134  0.00  0.00    -0.347 OA
ATOM     17  C   UNL     1      -0.179   0.972  -3.046  0.00  0.00    +0.068 C 
ENDBRANCH   1  15
BRANCH   2  18
ATOM     18  C   UNL     1      -0.149  -4.820   2.290  0.00  0.00    +0.180 C 
BRANCH  18  19
ATOM     19  N   UNL     1       0.305  -5.494   3.514  0.00  0.00    -0.293 NA
ATOM     20  C   UNL     1       1.637  -6.083   3.326  0.00  0.00    +0.085 C 
ATOM     21  C   UNL     1       2.138  -6.647   4.658  0.00  0.00    +0.016 C 
ATOM     22  C   UNL     1       1.156  -7.710   5.158  0.00  0.00    +0.015 C 
ATOM     23  C   UNL     1      -0.234  -7.083   5.298  0.00  0.00    +0.107 C 
ATOM     24  C   UNL     1      -0.667  -6.505   3.949  0.00  0.00    +0.097 C 
BRANCH  23  25
ATOM     25  C   UNL     1      -1.235  -8.152   5.742  0.00  0.00    +0.394 C 
ATOM     26  F   UNL     1      -0.836  -8.681   6.974  0.00  0.00    -0.170 F 
ATOM     27  F   UNL     1      -2.504  -7.578   5.870  0.00  0.00    -0.170 F 
ATOM     28  F   UNL     1      -1.279  -9.174   4.788  0.00  0.00    -0.170 F 
ENDBRANCH  23  25
ENDBRANCH  18  19
ENDBRANCH   2  18
TORSDOF 4
