REMARK  Name = ZINC54069615
REMARK  5 active torsions:
REMARK  status: ('A' for Active; 'I' for Inactive)
REMARK    1  A    between atoms: C_1  and  C_2
REMARK    2  A    between atoms: C_2  and  C_4
REMARK    3  A    between atoms: C_2  and  N_14
REMARK    4  A    between atoms: N_17  and  N_18
REMARK    5  A    between atoms: C_19  and  C_21
REMARK                            x       y       z     vdW  Elec       q    Type
REMARK                         _______ _______ _______ _____ _____    ______ ____
ROOT
ATOM      1  N   UNL     1       0.630  -0.498   1.230  0.00  0.00    -0.292 N 
ATOM      2  C   UNL     1      -0.118  -0.710   2.331  0.00  0.00    +0.316 C 
ATOM      3  O   UNL     1      -1.313  -0.490   2.306  0.00  0.00    -0.251 OA
ATOM      4  N   UNL     1       0.460  -1.165   3.461  0.00  0.00    -0.218 N 
ATOM      5  H   UNL     1       1.584  -0.674   1.250  0.00  0.00    +0.151 HD
ATOM      6  H   UNL     1      -0.078  -1.317   4.253  0.00  0.00    +0.174 HD
ENDROOT
BRANCH   4   7
ATOM      7  N   UNL     1       1.837  -1.418   3.490  0.00  0.00    -0.233 N 
ATOM      8  C   UNL     1       2.415  -1.873   4.620  0.00  0.00    +0.234 C 
ATOM      9  O   UNL     1       1.742  -2.063   5.611  0.00  0.00    -0.274 OA
ATOM     10  H   UNL     1       2.376  -1.266   2.698  0.00  0.00    +0.173 HD
BRANCH   8  11
ATOM     11  C   UNL     1       3.897  -2.145   4.651  0.00  0.00    +0.099 C 
ATOM     12  C   UNL     1       4.661  -0.846   4.350  0.00  0.00    +0.037 C 
ATOM     13  C   UNL     1       6.161  -1.075   4.695  0.00  0.00    +0.166 C 
ATOM     14  S   UNL     1       6.004  -2.040   6.256  0.00  0.00    -0.030 S 
ATOM     15  O   UNL     1       6.034  -1.144   7.359  0.00  0.00    -0.174 OA
ATOM     16  O   UNL     1       6.913  -3.132   6.218  0.00  0.00    -0.174 OA
ATOM     17  C   UNL     1       4.292  -2.676   6.051  0.00  0.00    +0.178 C 
ENDBRANCH   8  11
ENDBRANCH   4   7
BRANCH   1  19
ATOM     18  C   UNL     1      -0.038   1.525   0.030  0.00  0.00    +0.033 C 
ATOM     19  C   UNL     1       0.002  -0.004   0.002  0.00  0.00    +0.102 C 
BRANCH  19  20
ATOM     20  C   UNL     1       0.800  -0.464  -1.191  0.00  0.00    -0.020 A 
ATOM     21  C   UNL     1       2.132  -0.715  -1.067  0.00  0.00    +0.006 A 
ATOM     22  C   UNL     1       2.886  -1.141  -2.159  0.00  0.00    +0.001 A 
ATOM     23  C   UNL     1       2.313  -1.319  -3.380  0.00  0.00    +0.008 A 
ATOM     24  C   UNL     1       0.940  -1.070  -3.546  0.00  0.00    -0.018 A 
ATOM     25  C   UNL     1       0.172  -0.642  -2.435  0.00  0.00    -0.013 A 
ATOM     26  C   UNL     1      -1.203  -0.399  -2.600  0.00  0.00    +0.009 A 
ATOM     27  C   UNL     1      -1.777  -0.582  -3.820  0.00  0.00    +0.001 A 
ATOM     28  C   UNL     1      -1.023  -1.009  -4.911  0.00  0.00    +0.001 A 
ATOM     29  C   UNL     1       0.313  -1.242  -4.792  0.00  0.00    +0.008 A 
ENDBRANCH  19  20
ENDBRANCH   1  19
TORSDOF 4
