REMARK  Name = ZINC18401597
REMARK  8 active torsions:
REMARK  status: ('A' for Active; 'I' for Inactive)
REMARK    1  A    between atoms: C_1  and  C_2
REMARK    2  A    between atoms: C_3  and  C_7
REMARK    3  A    between atoms: C_10  and  S_12
REMARK    4  A    between atoms: S_12  and  C_13
REMARK    5  A    between atoms: C_13  and  C_14
REMARK    6  A    between atoms: N_16  and  C_17
REMARK    7  A    between atoms: C_17  and  C_18
REMARK    8  A    between atoms: N_20  and  C_21
REMARK                            x       y       z     vdW  Elec       q    Type
REMARK                         _______ _______ _______ _____ _____    ______ ____
ROOT
ATOM      1  C   UNL     1       7.103   1.496   5.034  0.00  0.00    +0.224 C 
ATOM      2  O   UNL     1       6.990   1.866   6.183  0.00  0.00    -0.275 OA
ATOM      3  N   UNL     1       8.313   1.147   4.554  0.00  0.00    -0.306 N 
ATOM      4  H   UNL     1       8.403   0.851   3.635  0.00  0.00    +0.149 HD
ENDROOT
BRANCH   1   5
ATOM      5  C   UNL     1       5.890   1.427   4.142  0.00  0.00    +0.174 C 
BRANCH   5   6
ATOM      6  S   UNL     1       4.428   1.954   5.069  0.00  0.00    -0.056 S 
BRANCH   6  10
ATOM      7  C   UNL     1       1.314   1.771   2.762  0.00  0.00    +0.253 A 
ATOM      8  N   UNL     1       2.268   1.361   1.961  0.00  0.00    -0.106 NA
ATOM      9  N   UNL     1       3.389   1.371   2.591  0.00  0.00    -0.101 NA
ATOM     10  C   UNL     1       3.195   1.780   3.822  0.00  0.00    +0.278 A 
ATOM     11  O   UNL     1       1.881   2.042   3.958  0.00  0.00    -0.411 OA
BRANCH   7  14
ATOM     12  C   UNL     1      -0.001   1.143  -0.014  0.00  0.00    +0.087 C 
ATOM     13  C   UNL     1      -0.706   1.639   1.223  0.00  0.00    +0.114 A 
ATOM     14  C   UNL     1      -0.117   1.906   2.420  0.00  0.00    +0.079 A 
ATOM     15  C   UNL     1      -1.201   2.357   3.304  0.00  0.00    +0.054 A 
ATOM     16  C   UNL     1      -2.322   2.318   2.565  0.00  0.00    +0.196 A 
ATOM     17  O   UNL     1      -2.017   1.896   1.328  0.00  0.00    -0.467 OA
ENDBRANCH   7  14
ENDBRANCH   6  10
ENDBRANCH   5   6
ENDBRANCH   1   5
BRANCH   3  18
ATOM     18  C   UNL     1       9.492   1.215   5.421  0.00  0.00    +0.200 C 
BRANCH  18  19
ATOM     19  C   UNL     1      10.709   0.775   4.649  0.00  0.00    +0.234 C 
ATOM     20  O   UNL     1      10.602   0.438   3.489  0.00  0.00    -0.274 OA
ATOM     21  N   UNL     1      11.916   0.756   5.248  0.00  0.00    -0.283 N 
ATOM     22  H   UNL     1      12.013   1.087   6.155  0.00  0.00    +0.155 HD
BRANCH  21  23
ATOM     23  C   UNL     1      13.030   0.259   4.562  0.00  0.00    +0.047 A 
ATOM     24  C   UNL     1      13.146   0.453   3.192  0.00  0.00    +0.024 A 
ATOM     25  C   UNL     1      14.249  -0.035   2.518  0.00  0.00    +0.002 A 
ATOM     26  C   UNL     1      15.232  -0.724   3.204  0.00  0.00    +0.001 A 
ATOM     27  C   UNL     1      15.118  -0.922   4.568  0.00  0.00    +0.017 A 
ATOM     28  C   UNL     1      14.020  -0.433   5.249  0.00  0.00    +0.039 A 
ATOM     29 BR   UNL     1      13.863  -0.706   7.114  0.00  0.00    -0.048 Br
ENDBRANCH  21  23
ENDBRANCH  18  19
ENDBRANCH   3  18
TORSDOF 7
