REMARK  Name = ZINC13222255
REMARK  10 active torsions:
REMARK  status: ('A' for Active; 'I' for Inactive)
REMARK    1  A    between atoms: C_1  and  C_2
REMARK    2  A    between atoms: C_3  and  C_27
REMARK    3  A    between atoms: C_4  and  C_26
REMARK    4  A    between atoms: C_9  and  S_11
REMARK    5  A    between atoms: S_11  and  C_12
REMARK    6  A    between atoms: C_12  and  C_13
REMARK    7  A    between atoms: N_15  and  C_16
REMARK    8  A    between atoms: C_16  and  C_18
REMARK    9  A    between atoms: C_16  and  C_19
REMARK   10  A    between atoms: C_27  and  C_28
REMARK                            x       y       z     vdW  Elec       q    Type
REMARK                         _______ _______ _______ _____ _____    ______ ____
ROOT
ATOM      1  C   UNL     1      -0.997  -0.562  -1.627  0.00  0.00    +0.066 C 
ATOM      2  C   UNL     1      -1.727  -0.996  -0.382  0.00  0.00    +0.047 A 
ATOM      3  C   UNL     1      -1.199  -0.692   0.878  0.00  0.00    +0.006 A 
ATOM      4  C   UNL     1      -1.871  -1.084   1.992  0.00  0.00    +0.049 A 
ATOM      5  N   UNL     1      -3.036  -1.768   1.852  0.00  0.00    -0.200 N 
ATOM      6  C   UNL     1      -3.522  -2.055   0.608  0.00  0.00    +0.254 A 
ATOM      7  N   UNL     1      -2.855  -1.663  -0.484  0.00  0.00    -0.216 NA
ATOM      8  N   UNL     1      -4.660  -2.722   0.770  0.00  0.00    -0.183 NA
ATOM      9  C   UNL     1      -4.912  -2.869   2.069  0.00  0.00    +0.211 A 
ATOM     10  N   UNL     1      -3.950  -2.304   2.770  0.00  0.00    -0.137 NA
ATOM     11  C   UNL     1      -1.331  -0.766   3.362  0.00  0.00    +0.066 C 
ENDROOT
BRANCH   9  12
ATOM     12  S   UNL     1      -6.315  -3.693   2.746  0.00  0.00    -0.075 S 
BRANCH  12  13
ATOM     13  C   UNL     1      -7.247  -4.241   1.290  0.00  0.00    +0.173 C 
BRANCH  13  14
ATOM     14  C   UNL     1      -8.489  -4.970   1.734  0.00  0.00    +0.224 C 
ATOM     15  O   UNL     1      -8.723  -5.106   2.916  0.00  0.00    -0.275 OA
ATOM     16  N   UNL     1      -9.341  -5.471   0.817  0.00  0.00    -0.308 N 
ATOM     17  H   UNL     1      -9.154  -5.362  -0.129  0.00  0.00    +0.149 HD
BRANCH  16  18
ATOM     18  C   UNL     1     -10.548  -6.179   1.249  0.00  0.00    +0.102 C 
ATOM     19  C   UNL     1     -11.681  -5.173   1.464  0.00  0.00    +0.033 C 
BRANCH  18  20
ATOM     20  C   UNL     1     -10.953  -7.173   0.190  0.00  0.00    -0.009 A 
ATOM     21  C   UNL     1     -10.618  -6.949  -1.132  0.00  0.00    +0.007 A 
ATOM     22  C   UNL     1     -10.986  -7.862  -2.103  0.00  0.00    +0.000 A 
ATOM     23  C   UNL     1     -11.697  -8.994  -1.753  0.00  0.00    +0.001 A 
ATOM     24  C   UNL     1     -12.038  -9.216  -0.432  0.00  0.00    +0.020 A 
ATOM     25  C   UNL     1     -11.666  -8.305   0.540  0.00  0.00    +0.046 A 
ATOM     26 CL   UNL     1     -12.094  -8.583   2.200  0.00  0.00    -0.083 Cl
ENDBRANCH  18  20
ENDBRANCH  16  18
ENDBRANCH  13  14
ENDBRANCH  12  13
ENDBRANCH   9  12
BRANCH   3  27
ATOM     27  C   UNL     1       0.097   0.068   0.997  0.00  0.00    +0.163 C 
BRANCH  27  28
ATOM     28  C   UNL     1       1.248  -0.904   1.039  0.00  0.00    +0.360 C 
ATOM     29  O   UNL     1       1.037  -2.092   0.977  0.00  0.00    -0.246 OA
ATOM     30  O   UNL     1       2.507  -0.450   1.138  0.00  0.00    -0.246 OA
ENDBRANCH  27  28
ENDBRANCH   3  27
TORSDOF 7
