REMARK  Name = ZINC41554464
REMARK  5 active torsions:
REMARK  status: ('A' for Active; 'I' for Inactive)
REMARK    1  A    between atoms: C_3  and  N_11
REMARK    2  A    between atoms: C_6  and  N_7
REMARK    3  A    between atoms: C_12  and  C_14
REMARK    4  A    between atoms: N_16  and  C_17
REMARK    5  A    between atoms: C_17  and  C_18
REMARK                            x       y       z     vdW  Elec       q    Type
REMARK                         _______ _______ _______ _____ _____    ______ ____
ROOT
ATOM      1  N   UNL     1       3.583   2.124  -0.021  0.00  0.00    -0.276 N 
ATOM      2  C   UNL     1       3.567   3.469  -0.116  0.00  0.00    +0.303 C 
ATOM      3  O   UNL     1       2.510   4.066  -0.103  0.00  0.00    -0.265 OA
ATOM      4  H   UNL     1       4.428   1.653   0.049  0.00  0.00    +0.155 HD
ENDROOT
BRANCH   1   7
ATOM      5  C   UNL     1       0.065   1.242  -0.620  0.00  0.00    +0.034 A 
ATOM      6  C   UNL     1       1.250   1.952  -0.619  0.00  0.00    +0.027 A 
ATOM      7  C   UNL     1       2.382   1.409  -0.024  0.00  0.00    +0.052 A 
ATOM      8  C   UNL     1       2.317   0.153   0.568  0.00  0.00    +0.064 A 
ATOM      9  C   UNL     1       1.128  -0.551   0.562  0.00  0.00    +0.054 A 
ATOM     10  C   UNL     1       0.004  -0.007  -0.031  0.00  0.00    +0.128 A 
ATOM     11 CL   UNL     1       3.729  -0.531   1.312  0.00  0.00    -0.082 Cl
BRANCH  10  12
ATOM     12  N   UNL     1      -1.269  -0.763  -0.035  0.00  0.00    +0.056 N 
ATOM     13  O   UNL     1      -2.253  -0.289  -0.552  0.00  0.00    -0.126 OA
ATOM     14  O   UNL     1      -1.324  -1.856   0.480  0.00  0.00    -0.126 OA
ENDBRANCH  10  12
ENDBRANCH   1   7
BRANCH   2  15
ATOM     15  C   UNL     1       4.849   4.224  -0.237  0.00  0.00    +0.300 C 
ATOM     16  O   UNL     1       5.906   3.627  -0.250  0.00  0.00    -0.265 OA
ATOM     17  N   UNL     1       4.833   5.569  -0.332  0.00  0.00    -0.303 N 
ATOM     18  H   UNL     1       3.989   6.045  -0.322  0.00  0.00    +0.149 HD
BRANCH  17  19
ATOM     19  C   UNL     1       6.092   6.309  -0.451  0.00  0.00    +0.140 C 
BRANCH  19  20
ATOM     20  C   UNL     1       5.799   7.785  -0.540  0.00  0.00    -0.023 A 
ATOM     21  C   UNL     1       5.596   8.386  -1.768  0.00  0.00    +0.013 A 
ATOM     22  C   UNL     1       5.335   9.716  -1.814  0.00  0.00    +0.045 A 
ATOM     23  S   UNL     1       5.371  10.159  -0.085  0.00  0.00    -0.105 S 
ATOM     24  C   UNL     1       5.726   8.541   0.582  0.00  0.00    +0.050 A 
ENDBRANCH  19  20
ENDBRANCH  17  19
ENDBRANCH   2  15
TORSDOF 5
