REMARK  Name = ZINC04976629
REMARK  10 active torsions:
REMARK  status: ('A' for Active; 'I' for Inactive)
REMARK    1  A    between atoms: C_1  and  C_2
REMARK    2  A    between atoms: C_2  and  N_3
REMARK    3  A    between atoms: C_4  and  C_24
REMARK    4  A    between atoms: C_7  and  S_8
REMARK    5  A    between atoms: S_8  and  C_9
REMARK    6  A    between atoms: C_9  and  C_11
REMARK    7  A    between atoms: C_9  and  C_12
REMARK    8  A    between atoms: N_14  and  C_15
REMARK    9  A    between atoms: C_18  and  N_21
REMARK   10  A    between atoms: C_27  and  O_30
REMARK                            x       y       z     vdW  Elec       q    Type
REMARK                         _______ _______ _______ _____ _____    ______ ____
ROOT
ATOM      1  S   UNL     1      -1.794  -0.352  -2.741  0.00  0.00    -0.074 S 
ENDROOT
BRANCH   1   6
ATOM      2  N   UNL     1      -1.383  -0.518   0.022  0.00  0.00    -0.302 N 
ATOM      3  C   UNL     1      -2.116  -0.932   1.110  0.00  0.00    +0.165 A 
ATOM      4  N   UNL     1      -3.279  -1.342   0.658  0.00  0.00    -0.128 NA
ATOM      5  N   UNL     1      -3.322  -1.214  -0.620  0.00  0.00    -0.122 NA
ATOM      6  C   UNL     1      -2.193  -0.710  -1.062  0.00  0.00    +0.193 A 
BRANCH   3   7
ATOM      7  C   UNL     1      -1.677  -0.920   2.521  0.00  0.00    +0.020 A 
ATOM      8  C   UNL     1      -2.316  -1.731   3.461  0.00  0.00    +0.015 A 
ATOM      9  C   UNL     1      -1.903  -1.716   4.776  0.00  0.00    +0.046 A 
ATOM     10  C   UNL     1      -0.853  -0.896   5.167  0.00  0.00    +0.117 A 
ATOM     11  C   UNL     1      -0.215  -0.087   4.236  0.00  0.00    +0.046 A 
ATOM     12  C   UNL     1      -0.618  -0.101   2.917  0.00  0.00    +0.015 A 
BRANCH  10  13
ATOM     13  O   UNL     1      -0.450  -0.884   6.464  0.00  0.00    -0.507 OA
ATOM     14  H   UNL     1       0.239  -1.531   6.668  0.00  0.00    +0.292 HD
ENDBRANCH  10  13
ENDBRANCH   3   7
BRANCH   2  16
ATOM     15  C   UNL     1      -0.080   1.551   0.062  0.00  0.00    +0.027 C 
ATOM     16  C   UNL     1      -0.022   0.023   0.025  0.00  0.00    +0.122 C 
ENDBRANCH   2  16
ENDBRANCH   1   6
BRANCH   1  17
ATOM     17  C   UNL     1      -3.283  -0.834  -3.658  0.00  0.00    +0.137 C 
ATOM     18  C   UNL     1      -3.489  -2.345  -3.538  0.00  0.00    +0.029 C 
BRANCH  17  19
ATOM     19  C   UNL     1      -3.122  -0.463  -5.109  0.00  0.00    +0.230 C 
ATOM     20  O   UNL     1      -2.012  -0.360  -5.589  0.00  0.00    -0.274 OA
ATOM     21  N   UNL     1      -4.209  -0.245  -5.874  0.00  0.00    -0.285 N 
ATOM     22  H   UNL     1      -5.092  -0.244  -5.473  0.00  0.00    +0.155 HD
BRANCH  21  23
ATOM     23  C   UNL     1      -4.065  -0.020  -7.248  0.00  0.00    +0.034 A 
ATOM     24  C   UNL     1      -5.021   0.715  -7.937  0.00  0.00    +0.025 A 
ATOM     25  C   UNL     1      -4.875   0.935  -9.293  0.00  0.00    +0.034 A 
ATOM     26  C   UNL     1      -3.780   0.424  -9.964  0.00  0.00    +0.126 A 
ATOM     27  C   UNL     1      -2.827  -0.309  -9.281  0.00  0.00    +0.034 A 
ATOM     28  C   UNL     1      -2.963  -0.527  -7.924  0.00  0.00    +0.025 A 
BRANCH  26  29
ATOM     29  N   UNL     1      -3.627   0.661 -11.417  0.00  0.00    +0.056 N 
ATOM     30  O   UNL     1      -4.460   1.302 -12.016  0.00  0.00    -0.126 OA
ATOM     31  O   UNL     1      -2.670   0.215 -12.005  0.00  0.00    -0.126 OA
ENDBRANCH  26  29
ENDBRANCH  21  23
ENDBRANCH  17  19
ENDBRANCH   1  17
TORSDOF 8
