REMARK  Name = ZINC12006607
REMARK  8 active torsions:
REMARK  status: ('A' for Active; 'I' for Inactive)
REMARK    1  A    between atoms: C_1  and  C_2
REMARK    2  A    between atoms: C_2  and  C_3
REMARK    3  A    between atoms: C_3  and  C_4
REMARK    4  A    between atoms: C_4  and  C_5
REMARK    5  A    between atoms: N_7  and  C_8
REMARK    6  A    between atoms: C_10  and  C_23
REMARK    7  A    between atoms: C_19  and  C_21
REMARK    8  A    between atoms: C_21  and  C_22
REMARK                            x       y       z     vdW  Elec       q    Type
REMARK                         _______ _______ _______ _____ _____    ______ ____
ROOT
ATOM      1  C   UNL     1       0.604  -2.058  -1.026  0.00  0.00    +0.132 A 
ATOM      2  C   UNL     1       0.076  -2.870  -0.076  0.00  0.00    +0.077 A 
ATOM      3  C   UNL     1       0.312  -4.205  -0.471  0.00  0.00    +0.130 A 
ATOM      4  N   UNL     1       0.960  -4.186  -1.618  0.00  0.00    -0.159 NA
ATOM      5  N   UNL     1       1.152  -2.851  -1.993  0.00  0.00    -0.184 N 
ATOM      6  C   UNL     1       1.788  -2.413  -3.139  0.00  0.00    +0.234 A 
ATOM      7  N   UNL     1       2.292  -3.325  -4.013  0.00  0.00    -0.291 N 
ATOM      8  H   UNL     1       2.204  -4.273  -3.830  0.00  0.00    +0.172 HD
ATOM      9  C   UNL     1       2.910  -2.905  -5.137  0.00  0.00    +0.253 A 
ATOM     10  O   UNL     1       3.364  -3.709  -5.934  0.00  0.00    -0.268 OA
ATOM     11  C   UNL     1       3.026  -1.521  -5.369  0.00  0.00    +0.093 A 
ATOM     12  C   UNL     1       2.505  -0.655  -4.453  0.00  0.00    +0.050 A 
ATOM     13  N   UNL     1       1.900  -1.121  -3.361  0.00  0.00    -0.217 NA
ENDROOT
BRANCH   3  14
ATOM     14  C   UNL     1      -0.097  -5.414   0.275  0.00  0.00    +0.155 A 
ATOM     15  C   UNL     1       0.125  -6.700  -0.107  0.00  0.00    +0.051 A 
ATOM     16  C   UNL     1      -0.426  -7.522   0.896  0.00  0.00    +0.042 A 
ATOM     17  C   UNL     1      -0.960  -6.706   1.826  0.00  0.00    +0.196 A 
ATOM     18  O   UNL     1      -0.759  -5.433   1.447  0.00  0.00    -0.461 OA
ENDBRANCH   3  14
BRANCH   1  21
ATOM     19  C   UNL     1       0.002  -0.004   0.002  0.00  0.00    +0.218 C 
ATOM     20  O   UNL     1      -0.506  -0.623   0.913  0.00  0.00    -0.275 OA
ATOM     21  N   UNL     1       0.585  -0.664  -1.018  0.00  0.00    -0.270 N 
ATOM     22  H   UNL     1       0.992  -0.170  -1.747  0.00  0.00    +0.156 HD
BRANCH  19  23
ATOM     23  C   UNL     1      -0.018   1.503   0.010  0.00  0.00    +0.096 C 
BRANCH  23  24
ATOM     24  C   UNL     1      -0.735   1.996   1.269  0.00  0.00    +0.009 C 
BRANCH  24  26
ATOM     25  C   UNL     1      -1.471   4.019   2.536  0.00  0.00    +0.004 C 
ATOM     26  C   UNL     1      -0.755   3.526   1.278  0.00  0.00    -0.003 C 
ENDBRANCH  24  26
ENDBRANCH  23  24
ENDBRANCH  19  23
ENDBRANCH   1  21
BRANCH  12  27
ATOM     27  C   UNL     1       2.614   0.831  -4.675  0.00  0.00    +0.052 C 
ATOM     28  C   UNL     1       1.337   1.343  -5.343  0.00  0.00    +0.010 C 
ENDBRANCH  12  27
TORSDOF 6
