REMARK  Name = ZINC06733523
REMARK  7 active torsions:
REMARK  status: ('A' for Active; 'I' for Inactive)
REMARK    1  A    between atoms: C_1  and  C_2
REMARK    2  A    between atoms: C_2  and  C_3
REMARK    3  A    between atoms: C_2  and  C_4
REMARK    4  A    between atoms: C_11  and  N_28
REMARK    5  A    between atoms: C_12  and  C_26
REMARK    6  A    between atoms: N_20  and  C_23
REMARK    7  A    between atoms: C_23  and  C_24
REMARK                            x       y       z     vdW  Elec       q    Type
REMARK                         _______ _______ _______ _____ _____    ______ ____
ROOT
ATOM      1  C   UNL     1       0.731  -0.503   1.223  0.00  0.00    +0.047 A 
ATOM      2  C   UNL     1       0.223  -1.294   2.180  0.00  0.00    +0.061 A 
ATOM      3  C   UNL     1       1.234  -1.524   3.141  0.00  0.00    +0.245 A 
ATOM      4  N   UNL     1       2.303  -0.889   2.760  0.00  0.00    -0.135 NA
ATOM      5  N   UNL     1       2.018  -0.239   1.548  0.00  0.00    -0.278 N 
ATOM      6  H   UNL     1       2.634   0.306   1.035  0.00  0.00    +0.189 HD
ATOM      7  O   UNL     1       1.018  -2.294   4.241  0.00  0.00    -0.421 OA
ATOM      8  C   UNL     1      -0.254  -2.624   4.537  0.00  0.00    +0.201 C 
ATOM      9  C   UNL     1      -1.301  -2.463   3.696  0.00  0.00    +0.110 C 
ATOM     10  C   UNL     1      -1.151  -1.889   2.315  0.00  0.00    +0.145 C 
ATOM     11  C   UNL     1      -1.400  -2.924   1.266  0.00  0.00    -0.001 A 
ATOM     12  C   UNL     1      -0.768  -4.117   0.987  0.00  0.00    +0.007 A 
ATOM     13  C   UNL     1      -1.260  -4.857  -0.082  0.00  0.00    +0.000 A 
ATOM     14  C   UNL     1      -2.333  -4.416  -0.829  0.00  0.00    +0.002 A 
ATOM     15  C   UNL     1      -2.975  -3.219  -0.554  0.00  0.00    +0.024 A 
ATOM     16  C   UNL     1      -2.491  -2.465   0.516  0.00  0.00    +0.041 A 
ATOM     17  N   UNL     1      -2.935  -1.250   1.008  0.00  0.00    -0.266 N 
ATOM     18  C   UNL     1      -2.207  -0.835   2.066  0.00  0.00    +0.241 C 
ATOM     19  O   UNL     1      -2.369   0.188   2.697  0.00  0.00    -0.274 OA
ENDROOT
BRANCH   1  21
ATOM     20  C   UNL     1      -0.019   1.526   0.010  0.00  0.00    +0.014 C 
ATOM     21  C   UNL     1       0.002  -0.004   0.002  0.00  0.00    +0.031 C 
ATOM     22  C   UNL     1       0.718  -0.497  -1.257  0.00  0.00    +0.014 C 
ENDBRANCH   1  21
BRANCH   8  23
ATOM     23  N   UNL     1      -0.505  -3.161   5.775  0.00  0.00    -0.328 N 
ATOM     24  H   UNL     1       0.223  -3.291   6.404  0.00  0.00    +0.145 HD
ATOM     25  H   UNL     1      -1.409  -3.410   6.022  0.00  0.00    +0.145 HD
ENDBRANCH   8  23
BRANCH   9  26
ATOM     26  C   UNL     1      -2.605  -2.855   4.140  0.00  0.00    +0.102 C 
ATOM     27  N   UNL     1      -3.639  -3.166   4.491  0.00  0.00    -0.191 NA
ENDBRANCH   9  26
BRANCH  17  28
ATOM     28  C   UNL     1      -4.062  -0.502   0.445  0.00  0.00    +0.140 C 
BRANCH  28  29
ATOM     29  C   UNL     1      -5.337  -0.924   1.129  0.00  0.00    -0.015 C 
ATOM     30  C   UNL     1      -6.105  -0.026   1.696  0.00  0.00    +0.005 C 
ENDBRANCH  28  29
ENDBRANCH  17  28
TORSDOF 5
