REMARK  Name = ZINC67536647
REMARK  8 active torsions:
REMARK  status: ('A' for Active; 'I' for Inactive)
REMARK    1  A    between atoms: C_1  and  C_2
REMARK    2  A    between atoms: C_2  and  C_3
REMARK    3  A    between atoms: C_4  and  C_12
REMARK    4  A    between atoms: C_12  and  N_13
REMARK    5  A    between atoms: N_13  and  C_14
REMARK    6  A    between atoms: N_17  and  C_18
REMARK    7  A    between atoms: C_18  and  C_19
REMARK    8  A    between atoms: C_23  and  N_25
REMARK                            x       y       z     vdW  Elec       q    Type
REMARK                         _______ _______ _______ _____ _____    ______ ____
ROOT
ATOM      1  N   UNL     1       3.389  -1.606   0.411  0.00  0.00    -0.284 N 
ATOM      2  C   UNL     1       4.535  -2.419  -0.005  0.00  0.00    +0.134 C 
ATOM      3  C   UNL     1       2.626  -1.999   1.450  0.00  0.00    +0.303 C 
ATOM      4  O   UNL     1       1.733  -1.280   1.854  0.00  0.00    -0.253 OA
ATOM      5  N   UNL     1       2.853  -3.189   2.041  0.00  0.00    -0.295 N 
ATOM      6  H   UNL     1       3.566  -3.762   1.718  0.00  0.00    +0.151 HD
ENDROOT
BRANCH   1   7
ATOM      7  C   UNL     1       3.072  -0.367  -0.303  0.00  0.00    +0.148 C 
BRANCH   7   9
ATOM      8  C   UNL     1       0.917  -0.636  -1.635  0.00  0.00    +0.111 A 
ATOM      9  C   UNL     1       2.251  -0.687  -1.526  0.00  0.00    +0.019 A 
ATOM     10  C   UNL     1       2.753  -1.117  -2.837  0.00  0.00    +0.025 A 
ATOM     11  C   UNL     1       4.020  -1.356  -3.365  0.00  0.00    +0.012 A 
ATOM     12  C   UNL     1       4.148  -1.759  -4.665  0.00  0.00    +0.001 A 
ATOM     13  C   UNL     1       3.024  -1.930  -5.461  0.00  0.00    +0.004 A 
ATOM     14  C   UNL     1       1.763  -1.698  -4.956  0.00  0.00    +0.047 A 
ATOM     15  C   UNL     1       1.611  -1.288  -3.637  0.00  0.00    +0.136 A 
ATOM     16  O   UNL     1       0.539  -0.995  -2.874  0.00  0.00    -0.459 OA
BRANCH   8  18
ATOM     17  C   UNL     1      -0.208   1.278  -0.530  0.00  0.00    +0.012 C 
ATOM     18  C   UNL     1      -0.025  -0.241  -0.526  0.00  0.00    +0.071 C 
ENDBRANCH   8  18
ENDBRANCH   7   9
ENDBRANCH   1   7
BRANCH   5  19
ATOM     19  C   UNL     1       2.024  -3.616   3.171  0.00  0.00    +0.141 C 
BRANCH  19  20
ATOM     20  C   UNL     1       2.481  -4.971   3.645  0.00  0.00    -0.028 A 
ATOM     21  C   UNL     1       1.930  -6.116   3.100  0.00  0.00    +0.005 A 
ATOM     22  C   UNL     1       2.349  -7.359   3.535  0.00  0.00    +0.003 A 
ATOM     23  C   UNL     1       3.319  -7.458   4.515  0.00  0.00    +0.033 A 
ATOM     24  C   UNL     1       3.870  -6.314   5.059  0.00  0.00    +0.127 A 
ATOM     25  C   UNL     1       3.455  -5.070   4.621  0.00  0.00    +0.038 A 
BRANCH  24  26
ATOM     26  N   UNL     1       4.909  -6.419   6.109  0.00  0.00    +0.056 N 
ATOM     27  O   UNL     1       5.274  -7.507   6.490  0.00  0.00    -0.126 OA
ATOM     28  O   UNL     1       5.391  -5.418   6.585  0.00  0.00    -0.126 OA
ENDBRANCH  24  26
ENDBRANCH  19  20
ENDBRANCH   5  19
TORSDOF 6
