REMARK  Name = ZINC32835691
REMARK  10 active torsions:
REMARK  status: ('A' for Active; 'I' for Inactive)
REMARK    1  A    between atoms: C_1  and  C_2
REMARK    2  A    between atoms: C_2  and  C_28
REMARK    3  A    between atoms: N_5  and  C_9
REMARK    4  A    between atoms: C_9  and  C_10
REMARK    5  A    between atoms: C_13  and  C_23
REMARK    6  A    between atoms: C_16  and  C_18
REMARK    7  A    between atoms: C_31  and  C_34
REMARK    8  A    between atoms: C_34  and  C_35
REMARK    9  A    between atoms: C_34  and  C_36
REMARK   10  A    between atoms: C_34  and  C_37
REMARK                            x       y       z     vdW  Elec       q    Type
REMARK                         _______ _______ _______ _____ _____    ______ ____
ROOT
ATOM      1  C   UNL     1      -6.639   4.204   4.417  0.00  0.00    +0.047 C 
ATOM      2  C   UNL     1      -6.601   4.754   2.990  0.00  0.00    +0.135 C 
ATOM      3  C   UNL     1      -5.973   3.752   2.041  0.00  0.00    +0.251 C 
ATOM      4  O   UNL     1      -6.375   2.638   1.781  0.00  0.00    -0.272 OA
ATOM      5  N   UNL     1      -4.874   4.357   1.547  0.00  0.00    -0.215 N 
ATOM      6  C   UNL     1      -4.726   5.591   2.042  0.00  0.00    +0.310 C 
ATOM      7  O   UNL     1      -3.812   6.334   1.742  0.00  0.00    -0.252 OA
ATOM      8  N   UNL     1      -5.702   5.919   2.908  0.00  0.00    -0.281 N 
ATOM      9  H   UNL     1      -5.915   6.820   3.501  0.00  0.00    +0.152 HD
ENDROOT
BRANCH   2  10
ATOM     10  C   UNL     1      -7.987   5.120   2.527  0.00  0.00    -0.015 A 
ATOM     11  C   UNL     1      -8.780   4.174   1.905  0.00  0.00    +0.006 A 
ATOM     12  C   UNL     1     -10.054   4.508   1.485  0.00  0.00    +0.004 A 
ATOM     13  C   UNL     1     -10.531   5.791   1.678  0.00  0.00    -0.042 A 
ATOM     14  C   UNL     1      -9.736   6.738   2.295  0.00  0.00    +0.004 A 
ATOM     15  C   UNL     1      -8.464   6.403   2.720  0.00  0.00    +0.006 A 
BRANCH  13  16
ATOM     16  C   UNL     1     -11.918   6.157   1.215  0.00  0.00    -0.013 C 
ATOM     17  C   UNL     1     -11.832   7.291   0.192  0.00  0.00    +0.015 C 
ATOM     18  C   UNL     1     -12.579   4.937   0.570  0.00  0.00    +0.015 C 
ATOM     19  C   UNL     1     -12.751   6.614   2.414  0.00  0.00    +0.015 C 
ENDBRANCH  13  16
ENDBRANCH   2  10
BRANCH   5  20
ATOM     20  C   UNL     1      -3.959   3.741   0.584  0.00  0.00    +0.215 C 
BRANCH  20  21
ATOM     21  C   UNL     1      -2.870   3.008   1.323  0.00  0.00    +0.253 C 
ATOM     22  O   UNL     1      -2.859   3.000   2.536  0.00  0.00    -0.272 OA
ATOM     23  N   UNL     1      -1.907   2.360   0.637  0.00  0.00    -0.181 N 
ATOM     24  C   UNL     1      -0.787   1.609   1.234  0.00  0.00    +0.173 C 
ATOM     25  C   UNL     1      -0.013   1.086   0.008  0.00  0.00    +0.093 C 
ATOM     26  C   UNL     1      -0.795   1.612  -1.174  0.00  0.00    +0.104 C 
ATOM     27  N   UNL     1      -1.808   2.293  -0.751  0.00  0.00    -0.178 NA
BRANCH  26  28
ATOM     28  C   UNL     1      -0.457   1.384  -2.582  0.00  0.00    +0.150 A 
ATOM     29  C   UNL     1      -1.152   1.852  -3.659  0.00  0.00    +0.051 A 
ATOM     30  C   UNL     1      -0.475   1.396  -4.806  0.00  0.00    +0.042 A 
ATOM     31  C   UNL     1       0.587   0.682  -4.382  0.00  0.00    +0.196 A 
ATOM     32  O   UNL     1       0.599   0.681  -3.039  0.00  0.00    -0.462 OA
ENDBRANCH  26  28
BRANCH  24  33
ATOM     33  C   UNL     1      -1.300   0.462   2.066  0.00  0.00    +0.128 A 
ATOM     34  C   UNL     1      -0.736  -0.006   3.193  0.00  0.00    +0.046 A 
ATOM     35  C   UNL     1      -1.541  -1.078   3.640  0.00  0.00    +0.041 A 
ATOM     36  C   UNL     1      -2.550  -1.202   2.759  0.00  0.00    +0.195 A 
ATOM     37  O   UNL     1      -2.402  -0.262   1.810  0.00  0.00    -0.466 OA
ENDBRANCH  24  33
ENDBRANCH  20  21
ENDBRANCH   5  20
TORSDOF 6
