REMARK  Name = ZINC40983121
REMARK  7 active torsions:
REMARK  status: ('A' for Active; 'I' for Inactive)
REMARK    1  A    between atoms: C_1  and  C_2
REMARK    2  A    between atoms: C_2  and  C_3
REMARK    3  A    between atoms: C_3  and  O_4
REMARK    4  A    between atoms: O_4  and  C_5
REMARK    5  A    between atoms: C_5  and  C_7
REMARK    6  A    between atoms: C_8  and  C_23
REMARK    7  A    between atoms: C_15  and  C_17
REMARK                            x       y       z     vdW  Elec       q    Type
REMARK                         _______ _______ _______ _____ _____    ______ ____
ROOT
ATOM      1  C   UNL     1       1.274  -3.975   2.452  0.00  0.00    +0.082 C 
ATOM      2  C   UNL     1       2.143  -4.533   3.309  0.00  0.00    +0.020 C 
ATOM      3  N   UNL     1       2.407  -5.880   3.311  0.00  0.00    -0.287 N 
ATOM      4  C   UNL     1       1.559  -6.698   2.576  0.00  0.00    +0.218 A 
ATOM      5  N   UNL     1       1.437  -7.997   2.573  0.00  0.00    -0.201 NA
ATOM      6  C   UNL     1       0.484  -8.354   1.706  0.00  0.00    +0.247 A 
ATOM      7  N   UNL     1      -0.012  -7.280   1.144  0.00  0.00    -0.156 NA
ATOM      8  N   UNL     1       0.669  -6.192   1.687  0.00  0.00    -0.221 N 
ATOM      9  C   UNL     1       0.520  -4.766   1.416  0.00  0.00    +0.180 C 
ATOM     10  C   UNL     1       2.853  -3.651   4.304  0.00  0.00    +0.061 C 
ATOM     11  H   UNL     1       3.156  -6.246   3.806  0.00  0.00    +0.155 HD
ENDROOT
BRANCH   9  12
ATOM     12  C   UNL     1       1.073  -4.458   0.048  0.00  0.00    -0.000 A 
ATOM     13  C   UNL     1       0.259  -3.909  -0.931  0.00  0.00    +0.009 A 
ATOM     14  C   UNL     1       0.811  -3.643  -2.175  0.00  0.00    +0.020 A 
ATOM     15  C   UNL     1       2.145  -3.932  -2.395  0.00  0.00    +0.111 A 
ATOM     16  N   UNL     1       2.889  -4.455  -1.440  0.00  0.00    -0.263 NA
ATOM     17  C   UNL     1       2.399  -4.716  -0.244  0.00  0.00    +0.116 A 
ENDBRANCH   9  12
BRANCH   1  18
ATOM     18  C   UNL     1       1.053  -2.582   2.528  0.00  0.00    +0.339 C 
ATOM     19  O   UNL     1       0.077  -2.152   3.114  0.00  0.00    -0.245 OA
BRANCH  18  20
ATOM     20  O   UNL     1       1.925  -1.728   1.952  0.00  0.00    -0.461 OA
BRANCH  20  21
ATOM     21  C   UNL     1       1.639  -0.333   2.068  0.00  0.00    +0.232 C 
BRANCH  21  23
ATOM     22  C   UNL     1       2.424   1.966   1.484  0.00  0.00    +0.007 C 
ATOM     23  C   UNL     1       2.730   0.472   1.359  0.00  0.00    +0.038 C 
ENDBRANCH  21  23
ENDBRANCH  20  21
ENDBRANCH  18  20
ENDBRANCH   1  18
TORSDOF 5
