REMARK  Name = ZINC32856054
REMARK  5 active torsions:
REMARK  status: ('A' for Active; 'I' for Inactive)
REMARK    1  A    between atoms: N_14  and  C_18
REMARK    2  A    between atoms: C_18  and  C_19
REMARK    3  A    between atoms: N_21  and  C_22
REMARK    4  A    between atoms: C_26  and  C_28
REMARK    5  A    between atoms: N_30  and  C_31
REMARK                            x       y       z     vdW  Elec       q    Type
REMARK                         _______ _______ _______ _____ _____    ______ ____
ROOT
ATOM      1  C   UNL     1     -10.107  -0.322   2.621  0.00  0.00    +0.000 A 
ATOM      2  C   UNL     1      -9.891  -0.158   1.266  0.00  0.00    +0.000 A 
ATOM      3  C   UNL     1      -8.705   0.392   0.823  0.00  0.00    +0.006 A 
ATOM      4  C   UNL     1      -7.729   0.775   1.734  0.00  0.00    -0.012 A 
ATOM      5  C   UNL     1      -7.931   0.594   3.076  0.00  0.00    -0.042 A 
ATOM      6  C   UNL     1      -9.134   0.055   3.523  0.00  0.00    +0.004 A 
ATOM      7  C   UNL     1      -6.904   0.942   4.130  0.00  0.00    +0.035 C 
ATOM      8  C   UNL     1      -6.627   2.438   4.170  0.00  0.00    +0.005 C 
ATOM      9  C   UNL     1      -5.697   2.887   3.055  0.00  0.00    +0.003 C 
ATOM     10  C   UNL     1      -6.379   2.837   1.694  0.00  0.00    +0.040 C 
ATOM     11  C   UNL     1      -6.462   1.389   1.197  0.00  0.00    +0.138 C 
ATOM     12  C   UNL     1      -5.244   0.582   1.538  0.00  0.00    +0.251 C 
ATOM     13  O   UNL     1      -4.716   0.368   2.607  0.00  0.00    -0.272 OA
ATOM     14  N   UNL     1      -4.783   0.089   0.361  0.00  0.00    -0.215 N 
ATOM     15  C   UNL     1      -5.472   0.577  -0.674  0.00  0.00    +0.310 C 
ATOM     16  O   UNL     1      -5.241   0.301  -1.836  0.00  0.00    -0.252 OA
ATOM     17  N   UNL     1      -6.452   1.407  -0.279  0.00  0.00    -0.281 N 
ATOM     18  H   UNL     1      -7.172   2.033  -0.827  0.00  0.00    +0.152 HD
ENDROOT
BRANCH  14  19
ATOM     19  C   UNL     1      -3.659  -0.843   0.248  0.00  0.00    +0.214 C 
BRANCH  19  20
ATOM     20  C   UNL     1      -2.373  -0.067   0.126  0.00  0.00    +0.235 C 
ATOM     21  O   UNL     1      -2.394   1.146   0.133  0.00  0.00    -0.274 OA
ATOM     22  N   UNL     1      -1.200  -0.720   0.010  0.00  0.00    -0.284 N 
ATOM     23  H   UNL     1      -1.188  -1.817  -0.073  0.00  0.00    +0.155 HD
BRANCH  22  24
ATOM     24  C   UNL     1       0.002  -0.003  -0.006  0.00  0.00    +0.034 A 
ATOM     25  C   UNL     1       1.139  -0.542   0.583  0.00  0.00    +0.023 A 
ATOM     26  C   UNL     1       2.329   0.162   0.570  0.00  0.00    +0.003 A 
ATOM     27  C   UNL     1       2.395   1.404  -0.028  0.00  0.00    +0.013 A 
ATOM     28  C   UNL     1       1.258   1.953  -0.623  0.00  0.00    +0.038 A 
ATOM     29  C   UNL     1       0.057   1.243  -0.610  0.00  0.00    +0.036 A 
BRANCH  28  30
ATOM     30  C   UNL     1       1.325   3.284  -1.264  0.00  0.00    +0.244 C 
ATOM     31  O   UNL     1       0.334   3.760  -1.782  0.00  0.00    -0.270 OA
ATOM     32  N   UNL     1       2.486   3.968  -1.276  0.00  0.00    -0.308 N 
ATOM     33  H   UNL     1       3.383   3.537  -0.808  0.00  0.00    +0.149 HD
BRANCH  32  34
ATOM     34  C   UNL     1       2.553   5.287  -1.911  0.00  0.00    +0.073 C 
ATOM     35  C   UNL     1       3.765   5.583  -2.796  0.00  0.00    +0.024 C 
ATOM     36  C   UNL     1       3.637   6.251  -1.425  0.00  0.00    +0.024 C 
ENDBRANCH  32  34
ENDBRANCH  28  30
ENDBRANCH  22  24
ENDBRANCH  19  20
ENDBRANCH  14  19
TORSDOF 5
