REMARK  Name = ZINC49125763
REMARK  4 active torsions:
REMARK  status: ('A' for Active; 'I' for Inactive)
REMARK    1  A    between atoms: C_1  and  N_2
REMARK    2  A    between atoms: C_6  and  S_7
REMARK    3  A    between atoms: S_7  and  C_8
REMARK    4  A    between atoms: C_8  and  C_9
REMARK                            x       y       z     vdW  Elec       q    Type
REMARK                         _______ _______ _______ _____ _____    ______ ____
ROOT
ATOM      1  C   UNL     1       0.071  -1.503   5.207  0.00  0.00    +0.116 A 
ATOM      2  C   UNL     1       0.102  -2.591   6.191  0.00  0.00    +0.271 A 
ATOM      3  O   UNL     1       0.120  -3.752   5.824  0.00  0.00    -0.266 OA
ATOM      4  N   UNL     1       0.110  -2.290   7.508  0.00  0.00    -0.319 N 
ATOM      5  H   UNL     1       0.130  -2.994   8.174  0.00  0.00    +0.169 HD
ATOM      6  C   UNL     1       0.089  -0.963   7.889  0.00  0.00    +0.068 A 
ATOM      7  C   UNL     1       0.097  -0.620   9.238  0.00  0.00    +0.028 A 
ATOM      8  C   UNL     1       0.077   0.707   9.608  0.00  0.00    +0.002 A 
ATOM      9  C   UNL     1       0.048   1.707   8.644  0.00  0.00    +0.002 A 
ATOM     10  C   UNL     1       0.039   1.394   7.317  0.00  0.00    +0.030 A 
ATOM     11  C   UNL     1       0.060   0.050   6.913  0.00  0.00    +0.088 A 
ATOM     12  N   UNL     1       0.058  -0.262   5.603  0.00  0.00    -0.244 NA
ENDROOT
BRANCH   1  13
ATOM     13  C   UNL     1       0.062  -1.822   3.735  0.00  0.00    +0.138 C 
BRANCH  13  14
ATOM     14  S   UNL     1       0.032  -0.278   2.782  0.00  0.00    -0.080 S 
BRANCH  14  20
ATOM     15  C   UNL     1      -0.018   1.461   0.010  0.00  0.00    +0.154 C 
ATOM     16  N   UNL     1       0.002  -0.004   0.002  0.00  0.00    -0.294 N 
ATOM     17  C   UNL     1       0.008  -0.801  -1.108  0.00  0.00    +0.215 A 
ATOM     18  N   UNL     1       0.028  -2.049  -0.710  0.00  0.00    -0.113 NA
ATOM     19  N   UNL     1       0.034  -2.058   0.691  0.00  0.00    -0.121 NA
ATOM     20  C   UNL     1       0.024  -0.813   1.103  0.00  0.00    +0.193 A 
ATOM     21  N   UNL     1      -0.004  -0.364  -2.426  0.00  0.00    -0.328 N 
ATOM     22  H   UNL     1      -0.019   0.586  -2.622  0.00  0.00    +0.145 HD
ATOM     23  H   UNL     1       0.002  -1.009  -3.151  0.00  0.00    +0.145 HD
ENDBRANCH  14  20
ENDBRANCH  13  14
ENDBRANCH   1  13
TORSDOF 3
