REMARK  Name = ZINC21864606
REMARK  8 active torsions:
REMARK  status: ('A' for Active; 'I' for Inactive)
REMARK    1  A    between atoms: C_1  and  C_2
REMARK    2  A    between atoms: N_8  and  C_9
REMARK    3  A    between atoms: C_9  and  C_10
REMARK    4  A    between atoms: C_10  and  N_11
REMARK    5  A    between atoms: C_17  and  C_32
REMARK    6  A    between atoms: C_20  and  C_21
REMARK    7  A    between atoms: C_20  and  C_22
REMARK    8  A    between atoms: N_24  and  C_25
REMARK                            x       y       z     vdW  Elec       q    Type
REMARK                         _______ _______ _______ _____ _____    ______ ____
ROOT
ATOM      1  N   UNL     1       3.181   3.265  -0.222  0.00  0.00    -0.282 N 
ATOM      2  C   UNL     1       1.850   3.169   0.007  0.00  0.00    +0.264 C 
ATOM      3  O   UNL     1       1.161   4.152   0.209  0.00  0.00    -0.268 OA
ATOM      4  C   UNL     1       1.282   1.817  -0.000  0.00  0.00    +0.105 A 
ATOM      5  C   UNL     1      -0.017   1.391   0.010  0.00  0.00    +0.033 A 
ATOM      6  C   UNL     1       0.002  -0.004   0.002  0.00  0.00    +0.032 A 
ATOM      7  C   UNL     1       1.328  -0.409  -0.010  0.00  0.00    +0.085 A 
ATOM      8  N   UNL     1       2.109   0.699  -0.003  0.00  0.00    -0.331 N 
ATOM      9  C   UNL     1       3.570   0.823   0.010  0.00  0.00    +0.157 C 
ATOM     10  C   UNL     1       3.968   2.127  -0.682  0.00  0.00    +0.128 C 
ATOM     11  C   UNL     1       5.447   2.403  -0.404  0.00  0.00    +0.043 C 
ENDROOT
BRANCH   7  12
ATOM     12  C   UNL     1       1.804  -1.799  -0.027  0.00  0.00    +0.151 A 
ATOM     13  C   UNL     1       1.022  -2.913  -0.125  0.00  0.00    +0.051 A 
ATOM     14  C   UNL     1       1.891  -4.020  -0.106  0.00  0.00    +0.042 A 
ATOM     15  C   UNL     1       3.145  -3.538   0.010  0.00  0.00    +0.196 A 
ATOM     16  O   UNL     1       3.089  -2.197   0.057  0.00  0.00    -0.461 OA
ENDBRANCH   7  12
BRANCH  10  17
ATOM     17  C   UNL     1       3.775   1.968  -2.168  0.00  0.00    +0.238 C 
ATOM     18  O   UNL     1       4.710   1.643  -2.869  0.00  0.00    -0.273 OA
ATOM     19  N   UNL     1       2.565   2.189  -2.718  0.00  0.00    -0.311 N 
ATOM     20  H   UNL     1       1.717   2.484  -2.082  0.00  0.00    +0.149 HD
BRANCH  19  21
ATOM     21  C   UNL     1       2.377   2.035  -4.163  0.00  0.00    +0.073 C 
ATOM     22  C   UNL     1       2.847   3.325  -4.867  0.00  0.00    +0.022 C 
ATOM     23  C   UNL     1       3.139   3.003  -6.308  0.00  0.00    +0.002 C 
ATOM     24  C   UNL     1       1.936   3.279  -7.229  0.00  0.00    +0.000 C 
ATOM     25  C   UNL     1       0.597   2.826  -6.615  0.00  0.00    +0.000 C 
ATOM     26  C   UNL     1       0.702   1.493  -5.925  0.00  0.00    +0.002 C 
ATOM     27  C   UNL     1       0.978   1.737  -4.427  0.00  0.00    +0.022 C 
ENDBRANCH  19  21
ENDBRANCH  10  17
BRANCH   1  28
ATOM     28  C   UNL     1       3.849   4.550  -0.003  0.00  0.00    +0.091 C 
BRANCH  28  29
ATOM     29  C   UNL     1       3.820   5.368  -1.295  0.00  0.00    -0.059 C 
BRANCH  29  36
ATOM     30  C   UNL     1       3.354   7.499  -3.074  0.00  0.00    -0.013 C 
ATOM     31  C   UNL     1       4.692   7.368  -2.343  0.00  0.00    -0.072 C 
ATOM     32  C   UNL     1       5.258   8.762  -2.063  0.00  0.00    -0.016 C 
ATOM     33  C   UNL     1       6.587   8.628  -1.315  0.00  0.00    -0.003 C 
ATOM     34  C   UNL     1       6.358   7.841  -0.021  0.00  0.00    -0.019 C 
ATOM     35  C   UNL     1       5.760   6.473  -0.361  0.00  0.00    -0.078 C 
ATOM     36  N   UNL     1       4.490   6.657  -1.075  0.00  0.00    +0.382 N 
ATOM     37  H   UNL     1       3.837   7.276  -0.443  0.00  0.00    -0.081 HD
ENDBRANCH  29  36
ENDBRANCH  28  29
ENDBRANCH   1  28
TORSDOF 6
