REMARK  Name = ZINC12092126
REMARK  15 active torsions:
REMARK  status: ('A' for Active; 'I' for Inactive)
REMARK    1  A    between atoms: C_1  and  O_2
REMARK    2  A    between atoms: O_2  and  C_3
REMARK    3  A    between atoms: C_3  and  C_5
REMARK    4  A    between atoms: C_10  and  C_11
REMARK    5  A    between atoms: C_10  and  N_69
REMARK    6  A    between atoms: C_11  and  C_13
REMARK    7  A    between atoms: C_11  and  O_30
REMARK    8  A    between atoms: C_13  and  O_14
REMARK    9  A    between atoms: O_14  and  C_15
REMARK   10  A    between atoms: C_18  and  C_21
REMARK   11  A    between atoms: C_21  and  N_71
REMARK   12  A    between atoms: C_22  and  C_23
REMARK   13  A    between atoms: C_22  and  N_71
REMARK   14  A    between atoms: C_23  and  C_24
REMARK   15  A    between atoms: C_24  and  C_25
REMARK                            x       y       z     vdW  Elec       q    Type
REMARK                         _______ _______ _______ _____ _____    ______ ____
ROOT
ATOM      1  C   UNL     1       1.291  -0.733  -0.844  0.00  0.00    +0.121 A 
ATOM      2  C   UNL     1       0.097  -0.069  -1.084  0.00  0.00    +0.046 A 
ATOM      3  C   UNL     1       0.090   1.305  -1.232  0.00  0.00    +0.005 A 
ATOM      4  C   UNL     1       1.272   2.017  -1.141  0.00  0.00    -0.064 A 
ATOM      5  C   UNL     1       2.463   1.357  -0.902  0.00  0.00    +0.005 A 
ATOM      6  C   UNL     1       2.475  -0.016  -0.754  0.00  0.00    +0.046 A 
ENDROOT
BRANCH   1   7
ATOM      7  O   UNL     1       1.301  -2.084  -0.698  0.00  0.00    -0.489 OA
BRANCH   7   8
ATOM      8  C   UNL     1       2.566  -2.701  -0.454  0.00  0.00    +0.258 C 
BRANCH   8   9
ATOM      9  C   UNL     1       2.378  -4.214  -0.318  0.00  0.00    +0.135 C 
BRANCH   9  10
ATOM     10  O   UNL     1       1.929  -4.752  -1.563  0.00  0.00    -0.390 OA
ATOM     11  H   UNL     1       2.541  -4.605  -2.298  0.00  0.00    +0.210 HD
ENDBRANCH   9  10
BRANCH   9  12
ATOM     12  C   UNL     1       3.710  -4.861   0.067  0.00  0.00    -0.044 C 
BRANCH  12  18
ATOM     13  C   UNL     1       3.694  -8.913   1.431  0.00  0.00    +0.094 C 
ATOM     14  C   UNL     1       2.370  -8.155   1.304  0.00  0.00    -0.004 C 
ATOM     15  C   UNL     1       2.647  -6.650   1.304  0.00  0.00    -0.078 C 
ATOM     16  C   UNL     1       4.829  -6.994   0.307  0.00  0.00    -0.078 C 
ATOM     17  C   UNL     1       4.617  -8.509   0.278  0.00  0.00    -0.004 C 
ATOM     18  N   UNL     1       3.520  -6.323   0.156  0.00  0.00    +0.381 N 
ATOM     19  H   UNL     1       3.074  -6.655  -0.707  0.00  0.00    -0.082 HD
BRANCH  13  20
ATOM     20  C   UNL     1       3.433 -10.396   1.372  0.00  0.00    +0.310 C 
ATOM     21  O   UNL     1       2.304 -10.806   1.242  0.00  0.00    -0.251 OA
BRANCH  20  23
ATOM     22  C   UNL     1       4.130 -12.675   1.400  0.00  0.00    +0.280 C 
ATOM     23  O   UNL     1       4.455 -11.261   1.465  0.00  0.00    -0.468 OA
ENDBRANCH  20  23
ENDBRANCH  13  20
ENDBRANCH  12  18
ENDBRANCH   9  12
ENDBRANCH   8   9
ENDBRANCH   7   8
ENDBRANCH   1   7
BRANCH   4  24
ATOM     24  C   UNL     1       1.261   3.515  -1.303  0.00  0.00    -0.047 C 
BRANCH  24  25
ATOM     25  N   UNL     1       1.064   4.143   0.018  0.00  0.00    +0.382 N 
ATOM     26  H   UNL     1       1.830   3.865   0.642  0.00  0.00    -0.085 HD
ATOM     27  H   UNL     1       0.170   3.828   0.412  0.00  0.00    -0.085 HD
BRANCH  25  28
ATOM     28  C   UNL     1       1.050   5.612  -0.111  0.00  0.00    -0.082 C 
BRANCH  28  29
ATOM     29  C   UNL     1       0.844   6.234   1.272  0.00  0.00    -0.019 C 
BRANCH  29  30
ATOM     30  C   UNL     1       0.828   7.759   1.148  0.00  0.00    +0.002 C 
BRANCH  30  31
ATOM     31  C   UNL     1       0.622   8.381   2.531  0.00  0.00    -0.011 C 
ATOM     32  C   UNL     1      -0.798   8.067   3.046  0.00  0.00    +0.003 C 
ATOM     33  C   UNL     1      -1.225   9.355   3.792  0.00  0.00    +0.000 C 
ATOM     34  C   UNL     1      -0.631  10.477   2.904  0.00  0.00    +0.000 C 
ATOM     35  C   UNL     1       0.728   9.913   2.441  0.00  0.00    +0.003 C 
ENDBRANCH  30  31
ENDBRANCH  29  30
ENDBRANCH  28  29
ENDBRANCH  25  28
ENDBRANCH  24  25
ENDBRANCH   4  24
TORSDOF 14
