REMARK  Name = ZINC49813151
REMARK  3 active torsions:
REMARK  status: ('A' for Active; 'I' for Inactive)
REMARK    1  A    between atoms: C_1  and  C_2
REMARK    2  A    between atoms: C_7  and  C_17
REMARK    3  A    between atoms: C_13  and  C_16
REMARK                            x       y       z     vdW  Elec       q    Type
REMARK                         _______ _______ _______ _____ _____    ______ ____
ROOT
ATOM      1  C   UNL     1      -0.019   1.526   0.010  0.00  0.00    +0.008 C 
ATOM      2  C   UNL     1       0.002  -0.004   0.002  0.00  0.00    -0.009 C 
ATOM      3  C   UNL     1       0.729  -0.503  -1.244  0.00  0.00    +0.040 C 
ATOM      4  C   UNL     1       0.966  -1.990  -1.166  0.00  0.00    -0.027 A 
ATOM      5  C   UNL     1       1.257  -2.645  -2.369  0.00  0.00    +0.021 A 
ATOM      6  C   UNL     1       1.493  -4.020  -2.369  0.00  0.00    +0.079 A 
ATOM      7  C   UNL     1       1.428  -4.725  -1.086  0.00  0.00    +0.259 A 
ATOM      8  O   UNL     1       1.630  -5.926  -1.027  0.00  0.00    -0.267 OA
ATOM      9  N   UNL     1       1.143  -4.026   0.024  0.00  0.00    -0.325 N 
ATOM     10  H   UNL     1       1.104  -4.490   0.875  0.00  0.00    +0.169 HD
ATOM     11  C   UNL     1       0.906  -2.683  -0.005  0.00  0.00    +0.025 A 
ATOM     12  C   UNL     1       0.568  -2.031   1.313  0.00  0.00    +0.033 C 
ATOM     13  C   UNL     1       0.756  -0.518   1.234  0.00  0.00    +0.013 C 
ATOM     14  C   UNL     1      -0.889  -2.337   1.667  0.00  0.00    +0.014 C 
ENDROOT
BRANCH   6  15
ATOM     15  C   UNL     1       1.795  -4.734  -3.609  0.00  0.00    +0.264 C 
ATOM     16  O   UNL     1       1.997  -5.930  -3.586  0.00  0.00    -0.296 OA
ENDBRANCH   6  15
TORSDOF 1
