REMARK  Name = ZINC64348827
REMARK  8 active torsions:
REMARK  status: ('A' for Active; 'I' for Inactive)
REMARK    1  A    between atoms: C_1  and  C_2
REMARK    2  A    between atoms: C_2  and  C_3
REMARK    3  A    between atoms: C_2  and  C_4
REMARK    4  A    between atoms: C_2  and  O_5
REMARK    5  A    between atoms: O_5  and  C_6
REMARK    6  A    between atoms: N_8  and  N_9
REMARK    7  A    between atoms: C_29  and  C_31
REMARK    8  A    between atoms: C_35  and  N_37
REMARK                            x       y       z     vdW  Elec       q    Type
REMARK                         _______ _______ _______ _____ _____    ______ ____
ROOT
ATOM      1  N   UNL     1       2.583  -1.467  -3.686  0.00  0.00    -0.207 N 
ATOM      2  C   UNL     1       2.338  -2.861  -3.353  0.00  0.00    +0.226 C 
ATOM      3  C   UNL     1       1.461  -3.535  -4.355  0.00  0.00    +0.236 C 
ATOM      4  O   UNL     1       1.192  -4.703  -4.173  0.00  0.00    -0.274 OA
ATOM      5  N   UNL     1       0.950  -2.941  -5.441  0.00  0.00    -0.279 N 
ATOM      6  C   UNL     1       1.218  -1.547  -5.776  0.00  0.00    +0.168 C 
ATOM      7  C   UNL     1       2.083  -0.869  -4.766  0.00  0.00    +0.253 C 
ATOM      8  O   UNL     1       2.352   0.300  -4.942  0.00  0.00    -0.272 OA
ATOM      9  C   UNL     1       1.870  -1.457  -7.168  0.00  0.00    +0.065 C 
ATOM     10  C   UNL     1       1.068  -2.355  -8.077  0.00  0.00    -0.034 C 
ATOM     11  C   UNL     1       0.510  -2.136  -9.261  0.00  0.00    -0.001 A 
ATOM     12  C   UNL     1       0.561  -0.980 -10.171  0.00  0.00    +0.010 A 
ATOM     13  C   UNL     1      -0.162  -1.086 -11.317  0.00  0.00    +0.001 A 
ATOM     14  C   UNL     1      -0.921  -2.213 -11.646  0.00  0.00    +0.002 A 
ATOM     15  C   UNL     1      -1.017  -3.325 -10.874  0.00  0.00    +0.026 A 
ATOM     16  C   UNL     1      -0.294  -3.336  -9.646  0.00  0.00    +0.043 A 
ATOM     17  N   UNL     1      -0.189  -4.263  -8.740  0.00  0.00    -0.375 N 
ATOM     18  C   UNL     1       0.735  -3.795  -7.707  0.00  0.00    +0.131 C 
ATOM     19  C   UNL     1       0.079  -3.750  -6.324  0.00  0.00    +0.133 C 
ATOM     20  H   UNL     1      -0.646  -5.118  -8.749  0.00  0.00    +0.160 HD
ENDROOT
BRANCH  19  21
ATOM     21  C   UNL     1      -0.051  -5.146  -5.774  0.00  0.00    -0.023 A 
ATOM     22  C   UNL     1      -1.122  -5.473  -4.963  0.00  0.00    +0.005 A 
ATOM     23  C   UNL     1      -1.242  -6.754  -4.458  0.00  0.00    +0.003 A 
ATOM     24  C   UNL     1      -0.291  -7.709  -4.765  0.00  0.00    +0.033 A 
ATOM     25  C   UNL     1       0.779  -7.383  -5.577  0.00  0.00    +0.127 A 
ATOM     26  C   UNL     1       0.896  -6.103  -6.085  0.00  0.00    +0.038 A 
BRANCH  25  27
ATOM     27  N   UNL     1       1.798  -8.406  -5.905  0.00  0.00    +0.056 N 
ATOM     28  O   UNL     1       1.693  -9.527  -5.463  0.00  0.00    -0.126 OA
ATOM     29  O   UNL     1       2.734  -8.121  -6.615  0.00  0.00    -0.126 OA
ENDBRANCH  25  27
ENDBRANCH  19  21
BRANCH   1  32
ATOM     30  C   UNL     1       2.891  -0.292  -1.639  0.00  0.00    +0.417 C 
ATOM     31  O   UNL     1       3.586   0.364  -0.889  0.00  0.00    -0.225 OA
ATOM     32  N   UNL     1       3.384  -0.711  -2.821  0.00  0.00    -0.197 N 
ATOM     33  H   UNL     1       4.295  -0.489  -3.073  0.00  0.00    +0.176 HD
BRANCH  30  34
ATOM     34  O   UNL     1       1.628  -0.600  -1.290  0.00  0.00    -0.444 OA
BRANCH  34  36
ATOM     35  C   UNL     1       1.243   1.405   0.004  0.00  0.00    +0.055 C 
ATOM     36  C   UNL     1       1.171  -0.123  -0.022  0.00  0.00    +0.107 C 
ATOM     37  C   UNL     1       2.055  -0.694   1.087  0.00  0.00    +0.055 C 
ATOM     38  C   UNL     1      -0.276  -0.569   0.198  0.00  0.00    +0.055 C 
ENDBRANCH  34  36
ENDBRANCH  30  34
ENDBRANCH   1  32
TORSDOF 5
