REMARK  Name = ZINC06003585
REMARK  10 active torsions:
REMARK  status: ('A' for Active; 'I' for Inactive)
REMARK    1  A    between atoms: C_1  and  C_2
REMARK    2  A    between atoms: C_5  and  S_21
REMARK    3  A    between atoms: C_7  and  C_8
REMARK    4  A    between atoms: C_8  and  O_10
REMARK    5  A    between atoms: O_10  and  C_11
REMARK    6  A    between atoms: C_11  and  C_12
REMARK    7  A    between atoms: N_17  and  C_18
REMARK    8  A    between atoms: C_18  and  C_19
REMARK    9  A    between atoms: C_18  and  C_20
REMARK   10  A    between atoms: S_21  and  C_24
REMARK                            x       y       z     vdW  Elec       q    Type
REMARK                         _______ _______ _______ _____ _____    ______ ____
ROOT
ATOM      1  C   UNL     1       2.340   3.964  -0.535  0.00  0.00    +0.340 C 
ATOM      2  O   UNL     1       3.405   3.394  -0.653  0.00  0.00    -0.245 OA
ENDROOT
BRANCH   1   9
ATOM      3  C   UNL     1       2.534   1.128   0.003  0.00  0.00    +0.044 C 
ATOM      4  C   UNL     1       1.195   1.820   0.010  0.00  0.00    -0.036 A 
ATOM      5  C   UNL     1       0.047   1.103   0.274  0.00  0.00    +0.006 A 
ATOM      6  C   UNL     1      -1.183   1.735   0.275  0.00  0.00    +0.027 A 
ATOM      7  C   UNL     1      -1.270   3.093   0.022  0.00  0.00    +0.089 A 
ATOM      8  C   UNL     1      -0.130   3.823  -0.244  0.00  0.00    +0.042 A 
ATOM      9  C   UNL     1       1.114   3.189  -0.252  0.00  0.00    +0.064 A 
BRANCH   7  10
ATOM     10  S   UNL     1      -2.841   3.891   0.033  0.00  0.00    -0.006 S 
ATOM     11  O   UNL     1      -3.646   3.095   0.893  0.00  0.00    -0.170 OA
ATOM     12  O   UNL     1      -2.558   5.246   0.353  0.00  0.00    -0.170 OA
ATOM     13  C   UNL     1      -3.440   3.764  -1.675  0.00  0.00    +0.200 C 
ENDBRANCH   7  10
ENDBRANCH   1   9
BRANCH   1  14
ATOM     14  O   UNL     1       2.275   5.304  -0.662  0.00  0.00    -0.452 OA
BRANCH  14  15
ATOM     15  C   UNL     1       3.518   6.000  -0.941  0.00  0.00    +0.328 C 
BRANCH  15  16
ATOM     16  C   UNL     1       3.252   7.480  -1.049  0.00  0.00    +0.258 C 
ATOM     17  O   UNL     1       2.126   7.905  -0.906  0.00  0.00    -0.272 OA
ATOM     18  N   UNL     1       4.266   8.330  -1.305  0.00  0.00    -0.237 N 
ATOM     19  C   UNL     1       4.028   9.653  -1.402  0.00  0.00    +0.306 C 
ATOM     20  O   UNL     1       2.898  10.079  -1.258  0.00  0.00    -0.252 OA
ATOM     21  N   UNL     1       5.042  10.503  -1.658  0.00  0.00    -0.297 N 
ATOM     22  H   UNL     1       5.167   7.990  -1.419  0.00  0.00    +0.159 HD
ATOM     23  H   UNL     1       5.943  10.163  -1.772  0.00  0.00    +0.151 HD
BRANCH  21  24
ATOM     24  C   UNL     1       4.783  11.941  -1.763  0.00  0.00    +0.068 C 
ATOM     25  C   UNL     1       6.061  12.715  -1.434  0.00  0.00    +0.027 C 
ATOM     26  C   UNL     1       4.336  12.276  -3.188  0.00  0.00    +0.027 C 
ENDBRANCH  21  24
ENDBRANCH  15  16
ENDBRANCH  14  15
ENDBRANCH   1  14
TORSDOF 6
