REMARK  Name = ZINC67332080
REMARK  5 active torsions:
REMARK  status: ('A' for Active; 'I' for Inactive)
REMARK    1  A    between atoms: C_4  and  C_7
REMARK    2  A    between atoms: C_7  and  N_8
REMARK    3  A    between atoms: C_12  and  C_14
REMARK    4  A    between atoms: C_14  and  N_15
REMARK    5  A    between atoms: C_16  and  C_18
REMARK                            x       y       z     vdW  Elec       q    Type
REMARK                         _______ _______ _______ _____ _____    ______ ____
ROOT
ATOM      1  N   UNL     1       1.306  -2.710  -4.601  0.00  0.00    -0.317 N 
ATOM      2  C   UNL     1       0.285  -3.368  -5.185  0.00  0.00    +0.216 C 
ATOM      3  O   UNL     1       0.438  -4.510  -5.564  0.00  0.00    -0.276 OA
ATOM      4  H   UNL     1       1.184  -1.797  -4.297  0.00  0.00    +0.149 HD
ENDROOT
BRANCH   2   5
ATOM      5  C   UNL     1      -1.045  -2.685  -5.368  0.00  0.00    +0.075 C 
ATOM      6  C   UNL     1      -1.601  -2.278  -4.002  0.00  0.00    +0.015 C 
ATOM      7  C   UNL     1      -2.947  -1.573  -4.189  0.00  0.00    +0.036 C 
ATOM      8  C   UNL     1      -3.921  -2.510  -4.894  0.00  0.00    +0.112 C 
ATOM      9  C   UNL     1      -3.369  -2.945  -6.247  0.00  0.00    +0.036 C 
ATOM     10  C   UNL     1      -2.022  -3.644  -6.051  0.00  0.00    +0.015 C 
ATOM     11  C   UNL     1      -4.212  -3.716  -4.031  0.00  0.00    +0.244 C 
ATOM     12  O   UNL     1      -3.421  -4.547  -3.639  0.00  0.00    -0.273 OA
ATOM     13  N   UNL     1      -5.539  -3.673  -3.787  0.00  0.00    -0.238 N 
ATOM     14  C   UNL     1      -6.114  -2.616  -4.374  0.00  0.00    +0.307 C 
ATOM     15  O   UNL     1      -7.300  -2.364  -4.299  0.00  0.00    -0.252 OA
ATOM     16  N   UNL     1      -5.230  -1.864  -5.057  0.00  0.00    -0.285 N 
ATOM     17  H   UNL     1      -6.016  -4.327  -3.253  0.00  0.00    +0.159 HD
ATOM     18  H   UNL     1      -5.420  -1.054  -5.557  0.00  0.00    +0.151 HD
ENDBRANCH   2   5
BRANCH   1  19
ATOM     19  C   UNL     1       2.600  -3.375  -4.423  0.00  0.00    +0.089 C 
BRANCH  19  24
ATOM     20  N   UNL     1       2.996  -1.924  -2.477  0.00  0.00    +0.383 N 
ATOM     21  C   UNL     1       3.892  -2.309  -1.365  0.00  0.00    -0.078 C 
ATOM     22  C   UNL     1       4.672  -3.538  -1.894  0.00  0.00    -0.020 C 
ATOM     23  C   UNL     1       4.881  -3.159  -3.384  0.00  0.00    -0.016 C 
ATOM     24  C   UNL     1       3.576  -2.415  -3.740  0.00  0.00    -0.051 C 
ATOM     25  H   UNL     1       2.087  -2.339  -2.337  0.00  0.00    -0.081 HD
BRANCH  20  26
ATOM     26  C   UNL     1       2.870  -0.461  -2.526  0.00  0.00    -0.075 C 
BRANCH  26  30
ATOM     27  C   UNL     1      -0.019   1.526   0.010  0.00  0.00    +0.000 C 
ATOM     28  C   UNL     1       1.417   2.055  -0.000  0.00  0.00    +0.000 C 
ATOM     29  C   UNL     1       2.133   1.562  -1.259  0.00  0.00    +0.002 C 
ATOM     30  C   UNL     1       2.154   0.032  -1.268  0.00  0.00    -0.028 C 
ATOM     31  C   UNL     1       0.718  -0.497  -1.257  0.00  0.00    +0.002 C 
ATOM     32  C   UNL     1       0.002  -0.004   0.002  0.00  0.00    +0.000 C 
ENDBRANCH  26  30
ENDBRANCH  20  26
ENDBRANCH  19  24
ENDBRANCH   1  19
TORSDOF 5
