REMARK  Name = ZINC07987275
REMARK  2 active torsions:
REMARK  status: ('A' for Active; 'I' for Inactive)
REMARK    1  A    between atoms: C_11  and  C_13
REMARK    2  A    between atoms: C_13  and  N_14
REMARK                            x       y       z     vdW  Elec       q    Type
REMARK                         _______ _______ _______ _____ _____    ______ ____
ROOT
ATOM      1  N   UNL     1       1.048   2.040   0.003  0.00  0.00    -0.215 N 
ATOM      2  C   UNL     1      -0.014   1.208   0.009  0.00  0.00    +0.252 C 
ATOM      3  O   UNL     1       0.002  -0.004   0.002  0.00  0.00    -0.272 OA
ATOM      4  C   UNL     1      -1.229   2.107   0.018  0.00  0.00    +0.144 C 
ATOM      5  C   UNL     1      -2.058   1.866   1.276  0.00  0.00    +0.081 C 
ATOM      6  C   UNL     1      -2.825   0.548   1.104  0.00  0.00    +0.232 C 
ATOM      7  O   UNL     1      -3.736   0.694   0.013  0.00  0.00    -0.492 OA
ATOM      8  C   UNL     1      -3.257   1.190  -1.157  0.00  0.00    +0.126 A 
ATOM      9  C   UNL     1      -2.058   1.882  -1.216  0.00  0.00    +0.027 A 
ATOM     10  C   UNL     1      -1.608   2.377  -2.428  0.00  0.00    +0.010 A 
ATOM     11  C   UNL     1      -2.348   2.182  -3.578  0.00  0.00    +0.001 A 
ATOM     12  C   UNL     1      -3.543   1.490  -3.523  0.00  0.00    +0.004 A 
ATOM     13  C   UNL     1      -3.997   0.995  -2.317  0.00  0.00    +0.046 A 
ATOM     14  N   UNL     1      -0.670   3.464   0.026  0.00  0.00    -0.281 N 
ATOM     15  C   UNL     1       0.669   3.324   0.013  0.00  0.00    +0.310 C 
ATOM     16  O   UNL     1       1.447   4.258   0.011  0.00  0.00    -0.252 OA
ATOM     17  H   UNL     1      -1.167   4.297   0.035  0.00  0.00    +0.152 HD
ENDROOT
BRANCH   1  18
ATOM     18  C   UNL     1       2.443   1.593  -0.013  0.00  0.00    +0.213 C 
BRANCH  18  29
ATOM     19  C   UNL     1       8.964   2.429  -1.387  0.00  0.00    +0.000 A 
ATOM     20  C   UNL     1       8.657   1.905  -0.144  0.00  0.00    +0.000 A 
ATOM     21  C   UNL     1       7.406   1.368   0.081  0.00  0.00    +0.005 A 
ATOM     22  C   UNL     1       6.454   1.350  -0.929  0.00  0.00    -0.027 A 
ATOM     23  C   UNL     1       6.755   1.878  -2.164  0.00  0.00    -0.041 A 
ATOM     24  C   UNL     1       8.017   2.415  -2.390  0.00  0.00    +0.004 A 
ATOM     25  C   UNL     1       5.770   1.910  -3.302  0.00  0.00    +0.054 C 
ATOM     26  C   UNL     1       4.650   0.887  -3.082  0.00  0.00    +0.113 C 
ATOM     27  N   UNL     1       4.167   1.045  -1.700  0.00  0.00    -0.296 N 
ATOM     28  C   UNL     1       5.110   0.740  -0.618  0.00  0.00    +0.143 C 
ATOM     29  C   UNL     1       2.908   1.447  -1.439  0.00  0.00    +0.234 C 
ATOM     30  O   UNL     1       2.148   1.693  -2.352  0.00  0.00    -0.274 OA
ENDBRANCH  18  29
ENDBRANCH   1  18
TORSDOF 2
