REMARK  Name = ZINC40165768
REMARK  7 active torsions:
REMARK  status: ('A' for Active; 'I' for Inactive)
REMARK    1  A    between atoms: C_1  and  C_2
REMARK    2  A    between atoms: C_7  and  O_8
REMARK    3  A    between atoms: O_8  and  C_9
REMARK    4  A    between atoms: C_9  and  C_10
REMARK    5  A    between atoms: C_13  and  C_15
REMARK    6  A    between atoms: C_17  and  C_26
REMARK    7  A    between atoms: C_18  and  N_20
REMARK                            x       y       z     vdW  Elec       q    Type
REMARK                         _______ _______ _______ _____ _____    ______ ____
ROOT
ATOM      1  C   UNL     1       1.662   2.030   7.371  0.00  0.00    +0.266 A 
ATOM      2  N   UNL     1       1.278   2.861   8.309  0.00  0.00    -0.194 NA
ATOM      3  C   UNL     1       2.384   3.388   8.899  0.00  0.00    +0.201 A 
ATOM      4  C   UNL     1       3.484   2.831   8.266  0.00  0.00    +0.227 A 
ATOM      5  O   UNL     1       3.008   1.990   7.329  0.00  0.00    -0.417 OA
ENDROOT
BRANCH   4   6
ATOM      6  N   UNL     1       4.809   3.084   8.546  0.00  0.00    -0.303 N 
ATOM      7  C   UNL     1       5.541   2.279   9.536  0.00  0.00    +0.089 C 
ATOM      8  C   UNL     1       6.851   1.802   8.901  0.00  0.00    -0.063 C 
ATOM      9  N   UNL     1       7.597   2.960   8.392  0.00  0.00    +0.381 N 
ATOM     10  C   UNL     1       6.843   3.602   7.307  0.00  0.00    -0.063 C 
ATOM     11  C   UNL     1       5.534   4.164   7.859  0.00  0.00    +0.089 C 
ATOM     12  H   UNL     1       7.739   3.623   9.139  0.00  0.00    -0.086 HD
ATOM     13  H   UNL     1       8.493   2.654   8.042  0.00  0.00    -0.086 HD
ENDBRANCH   4   6
BRANCH   1  17
ATOM     14  C   UNL     1       0.051  -0.126   4.952  0.00  0.00    +0.143 A 
ATOM     15  C   UNL     1      -1.046   0.398   5.535  0.00  0.00    +0.049 A 
ATOM     16  C   UNL     1      -0.600   1.286   6.532  0.00  0.00    +0.055 A 
ATOM     17  C   UNL     1       0.763   1.257   6.502  0.00  0.00    +0.190 A 
ATOM     18  O   UNL     1       1.141   0.390   5.542  0.00  0.00    -0.451 OA
BRANCH  14  19
ATOM     19  C   UNL     1       0.053  -1.129   3.828  0.00  0.00    +0.303 C 
BRANCH  19  20
ATOM     20  O   UNL     1       0.063  -0.442   2.575  0.00  0.00    -0.484 OA
BRANCH  20  27
ATOM     21  C   UNL     1       0.081   0.899   0.088  0.00  0.00    +0.047 C 
ATOM     22  C   UNL     1       0.075  -0.604   0.202  0.00  0.00    -0.009 A 
ATOM     23  C   UNL     1       0.084  -1.383  -0.939  0.00  0.00    +0.007 A 
ATOM     24  C   UNL     1       0.078  -2.762  -0.836  0.00  0.00    +0.000 A 
ATOM     25  C   UNL     1       0.063  -3.365   0.409  0.00  0.00    +0.004 A 
ATOM     26  C   UNL     1       0.054  -2.590   1.552  0.00  0.00    +0.046 A 
ATOM     27  C   UNL     1       0.066  -1.206   1.451  0.00  0.00    +0.124 A 
ENDBRANCH  20  27
ENDBRANCH  19  20
ENDBRANCH  14  19
ENDBRANCH   1  17
BRANCH   3  28
ATOM     28  C   UNL     1       2.407   4.338   9.970  0.00  0.00    +0.124 C 
ATOM     29  N   UNL     1       2.425   5.092  10.820  0.00  0.00    -0.189 NA
ENDBRANCH   3  28
TORSDOF 6
