REMARK  Name = ZINC21043713
REMARK  6 active torsions:
REMARK  status: ('A' for Active; 'I' for Inactive)
REMARK    1  A    between atoms: C_1  and  C_2
REMARK    2  A    between atoms: N_5  and  C_8
REMARK    3  A    between atoms: C_8  and  C_10
REMARK    4  A    between atoms: C_8  and  C_11
REMARK    5  A    between atoms: N_13  and  C_14
REMARK    6  A    between atoms: C_15  and  N_22
REMARK                            x       y       z     vdW  Elec       q    Type
REMARK                         _______ _______ _______ _____ _____    ______ ____
ROOT
ATOM      1  C   UNL     1       0.898   2.174  -0.693  0.00  0.00    +0.203 C 
ATOM      2  O   UNL     1       1.979   1.624  -0.703  0.00  0.00    -0.277 OA
ATOM      3  N   UNL     1      -0.231   1.444  -0.787  0.00  0.00    -0.284 N 
ATOM      4  H   UNL     1      -1.208   1.946  -0.835  0.00  0.00    +0.155 HD
ENDROOT
BRANCH   3   5
ATOM      5  C   UNL     1      -0.159   0.043  -0.824  0.00  0.00    +0.073 A 
ATOM      6  C   UNL     1      -0.896  -0.670  -1.769  0.00  0.00    +0.049 A 
ATOM      7  C   UNL     1      -0.817  -2.054  -1.805  0.00  0.00    +0.044 A 
ATOM      8  C   UNL     1      -0.017  -2.725  -0.897  0.00  0.00    +0.044 A 
ATOM      9  C   UNL     1       0.710  -2.018   0.044  0.00  0.00    +0.042 A 
ATOM     10  C   UNL     1       0.641  -0.636   0.083  0.00  0.00    +0.065 A 
ATOM     11 CL   UNL     1       1.555   0.246   1.265  0.00  0.00    -0.082 Cl
ATOM     12 CL   UNL     1       0.075  -4.458  -0.938  0.00  0.00    -0.083 Cl
BRANCH   6  13
ATOM     13  N   UNL     1      -1.709   0.010  -2.683  0.00  0.00    -0.356 N 
ATOM     14  H   UNL     1      -2.290  -0.554  -3.428  0.00  0.00    +0.142 HD
ATOM     15  H   UNL     1      -1.768   1.108  -2.656  0.00  0.00    +0.142 HD
ENDBRANCH   6  13
ENDBRANCH   3   5
BRANCH   1  16
ATOM     16  C   UNL     1       0.817   3.674  -0.577  0.00  0.00    +0.016 C 
ATOM     17  C   UNL     1       1.205   4.097   0.842  0.00  0.00    -0.004 C 
BRANCH  16  22
ATOM     18  C   UNL     1       4.676   5.178  -4.515  0.00  0.00    +0.007 C 
ATOM     19  C   UNL     1       3.792   4.364  -3.569  0.00  0.00    -0.018 C 
ATOM     20  C   UNL     1       2.319   4.620  -3.897  0.00  0.00    -0.015 C 
ATOM     21  C   UNL     1       1.440   3.850  -2.909  0.00  0.00    -0.078 C 
ATOM     22  N   UNL     1       1.738   4.291  -1.541  0.00  0.00    +0.387 N 
ATOM     23  C   UNL     1       3.136   4.011  -1.186  0.00  0.00    -0.078 C 
ATOM     24  C   UNL     1       4.066   4.786  -2.123  0.00  0.00    -0.015 C 
ATOM     25  H   UNL     1       1.594   5.380  -1.500  0.00  0.00    -0.081 HD
ENDBRANCH  16  22
ENDBRANCH   1  16
TORSDOF 4
