REMARK  Name = ZINC40802272
REMARK  5 active torsions:
REMARK  status: ('A' for Active; 'I' for Inactive)
REMARK    1  A    between atoms: C_1  and  C_2
REMARK    2  A    between atoms: C_11  and  N_12
REMARK    3  A    between atoms: C_14  and  N_27
REMARK    4  A    between atoms: C_15  and  O_19
REMARK    5  A    between atoms: O_19  and  C_20
REMARK                            x       y       z     vdW  Elec       q    Type
REMARK                         _______ _______ _______ _____ _____    ______ ____
ROOT
ATOM      1  N   UNL     1       0.081  -4.885  -1.139  0.00  0.00    -0.297 N 
ATOM      2  C   UNL     1       0.205  -6.268  -1.085  0.00  0.00    +0.151 A 
ATOM      3  C   UNL     1       0.311  -7.019  -2.259  0.00  0.00    +0.128 A 
ATOM      4  C   UNL     1       0.435  -8.402  -2.147  0.00  0.00    +0.246 A 
ATOM      5  N   UNL     1       0.448  -8.953  -0.936  0.00  0.00    -0.199 NA
ATOM      6  C   UNL     1       0.345  -8.210   0.147  0.00  0.00    +0.227 A 
ATOM      7  N   UNL     1       0.232  -6.898   0.087  0.00  0.00    -0.218 NA
ATOM      8  H   UNL     1      -0.022  -4.441  -1.996  0.00  0.00    +0.154 HD
ENDROOT
BRANCH   1  19
ATOM      9  C   UNL     1      -2.324   0.943   0.410  0.00  0.00    +0.063 C 
ATOM     10  C   UNL     1      -1.680  -0.415   0.296  0.00  0.00    +0.013 A 
ATOM     11  C   UNL     1      -1.747  -1.098  -0.916  0.00  0.00    +0.021 A 
ATOM     12  C   UNL     1      -1.169  -2.330  -1.037  0.00  0.00    +0.013 A 
ATOM     13  C   UNL     1      -0.517  -2.870   0.085  0.00  0.00    +0.020 A 
ATOM     14  C   UNL     1      -0.484  -2.123   1.288  0.00  0.00    +0.048 A 
ATOM     15  N   UNL     1      -1.066  -0.920   1.339  0.00  0.00    -0.358 N 
ATOM     16  C   UNL     1       0.167  -2.660   2.412  0.00  0.00    +0.026 A 
ATOM     17  C   UNL     1       0.758  -3.885   2.337  0.00  0.00    +0.004 A 
ATOM     18  C   UNL     1       0.732  -4.626   1.161  0.00  0.00    +0.024 A 
ATOM     19  C   UNL     1       0.103  -4.136   0.035  0.00  0.00    +0.042 A 
ATOM     20  H   UNL     1      -1.036  -0.412   2.165  0.00  0.00    +0.166 HD
ENDBRANCH   1  19
BRANCH   3  21
ATOM     21  N   UNL     1       0.293  -6.396  -3.516  0.00  0.00    -0.351 N 
ATOM     22  H   UNL     1       0.206  -5.432  -3.579  0.00  0.00    +0.143 HD
ATOM     23  H   UNL     1       0.368  -6.929  -4.323  0.00  0.00    +0.143 HD
ENDBRANCH   3  21
BRANCH   4  24
ATOM     24  O   UNL     1       0.541  -9.176  -3.256  0.00  0.00    -0.436 OA
BRANCH  24  25
ATOM     25  C   UNL     1       0.553 -10.526  -3.094  0.00  0.00    +0.130 A 
ATOM     26  C   UNL     1      -0.572 -11.178  -2.612  0.00  0.00    +0.047 A 
ATOM     27  C   UNL     1      -0.558 -12.549  -2.448  0.00  0.00    +0.019 A 
ATOM     28  C   UNL     1       0.578 -13.273  -2.765  0.00  0.00    +0.018 A 
ATOM     29  C   UNL     1       1.702 -12.624  -3.245  0.00  0.00    +0.019 A 
ATOM     30  C   UNL     1       1.690 -11.254  -3.416  0.00  0.00    +0.047 A 
ATOM     31 BR   UNL     1       0.596 -15.150  -2.540  0.00  0.00    -0.050 Br
ENDBRANCH  24  25
ENDBRANCH   4  24
TORSDOF 4
