REMARK  Name = ZINC19125749
REMARK  5 active torsions:
REMARK  status: ('A' for Active; 'I' for Inactive)
REMARK    1  A    between atoms: C_1  and  C_2
REMARK    2  A    between atoms: C_13  and  C_15
REMARK    3  A    between atoms: C_15  and  C_16
REMARK    4  A    between atoms: C_15  and  C_17
REMARK    5  A    between atoms: C_15  and  N_18
REMARK                            x       y       z     vdW  Elec       q    Type
REMARK                         _______ _______ _______ _____ _____    ______ ____
ROOT
ATOM      1  C   UNL     1       2.495   1.065  -0.017  0.00  0.00    +0.045 C 
ATOM      2  C   UNL     1       1.173   1.788   0.001  0.00  0.00    -0.031 A 
ATOM      3  C   UNL     1      -0.013   1.076   0.008  0.00  0.00    +0.022 A 
ATOM      4  C   UNL     1      -1.208   1.750   0.017  0.00  0.00    +0.041 A 
ATOM      5  C   UNL     1      -1.288   3.161   0.031  0.00  0.00    +0.082 A 
ATOM      6  C   UNL     1      -0.057   3.857   0.023  0.00  0.00    +0.049 A 
ATOM      7  C   UNL     1       1.133   3.175   0.008  0.00  0.00    +0.046 A 
ATOM      8 CL   UNL     1       2.622   4.068  -0.001  0.00  0.00    -0.083 Cl
ATOM      9  N   UNL     1      -2.537   3.676   0.047  0.00  0.00    -0.225 NA
ATOM     10  C   UNL     1      -3.611   2.921   0.053  0.00  0.00    +0.166 A 
ATOM     11  S   UNL     1      -2.919   1.274   0.037  0.00  0.00    -0.052 S 
ATOM     12  N   UNL     1      -4.942   3.305   0.068  0.00  0.00    -0.263 N 
ATOM     13  C   UNL     1      -5.266   4.613   0.079  0.00  0.00    +0.246 C 
ATOM     14  O   UNL     1      -4.393   5.454   0.075  0.00  0.00    -0.273 OA
ATOM     15  H   UNL     1      -5.641   2.632   0.071  0.00  0.00    +0.157 HD
ENDROOT
BRANCH  13  16
ATOM     16  C   UNL     1      -6.714   5.030   0.095  0.00  0.00    +0.135 C 
ATOM     17  C   UNL     1      -7.416   4.485  -1.151  0.00  0.00    +0.046 C 
ATOM     18  C   UNL     1      -7.392   4.472   1.347  0.00  0.00    +0.046 C 
BRANCH  16  19
ATOM     19  N   UNL     1      -6.801   6.493   0.104  0.00  0.00    -0.238 N 
ATOM     20  C   UNL     1      -7.888   7.237  -0.166  0.00  0.00    +0.220 A 
ATOM     21  N   UNL     1      -7.556   8.497  -0.049  0.00  0.00    -0.223 NA
ATOM     22  C   UNL     1      -6.269   8.597   0.284  0.00  0.00    +0.245 A 
ATOM     23  N   UNL     1      -5.764   7.396   0.389  0.00  0.00    -0.157 NA
ENDBRANCH  16  19
ENDBRANCH  13  16
TORSDOF 2
