REMARK  Name = ZINC24882665
REMARK  7 active torsions:
REMARK  status: ('A' for Active; 'I' for Inactive)
REMARK    1  A    between atoms: C_1  and  C_2
REMARK    2  A    between atoms: C_2  and  C_26
REMARK    3  A    between atoms: N_5  and  N_9
REMARK    4  A    between atoms: C_10  and  C_12
REMARK    5  A    between atoms: C_12  and  S_13
REMARK    6  A    between atoms: S_13  and  C_14
REMARK    7  A    between atoms: N_18  and  C_19
REMARK                            x       y       z     vdW  Elec       q    Type
REMARK                         _______ _______ _______ _____ _____    ______ ____
ROOT
ATOM      1  N   UNL     1       1.700   3.228   0.002  0.00  0.00    -0.223 N 
ATOM      2  C   UNL     1       2.204   3.773   1.127  0.00  0.00    +0.240 C 
ATOM      3  O   UNL     1       2.287   3.108   2.138  0.00  0.00    -0.273 OA
ATOM      4  H   UNL     1       1.624   3.831  -0.915  0.00  0.00    +0.174 HD
ENDROOT
BRANCH   1   9
ATOM      5  C   UNL     1      -0.666  -0.558   1.262  0.00  0.00    +0.047 C 
ATOM      6  C   UNL     1       0.002  -0.004   0.002  0.00  0.00    +0.137 C 
ATOM      7  C   UNL     1      -0.018   1.512   0.010  0.00  0.00    +0.267 C 
ATOM      8  O   UNL     1      -0.995   2.231   0.019  0.00  0.00    -0.271 OA
ATOM      9  N   UNL     1       1.274   1.894   0.000  0.00  0.00    -0.137 N 
ATOM     10  C   UNL     1       2.099   0.841  -0.013  0.00  0.00    +0.327 C 
ATOM     11  O   UNL     1       3.311   0.933  -0.025  0.00  0.00    -0.251 OA
ATOM     12  N   UNL     1       1.438  -0.331  -0.013  0.00  0.00    -0.280 N 
ATOM     13  H   UNL     1       1.763  -1.382  -0.022  0.00  0.00    +0.152 HD
BRANCH   6  14
ATOM     14  C   UNL     1      -0.676  -0.537  -1.234  0.00  0.00    -0.015 A 
ATOM     15  C   UNL     1      -1.704   0.177  -1.820  0.00  0.00    +0.006 A 
ATOM     16  C   UNL     1      -2.323  -0.309  -2.956  0.00  0.00    +0.000 A 
ATOM     17  C   UNL     1      -1.921  -1.514  -3.501  0.00  0.00    +0.000 A 
ATOM     18  C   UNL     1      -0.896  -2.231  -2.911  0.00  0.00    +0.000 A 
ATOM     19  C   UNL     1      -0.274  -1.742  -1.778  0.00  0.00    +0.006 A 
ENDBRANCH   6  14
ENDBRANCH   1   9
BRANCH   2  20
ATOM     20  C   UNL     1       2.662   5.208   1.130  0.00  0.00    +0.174 C 
BRANCH  20  21
ATOM     21  S   UNL     1       3.282   5.641   2.775  0.00  0.00    -0.076 S 
BRANCH  21  22
ATOM     22  C   UNL     1       3.736   7.321   2.498  0.00  0.00    +0.196 A 
ATOM     23  N   UNL     1       3.619   7.987   1.372  0.00  0.00    -0.122 NA
ATOM     24  N   UNL     1       4.047   9.188   1.528  0.00  0.00    -0.137 NA
ATOM     25  C   UNL     1       4.461   9.363   2.751  0.00  0.00    +0.230 A 
ATOM     26  N   UNL     1       4.274   8.180   3.417  0.00  0.00    -0.277 N 
BRANCH  26  27
ATOM     27  C   UNL     1       4.573   7.907   4.759  0.00  0.00    +0.051 A 
ATOM     28  C   UNL     1       5.823   8.226   5.272  0.00  0.00    +0.026 A 
ATOM     29  C   UNL     1       6.116   7.957   6.594  0.00  0.00    +0.003 A 
ATOM     30  C   UNL     1       5.165   7.369   7.409  0.00  0.00    +0.020 A 
ATOM     31  C   UNL     1       3.918   7.050   6.901  0.00  0.00    +0.043 A 
ATOM     32  C   UNL     1       3.618   7.322   5.579  0.00  0.00    +0.046 A 
ATOM     33 CL   UNL     1       2.726   6.314   7.927  0.00  0.00    -0.083 Cl
ENDBRANCH  26  27
ENDBRANCH  21  22
ENDBRANCH  20  21
ENDBRANCH   2  20
TORSDOF 6
