REMARK  Name = ZINC39562081
REMARK  10 active torsions:
REMARK  status: ('A' for Active; 'I' for Inactive)
REMARK    1  A    between atoms: C_1  and  C_2
REMARK    2  A    between atoms: C_5  and  O_32
REMARK    3  A    between atoms: C_6  and  N_8
REMARK    4  A    between atoms: C_9  and  C_11
REMARK    5  A    between atoms: C_11  and  N_12
REMARK    6  A    between atoms: C_13  and  C_15
REMARK    7  A    between atoms: C_15  and  O_16
REMARK    8  A    between atoms: O_16  and  C_17
REMARK    9  A    between atoms: C_27  and  C_31
REMARK   10  A    between atoms: O_32  and  C_33
REMARK                            x       y       z     vdW  Elec       q    Type
REMARK                         _______ _______ _______ _____ _____    ______ ____
ROOT
ATOM      1  N   UNL     1       0.369  -1.951   5.978  0.00  0.00    -0.304 N 
ATOM      2  C   UNL     1       0.491  -2.410   7.239  0.00  0.00    +0.251 C 
ATOM      3  O   UNL     1       0.527  -3.604   7.449  0.00  0.00    -0.272 OA
ATOM      4  H   UNL     1       0.340  -0.996   5.810  0.00  0.00    +0.149 HD
ENDROOT
BRANCH   1   5
ATOM      5  C   UNL     1       0.279  -2.894   4.860  0.00  0.00    +0.200 C 
BRANCH   5   7
ATOM      6  N   UNL     1       0.050  -2.795   2.399  0.00  0.00    -0.281 N 
ATOM      7  C   UNL     1       0.149  -2.130   3.568  0.00  0.00    +0.234 C 
ATOM      8  O   UNL     1       0.134  -0.917   3.579  0.00  0.00    -0.274 OA
ATOM      9  H   UNL     1      -0.018  -3.762   2.396  0.00  0.00    +0.155 HD
BRANCH   6  15
ATOM     10  C   UNL     1       1.263   1.227  -0.157  0.00  0.00    +0.044 C 
ATOM     11  C   UNL     1       0.627  -0.137  -0.079  0.00  0.00    -0.048 A 
ATOM     12  C   UNL     1       0.040  -0.689  -1.202  0.00  0.00    +0.007 A 
ATOM     13  C   UNL     1      -0.546  -1.940  -1.136  0.00  0.00    +0.048 A 
ATOM     14  C   UNL     1      -0.545  -2.643   0.058  0.00  0.00    +0.141 A 
ATOM     15  C   UNL     1       0.047  -2.088   1.189  0.00  0.00    +0.076 A 
ATOM     16  C   UNL     1       0.637  -0.835   1.114  0.00  0.00    +0.030 A 
BRANCH  14  17
ATOM     17  O   UNL     1      -1.121  -3.873   0.124  0.00  0.00    -0.493 OA
ATOM     18  C   UNL     1      -1.709  -4.380  -1.076  0.00  0.00    +0.277 C 
ENDBRANCH  14  17
ENDBRANCH   6  15
ENDBRANCH   5   7
ENDBRANCH   1   5
BRANCH   2  19
ATOM     19  C   UNL     1       0.584  -1.440   8.389  0.00  0.00    +0.326 C 
BRANCH  19  20
ATOM     20  O   UNL     1       0.707  -2.164   9.614  0.00  0.00    -0.466 OA
BRANCH  20  21
ATOM     21  C   UNL     1       0.802  -1.436  10.752  0.00  0.00    +0.227 A 
ATOM     22  C   UNL     1       0.933  -2.081  12.011  0.00  0.00    +0.073 A 
ATOM     23  C   UNL     1       0.989  -3.514  12.305  0.00  0.00    -0.023 A 
ATOM     24  C   UNL     1       1.116  -3.869  13.600  0.00  0.00    -0.004 A 
ATOM     25  S   UNL     1       1.169  -2.339  14.495  0.00  0.00    -0.073 S 
ATOM     26  C   UNL     1       1.022  -1.222  13.125  0.00  0.00    +0.116 A 
ATOM     27  N   UNL     1       0.987   0.088  12.990  0.00  0.00    -0.228 NA
ATOM     28  C   UNL     1       0.865   0.630  11.793  0.00  0.00    +0.226 A 
ATOM     29  N   UNL     1       0.780  -0.116  10.705  0.00  0.00    -0.201 NA
ATOM     30  C   UNL     1       1.196  -5.257  14.157  0.00  0.00    +0.046 C 
ATOM     31  C   UNL     1       1.487  -6.227  13.003  0.00  0.00    -0.009 C 
ATOM     32  C   UNL     1       0.532  -5.914  11.847  0.00  0.00    +0.008 C 
ATOM     33  C   UNL     1       0.908  -4.576  11.211  0.00  0.00    +0.037 C 
ATOM     34  C   UNL     1       1.273  -7.666  13.476  0.00  0.00    +0.008 C 
ENDBRANCH  20  21
ENDBRANCH  19  20
ENDBRANCH   2  19
TORSDOF 7
