REMARK  Name = ZINC13021055
REMARK  11 active torsions:
REMARK  status: ('A' for Active; 'I' for Inactive)
REMARK    1  A    between atoms: C_1  and  C_2
REMARK    2  A    between atoms: C_2  and  C_4
REMARK    3  A    between atoms: C_2  and  S_15
REMARK    4  A    between atoms: N_6  and  C_7
REMARK    5  A    between atoms: S_15  and  C_16
REMARK    6  A    between atoms: C_19  and  C_25
REMARK    7  A    between atoms: N_20  and  C_21
REMARK    8  A    between atoms: C_21  and  C_22
REMARK    9  A    between atoms: C_22  and  C_23
REMARK   10  A    between atoms: C_28  and  O_31
REMARK   11  A    between atoms: O_31  and  C_32
REMARK                            x       y       z     vdW  Elec       q    Type
REMARK                         _______ _______ _______ _____ _____    ______ ____
ROOT
ATOM      1  C   UNL     1      -0.213  -0.111   3.018  0.00  0.00    +0.193 A 
ATOM      2  N   UNL     1       0.705  -0.203   3.954  0.00  0.00    -0.122 NA
ATOM      3  N   UNL     1       1.549   0.759   3.840  0.00  0.00    -0.128 NA
ATOM      4  C   UNL     1       1.224   1.522   2.822  0.00  0.00    +0.165 A 
ATOM      5  N   UNL     1       0.088   0.986   2.262  0.00  0.00    -0.302 N 
ENDROOT
BRANCH   4   6
ATOM      6  C   UNL     1       1.944   2.729   2.364  0.00  0.00    +0.020 A 
ATOM      7  C   UNL     1       2.856   3.364   3.210  0.00  0.00    +0.015 A 
ATOM      8  C   UNL     1       3.528   4.487   2.778  0.00  0.00    +0.046 A 
ATOM      9  C   UNL     1       3.293   4.992   1.506  0.00  0.00    +0.120 A 
ATOM     10  C   UNL     1       2.383   4.367   0.664  0.00  0.00    +0.046 A 
ATOM     11  C   UNL     1       1.710   3.241   1.087  0.00  0.00    +0.015 A 
BRANCH   9  12
ATOM     12  O   UNL     1       3.954   6.102   1.085  0.00  0.00    -0.495 OA
ATOM     13  C   UNL     1       4.876   6.695   2.002  0.00  0.00    +0.277 C 
ENDBRANCH   9  12
ENDBRANCH   4   6
BRANCH   1  14
ATOM     14  S   UNL     1      -1.576  -1.203   2.781  0.00  0.00    -0.074 S 
BRANCH  14  16
ATOM     15  C   UNL     1      -1.447  -1.632   5.476  0.00  0.00    +0.029 C 
ATOM     16  C   UNL     1      -1.290  -2.363   4.141  0.00  0.00    +0.137 C 
BRANCH  16  17
ATOM     17  C   UNL     1      -2.293  -3.485   4.062  0.00  0.00    +0.230 C 
ATOM     18  O   UNL     1      -3.320  -3.339   3.433  0.00  0.00    -0.274 OA
ATOM     19  N   UNL     1      -2.049  -4.652   4.691  0.00  0.00    -0.282 N 
ATOM     20  H   UNL     1      -1.269  -4.742   5.262  0.00  0.00    +0.155 HD
BRANCH  19  21
ATOM     21  C   UNL     1      -2.920  -5.735   4.521  0.00  0.00    +0.069 A 
ATOM     22  C   UNL     1      -3.779  -5.773   3.431  0.00  0.00    +0.027 A 
ATOM     23  C   UNL     1      -4.637  -6.842   3.265  0.00  0.00    +0.022 A 
ATOM     24  C   UNL     1      -4.643  -7.876   4.184  0.00  0.00    +0.044 A 
ATOM     25  C   UNL     1      -3.789  -7.843   5.272  0.00  0.00    +0.060 A 
ATOM     26  C   UNL     1      -2.924  -6.778   5.441  0.00  0.00    +0.146 A 
ATOM     27  F   UNL     1      -2.086  -6.748   6.500  0.00  0.00    -0.203 F 
ATOM     28 CL   UNL     1      -5.724  -9.218   3.971  0.00  0.00    -0.083 Cl
ENDBRANCH  19  21
ENDBRANCH  16  17
ENDBRANCH  14  16
ENDBRANCH   1  14
BRANCH   5  29
ATOM     29  C   UNL     1      -0.650   1.491   1.102  0.00  0.00    +0.137 C 
BRANCH  29  30
ATOM     30  C   UNL     1      -0.137   0.805  -0.166  0.00  0.00    +0.147 C 
BRANCH  30  31
ATOM     31  C   UNL     1      -0.896   1.324  -1.360  0.00  0.00    +0.358 C 
ATOM     32  O   UNL     1      -1.759   2.157  -1.212  0.00  0.00    -0.246 OA
ATOM     33  O   UNL     1      -0.614   0.861  -2.588  0.00  0.00    -0.246 OA
ENDBRANCH  30  31
ENDBRANCH  29  30
ENDBRANCH   5  29
TORSDOF 9
