REMARK  Name = ZINC34792338
REMARK  5 active torsions:
REMARK  status: ('A' for Active; 'I' for Inactive)
REMARK    1  A    between atoms: C_2  and  C_3
REMARK    2  A    between atoms: C_3  and  N_4
REMARK    3  A    between atoms: C_7  and  C_12
REMARK    4  A    between atoms: N_21  and  C_23
REMARK    5  A    between atoms: C_23  and  C_24
REMARK                            x       y       z     vdW  Elec       q    Type
REMARK                         _______ _______ _______ _____ _____    ______ ____
ROOT
ATOM      1  N   UNL     1      -1.274  -1.683  -1.153  0.00  0.00    -0.253 N 
ATOM      2  C   UNL     1      -1.802  -1.246  -2.335  0.00  0.00    +0.043 C 
ATOM      3  C   UNL     1      -1.878  -2.059  -3.409  0.00  0.00    +0.058 C 
ATOM      4  C   UNL     1      -1.358  -3.474  -3.259  0.00  0.00    +0.142 C 
ATOM      5  N   UNL     1      -0.808  -3.848  -1.945  0.00  0.00    -0.288 N 
ATOM      6  C   UNL     1      -0.796  -2.920  -0.967  0.00  0.00    +0.307 C 
ATOM      7  O   UNL     1      -0.340  -3.217   0.120  0.00  0.00    -0.252 OA
ATOM      8  C   UNL     1      -2.458  -1.378  -4.498  0.00  0.00    +0.247 C 
ATOM      9  O   UNL     1      -2.649  -1.871  -5.595  0.00  0.00    -0.270 OA
ATOM     10  N   UNL     1      -2.774  -0.113  -4.169  0.00  0.00    -0.283 N 
ATOM     11  C   UNL     1      -2.384   0.082  -2.764  0.00  0.00    +0.160 C 
ATOM     12  H   UNL     1      -0.460  -4.739  -1.788  0.00  0.00    +0.151 HD
ENDROOT
BRANCH   4  13
ATOM     13  C   UNL     1      -2.488  -4.420  -3.575  0.00  0.00    -0.021 A 
ATOM     14  C   UNL     1      -3.454  -4.686  -2.623  0.00  0.00    +0.006 A 
ATOM     15  C   UNL     1      -4.490  -5.553  -2.912  0.00  0.00    +0.002 A 
ATOM     16  C   UNL     1      -4.561  -6.157  -4.154  0.00  0.00    +0.020 A 
ATOM     17  C   UNL     1      -3.595  -5.891  -5.107  0.00  0.00    +0.041 A 
ATOM     18  C   UNL     1      -2.561  -5.018  -4.819  0.00  0.00    +0.025 A 
ATOM     19 CL   UNL     1      -3.683  -6.649  -6.667  0.00  0.00    -0.084 Cl
ENDBRANCH   4  13
BRANCH   1  20
ATOM     20  C   UNL     1      -1.223  -0.744  -0.030  0.00  0.00    +0.141 C 
BRANCH  20  22
ATOM     21  C   UNL     1       0.078   1.321  -0.074  0.00  0.00    +0.005 C 
ATOM     22  C   UNL     1       0.080   0.011  -0.065  0.00  0.00    -0.015 C 
ENDBRANCH  20  22
ENDBRANCH   1  20
BRANCH  10  23
ATOM     23  C   UNL     1      -3.391   0.886  -5.045  0.00  0.00    +0.204 C 
BRANCH  23  24
ATOM     24  C   UNL     1      -4.891   0.799  -4.929  0.00  0.00    +0.233 C 
ATOM     25  O   UNL     1      -5.395  -0.017  -4.187  0.00  0.00    -0.274 OA
ATOM     26  N   UNL     1      -5.672   1.627  -5.650  0.00  0.00    -0.297 N 
ATOM     27  C   UNL     1      -5.075   2.617  -6.558  0.00  0.00    +0.126 C 
ATOM     28  C   UNL     1      -5.660   2.411  -7.960  0.00  0.00    +0.125 C 
ATOM     29  N   UNL     1      -7.124   2.341  -7.853  0.00  0.00    -0.314 N 
ATOM     30  C   UNL     1      -7.721   1.351  -6.944  0.00  0.00    +0.125 C 
ATOM     31  C   UNL     1      -7.136   1.554  -5.546  0.00  0.00    +0.126 C 
ATOM     32  C   UNL     1      -7.930   3.196  -8.596  0.00  0.00    +0.099 A 
ATOM     33  C   UNL     1      -7.348   4.207  -9.353  0.00  0.00    +0.042 A 
ATOM     34  C   UNL     1      -8.161   5.050 -10.088  0.00  0.00    +0.005 A 
ATOM     35  C   UNL     1      -9.535   4.853 -10.041  0.00  0.00    +0.018 A 
ATOM     36  C   UNL     1     -10.045   3.829  -9.268  0.00  0.00    +0.084 A 
ATOM     37  N   UNL     1      -9.244   3.036  -8.581  0.00  0.00    -0.350 N 
ATOM     38  H   UNL     1      -9.629   2.322  -8.049  0.00  0.00    +0.166 HD
ENDBRANCH  23  24
ENDBRANCH  10  23
TORSDOF 5
