REMARK  Name = ZINC42404116
REMARK  3 active torsions:
REMARK  status: ('A' for Active; 'I' for Inactive)
REMARK    1  A    between atoms: C_1  and  C_2
REMARK    2  A    between atoms: C_2  and  C_3
REMARK    3  A    between atoms: C_3  and  C_4
REMARK                            x       y       z     vdW  Elec       q    Type
REMARK                         _______ _______ _______ _____ _____    ______ ____
ROOT
ATOM      1  C   UNL     1       0.762  -2.018   1.233  0.00  0.00    +0.110 A 
ATOM      2  N   UNL     1       1.364  -2.675   2.244  0.00  0.00    -0.311 N 
ATOM      3  H   UNL     1       1.774  -2.181   2.971  0.00  0.00    +0.170 HD
ATOM      4  C   UNL     1       1.391  -4.023   2.240  0.00  0.00    +0.255 A 
ATOM      5  O   UNL     1       1.933  -4.635   3.146  0.00  0.00    -0.268 OA
ATOM      6  C   UNL     1       0.780  -4.717   1.169  0.00  0.00    +0.038 A 
ATOM      7  C   UNL     1       0.183  -3.999   0.187  0.00  0.00    +0.052 A 
ATOM      8  N   UNL     1       0.194  -2.658   0.251  0.00  0.00    -0.238 NA
ATOM      9  C   UNL     1      -0.514  -4.644  -0.981  0.00  0.00    +0.056 C 
ATOM     10  C   UNL     1      -0.072  -6.098  -1.135  0.00  0.00    +0.006 C 
ATOM     11  C   UNL     1      -0.219  -6.795   0.223  0.00  0.00    +0.005 C 
ATOM     12  C   UNL     1       0.830  -6.220   1.174  0.00  0.00    +0.042 C 
ENDROOT
BRANCH   1  13
ATOM     13  C   UNL     1       0.742  -0.511   1.242  0.00  0.00    +0.074 C 
BRANCH  13  15
ATOM     14  C   UNL     1      -0.019   1.526   0.010  0.00  0.00    +0.004 C 
ATOM     15  C   UNL     1       0.002  -0.004   0.002  0.00  0.00    +0.004 C 
ENDBRANCH  13  15
ENDBRANCH   1  13
TORSDOF 2
