REMARK  Name = ZINC35057802
REMARK  8 active torsions:
REMARK  status: ('A' for Active; 'I' for Inactive)
REMARK    1  A    between atoms: C_1  and  C_2
REMARK    2  A    between atoms: N_4  and  C_5
REMARK    3  A    between atoms: C_7  and  O_34
REMARK    4  A    between atoms: C_15  and  C_18
REMARK    5  A    between atoms: C_25  and  S_27
REMARK    6  A    between atoms: S_27  and  C_28
REMARK    7  A    between atoms: O_34  and  C_35
REMARK    8  A    between atoms: C_35  and  C_36
REMARK                            x       y       z     vdW  Elec       q    Type
REMARK                         _______ _______ _______ _____ _____    ______ ____
ROOT
ATOM      1  C   UNL     1       0.020  -2.136  -1.177  0.00  0.00    +0.143 C 
ATOM      2  C   UNL     1       0.620  -2.634  -2.495  0.00  0.00    +0.174 C 
ATOM      3  C   UNL     1       0.565  -4.162  -2.531  0.00  0.00    +0.183 C 
ATOM      4  C   UNL     1      -0.881  -4.629  -2.330  0.00  0.00    +0.177 C 
ATOM      5  C   UNL     1      -0.892  -6.161  -2.249  0.00  0.00    +0.197 C 
ATOM      6  O   UNL     1       0.012  -6.575  -1.220  0.00  0.00    -0.345 OA
ATOM      7  C   UNL     1       1.355  -6.127  -1.415  0.00  0.00    +0.282 C 
ATOM      8  O   UNL     1       1.378  -4.699  -1.485  0.00  0.00    -0.339 OA
ATOM      9  O   UNL     1      -1.396  -4.080  -1.115  0.00  0.00    -0.356 OA
ATOM     10  C   UNL     1      -1.410  -2.669  -1.045  0.00  0.00    +0.203 C 
ENDROOT
BRANCH   7  11
ATOM     11  C   UNL     1       2.210  -6.587  -0.263  0.00  0.00    +0.008 A 
ATOM     12  C   UNL     1       2.857  -5.658   0.531  0.00  0.00    +0.008 A 
ATOM     13  C   UNL     1       3.641  -6.080   1.589  0.00  0.00    +0.000 A 
ATOM     14  C   UNL     1       3.778  -7.430   1.852  0.00  0.00    +0.000 A 
ATOM     15  C   UNL     1       3.131  -8.358   1.059  0.00  0.00    +0.000 A 
ATOM     16  C   UNL     1       2.343  -7.937   0.004  0.00  0.00    +0.008 A 
ENDBRANCH   7  11
BRANCH   1  20
ATOM     17  C   UNL     1      -0.018   1.503   0.010  0.00  0.00    +0.109 C 
ATOM     18  C   UNL     1       0.002  -0.004   0.002  0.00  0.00    +0.210 C 
ATOM     19  O   UNL     1       0.020  -0.616   1.049  0.00  0.00    -0.276 OA
ATOM     20  N   UNL     1       0.000  -0.672  -1.169  0.00  0.00    -0.307 N 
ATOM     21  H   UNL     1      -0.015  -0.182  -2.006  0.00  0.00    +0.149 HD
ENDBRANCH   1  20
BRANCH  10  22
ATOM     22  S   UNL     1      -2.424  -2.023  -2.403  0.00  0.00    -0.092 S 
BRANCH  22  23
ATOM     23  C   UNL     1      -4.069  -2.469  -1.956  0.00  0.00    +0.010 A 
ATOM     24  C   UNL     1      -4.307  -3.159  -0.773  0.00  0.00    +0.015 A 
ATOM     25  C   UNL     1      -5.597  -3.507  -0.426  0.00  0.00    +0.001 A 
ATOM     26  C   UNL     1      -6.652  -3.171  -1.255  0.00  0.00    +0.000 A 
ATOM     27  C   UNL     1      -6.420  -2.486  -2.433  0.00  0.00    +0.001 A 
ATOM     28  C   UNL     1      -5.132  -2.128  -2.784  0.00  0.00    +0.015 A 
ENDBRANCH  22  23
ENDBRANCH  10  22
BRANCH   2  29
ATOM     29  O   UNL     1       1.978  -2.202  -2.594  0.00  0.00    -0.361 OA
BRANCH  29  30
ATOM     30  C   UNL     1       2.140  -0.930  -3.226  0.00  0.00    +0.285 C 
BRANCH  30  31
ATOM     31  C   UNL     1       3.604  -0.577  -3.276  0.00  0.00    +0.381 C 
ATOM     32  O   UNL     1       4.433  -1.343  -2.813  0.00  0.00    -0.244 OA
ATOM     33  O   UNL     1       3.960   0.475  -3.778  0.00  0.00    -0.244 OA
ENDBRANCH  30  31
ENDBRANCH  29  30
ENDBRANCH   2  29
TORSDOF 7
