REMARK  Name = ZINC12475225
REMARK  8 active torsions:
REMARK  status: ('A' for Active; 'I' for Inactive)
REMARK    1  A    between atoms: C_4  and  C_7
REMARK    2  A    between atoms: N_10  and  C_12
REMARK    3  A    between atoms: C_12  and  C_13
REMARK    4  A    between atoms: N_15  and  C_16
REMARK    5  A    between atoms: N_15  and  C_23
REMARK    6  A    between atoms: C_23  and  C_25
REMARK    7  A    between atoms: C_23  and  C_30
REMARK    8  A    between atoms: N_32  and  C_33
REMARK                            x       y       z     vdW  Elec       q    Type
REMARK                         _______ _______ _______ _____ _____    ______ ____
ROOT
ATOM      1  C   UNL     1       5.794   5.564  -1.443  0.00  0.00    +0.244 C 
ATOM      2  O   UNL     1       5.773   4.735  -2.329  0.00  0.00    -0.273 OA
ATOM      3  N   UNL     1       6.264   6.803  -1.691  0.00  0.00    -0.251 N 
ENDROOT
BRANCH   3   4
ATOM      4  C   UNL     1       6.638   7.635  -0.630  0.00  0.00    +0.040 A 
ATOM      5  C   UNL     1       6.665   7.138   0.667  0.00  0.00    +0.024 A 
ATOM      6  C   UNL     1       7.035   7.960   1.713  0.00  0.00    +0.005 A 
ATOM      7  C   UNL     1       7.380   9.277   1.472  0.00  0.00    +0.038 A 
ATOM      8  C   UNL     1       7.355   9.776   0.180  0.00  0.00    +0.125 A 
ATOM      9  C   UNL     1       6.990   8.955  -0.872  0.00  0.00    +0.062 A 
ATOM     10  F   UNL     1       7.693  11.063  -0.053  0.00  0.00    -0.205 F 
ENDBRANCH   3   4
BRANCH   1  11
ATOM     11  C   UNL     1       5.296   5.209  -0.066  0.00  0.00    +0.264 C 
BRANCH  11  15
ATOM     12  C   UNL     1       2.361   3.273  -0.364  0.00  0.00    +0.205 A 
ATOM     13  N   UNL     1       3.302   2.322  -0.276  0.00  0.00    -0.108 NA
ATOM     14  N   UNL     1       4.439   2.919  -0.162  0.00  0.00    -0.045 NA
ATOM     15  N   UNL     1       4.247   4.192  -0.174  0.00  0.00    -0.154 N 
ATOM     16  N   UNL     1       2.987   4.431  -0.303  0.00  0.00    -0.130 NA
BRANCH  12  20
ATOM     17  C   UNL     1      -1.829   2.669  -0.779  0.00  0.00    +0.000 A 
ATOM     18  C   UNL     1      -1.320   3.954  -0.722  0.00  0.00    +0.001 A 
ATOM     19  C   UNL     1       0.039   4.156  -0.588  0.00  0.00    +0.012 A 
ATOM     20  C   UNL     1       0.898   3.062  -0.509  0.00  0.00    +0.023 A 
ATOM     21  C   UNL     1       0.381   1.770  -0.566  0.00  0.00    +0.012 A 
ATOM     22  C   UNL     1      -0.980   1.580  -0.700  0.00  0.00    +0.001 A 
ENDBRANCH  12  20
ENDBRANCH  11  15
ENDBRANCH   1  11
BRANCH   3  23
ATOM     23  C   UNL     1       6.383   7.279  -3.072  0.00  0.00    +0.233 C 
BRANCH  23  24
ATOM     24  C   UNL     1       5.530   8.508  -3.254  0.00  0.00    +0.135 A 
ATOM     25  C   UNL     1       4.781   8.793  -4.335  0.00  0.00    +0.047 A 
ATOM     26  C   UNL     1       4.153  10.034  -4.082  0.00  0.00    +0.041 A 
ATOM     27  C   UNL     1       4.555  10.433  -2.862  0.00  0.00    +0.195 A 
ATOM     28  O   UNL     1       5.385   9.502  -2.363  0.00  0.00    -0.465 OA
ENDBRANCH  23  24
BRANCH  23  29
ATOM     29  C   UNL     1       7.821   7.617  -3.365  0.00  0.00    +0.242 C 
ATOM     30  O   UNL     1       8.665   7.475  -2.505  0.00  0.00    -0.273 OA
ATOM     31  N   UNL     1       8.171   8.078  -4.582  0.00  0.00    -0.311 N 
ATOM     32  H   UNL     1       7.496   8.192  -5.269  0.00  0.00    +0.149 HD
BRANCH  31  33
ATOM     33  C   UNL     1       9.570   8.407  -4.867  0.00  0.00    +0.073 C 
ATOM     34  C   UNL     1       9.862   9.836  -4.404  0.00  0.00    +0.022 C 
ATOM     35  C   UNL     1      11.323  10.180  -4.701  0.00  0.00    +0.002 C 
ATOM     36  C   UNL     1      11.577  10.069  -6.206  0.00  0.00    +0.000 C 
ATOM     37  C   UNL     1      11.285   8.640  -6.669  0.00  0.00    +0.002 C 
ATOM     38  C   UNL     1       9.824   8.297  -6.371  0.00  0.00    +0.022 C 
ENDBRANCH  31  33
ENDBRANCH  23  29
ENDBRANCH   3  23
TORSDOF 8
