REMARK  Name = ZINC23505245
REMARK  5 active torsions:
REMARK  status: ('A' for Active; 'I' for Inactive)
REMARK    1  A    between atoms: C_1  and  O_2
REMARK    2  A    between atoms: O_2  and  C_3
REMARK    3  A    between atoms: C_3  and  C_4
REMARK    4  A    between atoms: C_5  and  C_22
REMARK    5  A    between atoms: C_9  and  C_15
REMARK                            x       y       z     vdW  Elec       q    Type
REMARK                         _______ _______ _______ _____ _____    ______ ____
ROOT
ATOM      1  C   UNL     1       0.614  -2.074  -1.042  0.00  0.00    +0.099 A 
ATOM      2  C   UNL     1       1.585  -2.882  -0.424  0.00  0.00    +0.050 A 
ATOM      3  C   UNL     1       1.171  -4.197  -0.557  0.00  0.00    +0.146 A 
ATOM      4  N   UNL     1       1.722  -5.392  -0.148  0.00  0.00    -0.342 N 
ATOM      5  H   UNL     1       2.564  -5.397   0.334  0.00  0.00    +0.167 HD
ATOM      6  C   UNL     1       1.087  -6.567  -0.418  0.00  0.00    +0.028 A 
ATOM      7  C   UNL     1      -0.087  -6.560  -1.090  0.00  0.00    +0.093 A 
ATOM      8  C   UNL     1      -0.649  -5.336  -1.508  0.00  0.00    +0.275 A 
ATOM      9  O   UNL     1      -1.706  -5.324  -2.113  0.00  0.00    -0.266 OA
ATOM     10  N   UNL     1      -0.013  -4.179  -1.235  0.00  0.00    -0.179 N 
ATOM     11  N   UNL     1      -0.330  -2.845  -1.516  0.00  0.00    -0.164 NA
ENDROOT
BRANCH   6  12
ATOM     12  C   UNL     1       1.692  -7.872   0.030  0.00  0.00    +0.062 C 
ATOM     13  C   UNL     1       1.955  -7.866   1.554  0.00  0.00    +0.107 C 
ATOM     14  C   UNL     1       3.254  -8.625   1.709  0.00  0.00    +0.214 C 
ATOM     15  O   UNL     1       3.669  -9.086   2.751  0.00  0.00    -0.276 OA
ATOM     16  N   UNL     1       3.882  -8.714   0.523  0.00  0.00    -0.315 N 
ATOM     17  C   UNL     1       3.119  -8.044  -0.536  0.00  0.00    +0.114 C 
ATOM     18  H   UNL     1       4.731  -9.163   0.386  0.00  0.00    +0.149 HD
ENDBRANCH   6  12
BRANCH   2  19
ATOM     19  C   UNL     1       2.821  -2.413   0.246  0.00  0.00    -0.012 A 
ATOM     20  C   UNL     1       4.070  -2.744  -0.279  0.00  0.00    +0.010 A 
ATOM     21  C   UNL     1       5.218  -2.305   0.349  0.00  0.00    +0.020 A 
ATOM     22  C   UNL     1       5.131  -1.539   1.498  0.00  0.00    +0.041 A 
ATOM     23  C   UNL     1       3.894  -1.208   2.024  0.00  0.00    +0.020 A 
ATOM     24  C   UNL     1       2.740  -1.636   1.401  0.00  0.00    +0.010 A 
ATOM     25 CL   UNL     1       6.579  -0.991   2.284  0.00  0.00    -0.084 Cl
ENDBRANCH   2  19
BRANCH   1  26
ATOM     26  C   UNL     1       0.652  -0.570  -1.138  0.00  0.00    +0.217 C 
BRANCH  26  28
ATOM     27  C   UNL     1      -0.017   1.425   0.010  0.00  0.00    +0.194 C 
ATOM     28  O   UNL     1       0.002  -0.004   0.002  0.00  0.00    -0.377 OA
ENDBRANCH  26  28
ENDBRANCH   1  26
TORSDOF 4
