REMARK  Name = ZINC39674137
REMARK  7 active torsions:
REMARK  status: ('A' for Active; 'I' for Inactive)
REMARK    1  A    between atoms: C_1  and  C_2
REMARK    2  A    between atoms: C_4  and  C_9
REMARK    3  A    between atoms: C_5  and  C_8
REMARK    4  A    between atoms: C_9  and  C_11
REMARK    5  A    between atoms: C_9  and  N_12
REMARK    6  A    between atoms: C_13  and  C_15
REMARK    7  A    between atoms: C_26  and  C_28
REMARK                            x       y       z     vdW  Elec       q    Type
REMARK                         _______ _______ _______ _____ _____    ______ ____
ROOT
ATOM      1  C   UNL     1      -3.091  -0.682  -5.545  0.00  0.00    +0.100 C 
ATOM      2  C   UNL     1      -3.799  -2.002  -5.167  0.00  0.00    +0.121 C 
ATOM      3  N   UNL     1      -4.537  -2.395  -6.390  0.00  0.00    -0.296 N 
ATOM      4  C   UNL     1      -3.616  -2.057  -7.501  0.00  0.00    +0.115 C 
ATOM      5  C   UNL     1      -2.972  -0.722  -7.077  0.00  0.00    -0.004 C 
ATOM      6  C   UNL     1      -3.729   0.449  -7.697  0.00  0.00    -0.010 C 
ATOM      7  C   UNL     1      -3.549   0.419  -9.217  0.00  0.00    -0.082 C 
ATOM      8  N   UNL     1      -2.121   0.506  -9.544  0.00  0.00    +0.379 N 
ATOM      9  C   UNL     1      -1.415  -0.671  -9.024  0.00  0.00    -0.082 C 
ATOM     10  C   UNL     1      -1.505  -0.688  -7.495  0.00  0.00    -0.010 C 
ATOM     11  C   UNL     1      -5.769  -2.936  -6.474  0.00  0.00    +0.248 C 
ATOM     12  O   UNL     1      -6.438  -3.083  -5.469  0.00  0.00    -0.270 OA
ATOM     13  H   UNL     1      -2.008   0.548 -10.546  0.00  0.00    -0.086 HD
ATOM     14  H   UNL     1      -1.732   1.340  -9.130  0.00  0.00    -0.086 HD
ENDROOT
BRANCH  11  15
ATOM     15  C   UNL     1      -6.306  -3.350  -7.786  0.00  0.00    +0.055 A 
ATOM     16  C   UNL     1      -5.457  -3.899  -8.750  0.00  0.00    +0.016 A 
ATOM     17  C   UNL     1      -5.964  -4.284  -9.972  0.00  0.00    +0.021 A 
ATOM     18  C   UNL     1      -7.313  -4.127 -10.247  0.00  0.00    +0.042 A 
ATOM     19  C   UNL     1      -8.161  -3.584  -9.298  0.00  0.00    +0.040 A 
ATOM     20  C   UNL     1      -7.667  -3.200  -8.066  0.00  0.00    +0.054 A 
ATOM     21 CL   UNL     1      -8.732  -2.526  -6.873  0.00  0.00    -0.083 Cl
ATOM     22 CL   UNL     1      -7.942  -4.614 -11.790  0.00  0.00    -0.083 Cl
ENDBRANCH  11  15
BRANCH   1  24
ATOM     23  N   UNL     1      -1.182   0.572  -4.595  0.00  0.00    -0.309 N 
ATOM     24  C   UNL     1      -1.724  -0.620  -4.914  0.00  0.00    +0.219 C 
ATOM     25  O   UNL     1      -1.111  -1.644  -4.693  0.00  0.00    -0.275 OA
ATOM     26  H   UNL     1      -1.672   1.390  -4.772  0.00  0.00    +0.149 HD
BRANCH  23  27
ATOM     27  C   UNL     1       0.147   0.631  -3.982  0.00  0.00    +0.100 C 
ATOM     28  C   UNL     1       1.216   0.604  -5.076  0.00  0.00    +0.033 C 
BRANCH  27  31
ATOM     29  C   UNL     1       1.007   3.696  -4.782  0.00  0.00    +0.039 C 
ATOM     30  C   UNL     1       0.039   3.329  -3.655  0.00  0.00    +0.154 C 
ATOM     31  C   UNL     1       0.277   1.905  -3.186  0.00  0.00    -0.001 C 
ATOM     32  C   UNL     1       0.626   2.042  -1.905  0.00  0.00    +0.063 C 
ATOM     33  N   UNL     1       0.630   3.345  -1.546  0.00  0.00    -0.159 NA
ATOM     34  N   UNL     1       0.316   4.129  -2.450  0.00  0.00    -0.180 NA
ATOM     35  C   UNL     1       0.969   0.900  -0.985  0.00  0.00    +0.067 C 
ENDBRANCH  27  31
ENDBRANCH  23  27
ENDBRANCH   1  24
TORSDOF 4
