REMARK  Name = ZINC44837016
REMARK  6 active torsions:
REMARK  status: ('A' for Active; 'I' for Inactive)
REMARK    1  A    between atoms: C_5  and  N_7
REMARK    2  A    between atoms: C_8  and  C_10
REMARK    3  A    between atoms: C_10  and  N_11
REMARK    4  A    between atoms: N_20  and  C_21
REMARK    5  A    between atoms: C_21  and  C_22
REMARK    6  A    between atoms: C_26  and  C_28
REMARK                            x       y       z     vdW  Elec       q    Type
REMARK                         _______ _______ _______ _____ _____    ______ ____
ROOT
ATOM      1  N   UNL     1      -1.250  -4.788   0.299  0.00  0.00    -0.288 N 
ATOM      2  C   UNL     1      -1.820  -4.936   1.521  0.00  0.00    +0.205 A 
ATOM      3  N   UNL     1      -3.031  -5.384   1.686  0.00  0.00    -0.216 NA
ATOM      4  C   UNL     1      -3.804  -5.734   0.648  0.00  0.00    +0.186 A 
ATOM      5  C   UNL     1      -3.303  -5.617  -0.655  0.00  0.00    +0.196 A 
ATOM      6  C   UNL     1      -1.940  -5.105  -0.820  0.00  0.00    +0.284 A 
ATOM      7  O   UNL     1      -1.445  -4.974  -1.926  0.00  0.00    -0.265 OA
ATOM      8  N   UNL     1      -4.256  -6.024  -1.505  0.00  0.00    -0.122 NA
ATOM      9  N   UNL     1      -5.305  -6.384  -0.851  0.00  0.00    -0.063 NA
ATOM     10  N   UNL     1      -5.071  -6.219   0.523  0.00  0.00    -0.222 N 
ENDROOT
BRANCH   1  11
ATOM     11  C   UNL     1       0.118  -4.276   0.191  0.00  0.00    +0.222 C 
BRANCH  11  13
ATOM     12  N   UNL     1       1.237  -2.080  -0.022  0.00  0.00    -0.283 N 
ATOM     13  C   UNL     1       0.086  -2.773   0.087  0.00  0.00    +0.237 C 
ATOM     14  O   UNL     1      -0.976  -2.187   0.102  0.00  0.00    -0.274 OA
ATOM     15  H   UNL     1       2.080  -2.551  -0.115  0.00  0.00    +0.155 HD
BRANCH  12  20
ATOM     16  C   UNL     1       0.153   1.372   0.637  0.00  0.00    +0.002 A 
ATOM     17  C   UNL     1       1.173   2.086   0.035  0.00  0.00    +0.002 A 
ATOM     18  C   UNL     1       2.214   1.422  -0.586  0.00  0.00    +0.022 A 
ATOM     19  C   UNL     1       2.239   0.040  -0.607  0.00  0.00    +0.062 A 
ATOM     20  C   UNL     1       1.216  -0.681  -0.003  0.00  0.00    +0.052 A 
ATOM     21  C   UNL     1       0.172  -0.009   0.620  0.00  0.00    +0.025 A 
ATOM     22 CL   UNL     1       3.546  -0.795  -1.388  0.00  0.00    -0.082 Cl
ENDBRANCH  12  20
ENDBRANCH  11  13
ENDBRANCH   1  11
BRANCH  10  23
ATOM     23  C   UNL     1      -6.006  -6.512   1.611  0.00  0.00    +0.182 C 
BRANCH  23  24
ATOM     24  C   UNL     1      -6.829  -5.286   1.911  0.00  0.00    -0.025 A 
ATOM     25  C   UNL     1      -6.384  -4.366   2.843  0.00  0.00    +0.005 A 
ATOM     26  C   UNL     1      -7.138  -3.241   3.118  0.00  0.00    +0.001 A 
ATOM     27  C   UNL     1      -8.337  -3.035   2.461  0.00  0.00    +0.012 A 
ATOM     28  C   UNL     1      -8.781  -3.953   1.528  0.00  0.00    +0.055 A 
ATOM     29  C   UNL     1      -8.024  -5.077   1.250  0.00  0.00    +0.017 A 
BRANCH  28  30
ATOM     30  C   UNL     1     -10.087  -3.729   0.811  0.00  0.00    +0.417 C 
ATOM     31  F   UNL     1     -10.663  -2.533   1.255  0.00  0.00    -0.166 F 
ATOM     32  F   UNL     1      -9.856  -3.652  -0.566  0.00  0.00    -0.166 F 
ATOM     33  F   UNL     1     -10.955  -4.792   1.080  0.00  0.00    -0.166 F 
ENDBRANCH  28  30
ENDBRANCH  23  24
ENDBRANCH  10  23
TORSDOF 6
