REMARK  Name = ZINC39412803
REMARK  5 active torsions:
REMARK  status: ('A' for Active; 'I' for Inactive)
REMARK    1  A    between atoms: C_1  and  C_2
REMARK    2  A    between atoms: C_9  and  C_12
REMARK    3  A    between atoms: C_17  and  C_18
REMARK    4  A    between atoms: C_21  and  O_24
REMARK    5  A    between atoms: O_24  and  C_25
REMARK                            x       y       z     vdW  Elec       q    Type
REMARK                         _______ _______ _______ _____ _____    ______ ____
ROOT
ATOM      1  C   UNL     1       1.165   0.661   3.133  0.00  0.00    +0.123 C 
ATOM      2  C   UNL     1       1.355   0.893   4.619  0.00  0.00    +0.121 C 
ATOM      3  N   UNL     1       1.627   2.150   4.755  0.00  0.00    -0.161 NA
ATOM      4  N   UNL     1       1.651   2.824   3.538  0.00  0.00    -0.153 NA
ATOM      5  C   UNL     1       1.393   2.032   2.528  0.00  0.00    +0.082 C 
ENDROOT
BRANCH   1  14
ATOM      6  C   UNL     1       1.206  -2.552   2.505  0.00  0.00    +0.061 C 
ATOM      7  C   UNL     1       0.061  -2.331   3.461  0.00  0.00    +0.011 C 
ATOM      8  C   UNL     1      -0.370  -3.352   4.220  0.00  0.00    +0.019 C 
ATOM      9  C   UNL     1      -1.439  -3.184   5.126  0.00  0.00    +0.005 C 
ATOM     10  C   UNL     1      -2.049  -1.981   5.242  0.00  0.00    +0.045 C 
ATOM     11  C   UNL     1      -1.578  -0.864   4.412  0.00  0.00    +0.145 C 
ATOM     12  N   UNL     1      -1.988   0.372   4.335  0.00  0.00    -0.170 NA
ATOM     13  N   UNL     1      -1.247   1.103   3.400  0.00  0.00    -0.246 N 
ATOM     14  C   UNL     1      -0.254   0.171   2.841  0.00  0.00    +0.195 C 
ATOM     15  N   UNL     1      -0.516  -1.093   3.542  0.00  0.00    -0.267 N 
ATOM     16  H   UNL     1      -1.364   2.038   3.167  0.00  0.00    +0.170 HD
ENDBRANCH   1  14
BRANCH   5  17
ATOM     17  C   UNL     1       1.335   2.394   1.105  0.00  0.00    -0.001 A 
ATOM     18  C   UNL     1       1.176   1.399   0.133  0.00  0.00    +0.013 A 
ATOM     19  C   UNL     1       1.121   1.744  -1.199  0.00  0.00    +0.046 A 
ATOM     20  C   UNL     1       1.223   3.077  -1.579  0.00  0.00    +0.120 A 
ATOM     21  C   UNL     1       1.381   4.069  -0.618  0.00  0.00    +0.046 A 
ATOM     22  C   UNL     1       1.431   3.736   0.717  0.00  0.00    +0.013 A 
BRANCH  20  23
ATOM     23  O   UNL     1       1.169   3.412  -2.894  0.00  0.00    -0.495 OA
ATOM     24  C   UNL     1       1.280   4.800  -3.215  0.00  0.00    +0.277 C 
ENDBRANCH  20  23
ENDBRANCH   5  17
TORSDOF 3
