REMARK  Name = ZINC40144722
REMARK  4 active torsions:
REMARK  status: ('A' for Active; 'I' for Inactive)
REMARK    1  A    between atoms: C_5  and  C_6
REMARK    2  A    between atoms: N_8  and  N_9
REMARK    3  A    between atoms: C_10  and  C_12
REMARK    4  A    between atoms: C_15  and  N_17
REMARK                            x       y       z     vdW  Elec       q    Type
REMARK                         _______ _______ _______ _____ _____    ______ ____
ROOT
ATOM      1  C   UNL     1      -1.122  -0.945   0.007  0.00  0.00    +0.267 C 
ATOM      2  O   UNL     1      -2.265  -0.527   0.020  0.00  0.00    -0.268 OA
ATOM      3  N   UNL     1      -0.890  -2.272  -0.002  0.00  0.00    -0.230 N 
ATOM      4  H   UNL     1       0.021  -2.605  -0.012  0.00  0.00    +0.173 HD
ENDROOT
BRANCH   1   9
ATOM      5  C   UNL     1      -0.017   1.377   0.010  0.00  0.00    +0.024 A 
ATOM      6  C   UNL     1       1.215   2.026   0.001  0.00  0.00    -0.036 A 
ATOM      7  C   UNL     1       2.318   1.232  -0.015  0.00  0.00    -0.006 A 
ATOM      8  S   UNL     1       1.752  -0.343  -0.015  0.00  0.00    -0.088 S 
ATOM      9  C   UNL     1       0.002  -0.004   0.002  0.00  0.00    +0.076 A 
ATOM     10  C   UNL     1       3.756   1.658  -0.035  0.00  0.00    +0.043 C 
ATOM     11  C   UNL     1       3.896   3.018   0.657  0.00  0.00    +0.005 C 
ATOM     12  C   UNL     1       3.707   4.116  -0.385  0.00  0.00    +0.001 C 
ATOM     13  C   UNL     1       2.319   4.027  -1.014  0.00  0.00    +0.005 C 
ATOM     14  C   UNL     1       1.299   3.548   0.013  0.00  0.00    +0.036 C 
ENDBRANCH   1   9
BRANCH   3  15
ATOM     15  N   UNL     1      -1.965  -3.171   0.003  0.00  0.00    -0.234 N 
ATOM     16  C   UNL     1      -1.733  -4.499  -0.006  0.00  0.00    +0.234 C 
ATOM     17  O   UNL     1      -0.594  -4.915  -0.019  0.00  0.00    -0.274 OA
ATOM     18  H   UNL     1      -2.876  -2.838   0.013  0.00  0.00    +0.173 HD
BRANCH  16  19
ATOM     19  C   UNL     1      -2.889  -5.466  -0.001  0.00  0.00    +0.108 C 
ATOM     20  C   UNL     1      -3.103  -6.303   1.262  0.00  0.00    +0.047 C 
ATOM     21  C   UNL     1      -2.560  -6.960  -0.010  0.00  0.00    +0.182 C 
BRANCH  21  22
ATOM     22  N   UNL     1      -3.460  -7.846  -0.751  0.00  0.00    +0.026 N 
ATOM     23  O   UNL     1      -3.036  -8.509  -1.669  0.00  0.00    -0.131 OA
ATOM     24  O   UNL     1      -4.628  -7.916  -0.445  0.00  0.00    -0.131 OA
ENDBRANCH  21  22
ENDBRANCH  16  19
ENDBRANCH   3  15
TORSDOF 4
