REMARK  Name = ZINC04536660
REMARK  7 active torsions:
REMARK  status: ('A' for Active; 'I' for Inactive)
REMARK    1  A    between atoms: C_4  and  C_7
REMARK    2  A    between atoms: C_7  and  N_8
REMARK    3  A    between atoms: C_12  and  C_14
REMARK    4  A    between atoms: C_14  and  S_15
REMARK    5  A    between atoms: S_15  and  C_16
REMARK    6  A    between atoms: C_19  and  C_22
REMARK    7  A    between atoms: N_20  and  N_21
REMARK                            x       y       z     vdW  Elec       q    Type
REMARK                         _______ _______ _______ _____ _____    ______ ____
ROOT
ATOM      1  N   UNL     1       3.876  14.250  -0.031  0.00  0.00    -0.295 N 
ATOM      2  C   UNL     1       4.254  12.972   0.169  0.00  0.00    +0.306 C 
ATOM      3  O   UNL     1       5.404  12.718   0.469  0.00  0.00    -0.252 OA
ATOM      4  N   UNL     1       3.356  11.976   0.035  0.00  0.00    -0.239 N 
ATOM      5  C   UNL     1       3.734  10.697   0.235  0.00  0.00    +0.231 C 
ATOM      6  O   UNL     1       4.881  10.444   0.535  0.00  0.00    -0.274 OA
ATOM      7  H   UNL     1       2.958  14.453  -0.271  0.00  0.00    +0.151 HD
ATOM      8  H   UNL     1       2.439  12.178  -0.205  0.00  0.00    +0.159 HD
ENDROOT
BRANCH   1   9
ATOM      9  C   UNL     1       4.851  15.334   0.114  0.00  0.00    +0.141 C 
BRANCH   9  13
ATOM     10  C   UNL     1       2.948  19.078  -0.665  0.00  0.00    +0.000 A 
ATOM     11  C   UNL     1       2.974  18.570   0.621  0.00  0.00    +0.000 A 
ATOM     12  C   UNL     1       3.590  17.358   0.873  0.00  0.00    +0.005 A 
ATOM     13  C   UNL     1       4.179  16.655  -0.161  0.00  0.00    -0.030 A 
ATOM     14  C   UNL     1       4.158  17.165  -1.445  0.00  0.00    +0.005 A 
ATOM     15  C   UNL     1       3.538  18.374  -1.698  0.00  0.00    +0.000 A 
ENDBRANCH   9  13
ENDBRANCH   1   9
BRANCH   5  16
ATOM     16  C   UNL     1       2.731   9.583   0.085  0.00  0.00    +0.173 C 
BRANCH  16  17
ATOM     17  S   UNL     1       3.538   7.997   0.415  0.00  0.00    -0.075 S 
BRANCH  17  18
ATOM     18  C   UNL     1       2.175   6.905   0.176  0.00  0.00    +0.209 A 
ATOM     19  N   UNL     1       0.950   7.248  -0.151  0.00  0.00    -0.121 NA
ATOM     20  N   UNL     1       0.209   6.203  -0.249  0.00  0.00    -0.126 NA
ATOM     21  C   UNL     1       0.914   5.126   0.019  0.00  0.00    +0.188 A 
ATOM     22  N   UNL     1       2.197   5.543   0.297  0.00  0.00    -0.223 N 
BRANCH  21  23
ATOM     23  C   UNL     1       0.426   3.737   0.017  0.00  0.00    +0.058 A 
ATOM     24  C   UNL     1      -0.866   3.275   0.026  0.00  0.00    +0.019 A 
ATOM     25  C   UNL     1      -1.081   1.915   0.017  0.00  0.00    +0.008 A 
ATOM     26  C   UNL     1      -0.013   1.076   0.008  0.00  0.00    +0.046 A 
ATOM     27  S   UNL     1       1.361   2.216   0.001  0.00  0.00    -0.093 S 
ENDBRANCH  21  23
BRANCH  22  28
ATOM     28  N   UNL     1       3.267   4.760   0.623  0.00  0.00    -0.295 N 
ATOM     29  H   UNL     1       3.773   4.476  -0.203  0.00  0.00    +0.163 HD
ATOM     30  H   UNL     1       3.876   5.232   1.275  0.00  0.00    +0.163 HD
ENDBRANCH  22  28
ENDBRANCH  17  18
ENDBRANCH  16  17
ENDBRANCH   5  16
TORSDOF 7
