REMARK  Name = ZINC40018378
REMARK  4 active torsions:
REMARK  status: ('A' for Active; 'I' for Inactive)
REMARK    1  A    between atoms: C_1  and  C_2
REMARK    2  A    between atoms: N_8  and  C_9
REMARK    3  A    between atoms: C_9  and  N_10
REMARK    4  A    between atoms: C_16  and  C_19
REMARK                            x       y       z     vdW  Elec       q    Type
REMARK                         _______ _______ _______ _____ _____    ______ ____
ROOT
ATOM      1  N   UNL     1       2.735  -0.304   2.463  0.00  0.00    -0.241 N 
ATOM      2  C   UNL     1       2.679   0.408   3.607  0.00  0.00    +0.245 C 
ATOM      3  O   UNL     1       2.088   1.450   3.795  0.00  0.00    -0.273 OA
ATOM      4  C   UNL     1       3.507  -0.367   4.606  0.00  0.00    +0.112 C 
ATOM      5  C   UNL     1       2.644  -0.808   5.783  0.00  0.00    +0.035 C 
ATOM      6  C   UNL     1       3.494  -1.617   6.767  0.00  0.00    +0.006 C 
ATOM      7  C   UNL     1       4.659  -0.756   7.261  0.00  0.00    -0.014 C 
ATOM      8  C   UNL     1       5.527  -0.340   6.072  0.00  0.00    +0.006 C 
ATOM      9  C   UNL     1       4.686   0.473   5.085  0.00  0.00    +0.035 C 
ATOM     10  C   UNL     1       5.502  -1.559   8.252  0.00  0.00    +0.007 C 
ATOM     11  N   UNL     1       3.980  -1.533   3.849  0.00  0.00    -0.285 N 
ATOM     12  C   UNL     1       3.473  -1.411   2.607  0.00  0.00    +0.308 C 
ATOM     13  O   UNL     1       3.667  -2.215   1.716  0.00  0.00    -0.252 OA
ATOM     14  H   UNL     1       4.543  -2.250   4.179  0.00  0.00    +0.151 HD
ENDROOT
BRANCH   1  15
ATOM     15  C   UNL     1       2.066   0.083   1.218  0.00  0.00    +0.043 C 
BRANCH  15  22
ATOM     16  C   UNL     1      -0.019   1.526   0.010  0.00  0.00    -0.013 C 
ATOM     17  C   UNL     1       0.002  -0.004   0.002  0.00  0.00    -0.070 C 
ATOM     18  C   UNL     1      -1.434  -0.533   0.011  0.00  0.00    -0.016 C 
ATOM     19  C   UNL     1      -1.408  -2.064   0.003  0.00  0.00    -0.003 C 
ATOM     20  C   UNL     1      -0.600  -2.558   1.206  0.00  0.00    -0.019 C 
ATOM     21  C   UNL     1       0.805  -1.954   1.152  0.00  0.00    -0.076 C 
ATOM     22  N   UNL     1       0.713  -0.490   1.191  0.00  0.00    +0.392 N 
ATOM     23  H   UNL     1       0.213  -0.206   2.020  0.00  0.00    -0.079 HD
ENDBRANCH  15  22
ENDBRANCH   1  15
TORSDOF 2
