REMARK  Name = ZINC51048702
REMARK  5 active torsions:
REMARK  status: ('A' for Active; 'I' for Inactive)
REMARK    1  A    between atoms: C_4  and  N_7
REMARK    2  A    between atoms: C_11  and  C_13
REMARK    3  A    between atoms: C_13  and  N_14
REMARK    4  A    between atoms: C_18  and  C_21
REMARK    5  A    between atoms: N_23  and  C_24
REMARK                            x       y       z     vdW  Elec       q    Type
REMARK                         _______ _______ _______ _____ _____    ______ ____
ROOT
ATOM      1  C   UNL     1       5.346  -3.789  -4.842  0.00  0.00    +0.019 C 
ENDROOT
BRANCH   1   6
ATOM      2  N   UNL     1       2.839  -0.440  -2.473  0.00  0.00    -0.296 N 
ATOM      3  C   UNL     1       3.424  -1.655  -2.483  0.00  0.00    +0.306 C 
ATOM      4  O   UNL     1       3.383  -2.357  -1.493  0.00  0.00    -0.252 OA
ATOM      5  N   UNL     1       4.055  -2.089  -3.592  0.00  0.00    -0.242 N 
ATOM      6  C   UNL     1       4.640  -3.303  -3.603  0.00  0.00    +0.204 C 
ATOM      7  O   UNL     1       4.599  -4.004  -2.614  0.00  0.00    -0.277 OA
ATOM      8  H   UNL     1       2.872   0.121  -3.264  0.00  0.00    +0.151 HD
ATOM      9  H   UNL     1       4.088  -1.528  -4.383  0.00  0.00    +0.159 HD
BRANCH   2  13
ATOM     10  C   UNL     1      -0.019   1.526   0.010  0.00  0.00    +0.000 C 
ATOM     11  C   UNL     1       1.417   2.055  -0.000  0.00  0.00    +0.002 C 
ATOM     12  C   UNL     1       2.133   1.562  -1.259  0.00  0.00    +0.022 C 
ATOM     13  C   UNL     1       2.154   0.032  -1.268  0.00  0.00    +0.074 C 
ATOM     14  C   UNL     1       0.718  -0.497  -1.257  0.00  0.00    +0.022 C 
ATOM     15  C   UNL     1       0.002  -0.004   0.002  0.00  0.00    +0.002 C 
ENDBRANCH   2  13
ENDBRANCH   1   6
BRANCH   1  16
ATOM     16  N   UNL     1       5.895  -5.130  -4.600  0.00  0.00    +0.386 N 
ATOM     17  C   UNL     1       4.794  -6.074  -4.373  0.00  0.00    -0.078 C 
ATOM     18  C   UNL     1       5.362  -7.455  -4.040  0.00  0.00    -0.018 C 
ATOM     19  C   UNL     1       6.223  -7.943  -5.209  0.00  0.00    +0.009 C 
ATOM     20  C   UNL     1       7.323  -6.914  -5.484  0.00  0.00    +0.058 C 
ATOM     21  C   UNL     1       6.683  -5.553  -5.764  0.00  0.00    -0.065 C 
ATOM     22  H   UNL     1       6.488  -5.107  -3.784  0.00  0.00    -0.081 HD
BRANCH  20  23
ATOM     23  C   UNL     1       8.130  -7.347  -6.681  0.00  0.00    +0.215 C 
ATOM     24  O   UNL     1       8.190  -6.635  -7.661  0.00  0.00    -0.276 OA
ATOM     25  N   UNL     1       8.784  -8.525  -6.662  0.00  0.00    -0.312 N 
ATOM     26  H   UNL     1       8.736  -9.094  -5.878  0.00  0.00    +0.149 HD
BRANCH  25  27
ATOM     27  C   UNL     1       9.569  -8.946  -7.826  0.00  0.00    +0.073 C 
ATOM     28  C   UNL     1       9.439 -10.402  -8.275  0.00  0.00    +0.024 C 
ATOM     29  C   UNL     1      10.719  -9.926  -7.585  0.00  0.00    +0.024 C 
ENDBRANCH  25  27
ENDBRANCH  20  23
ENDBRANCH   1  16
TORSDOF 5
