REMARK  Name = ZINC27577312
REMARK  5 active torsions:
REMARK  status: ('A' for Active; 'I' for Inactive)
REMARK    1  A    between atoms: C_4  and  C_7
REMARK    2  A    between atoms: C_7  and  N_8
REMARK    3  A    between atoms: N_8  and  C_9
REMARK    4  A    between atoms: C_9  and  C_10
REMARK    5  A    between atoms: C_17  and  N_22
REMARK                            x       y       z     vdW  Elec       q    Type
REMARK                         _______ _______ _______ _____ _____    ______ ____
ROOT
ATOM      1  C   UNL     1      -0.013   1.086   0.008  0.00  0.00    +0.234 C 
ATOM      2  O   UNL     1       1.324   1.556  -0.002  0.00  0.00    -0.349 OA
ATOM      3  C   UNL     1       2.143   1.044  -1.060  0.00  0.00    +0.198 C 
ATOM      4  C   UNL     1       1.933   1.911  -2.282  0.00  0.00    -0.016 A 
ATOM      5  C   UNL     1       2.953   2.707  -2.762  0.00  0.00    +0.008 A 
ATOM      6  C   UNL     1       2.740   3.493  -3.881  0.00  0.00    +0.033 A 
ATOM      7  C   UNL     1       1.511   3.479  -4.514  0.00  0.00    +0.127 A 
ATOM      8  C   UNL     1       0.490   2.679  -4.030  0.00  0.00    +0.039 A 
ATOM      9  C   UNL     1       0.706   1.897  -2.914  0.00  0.00    -0.014 A 
ATOM     10  C   UNL     1      -0.396   1.017  -2.367  0.00  0.00    +0.198 C 
ATOM     11  O   UNL     1      -0.789   1.533  -1.090  0.00  0.00    -0.349 OA
ENDROOT
BRANCH   7  12
ATOM     12  N   UNL     1       1.287   4.320  -5.711  0.00  0.00    +0.056 N 
ATOM     13  O   UNL     1       0.204   4.309  -6.269  0.00  0.00    -0.126 OA
ATOM     14  O   UNL     1       2.185   5.024  -6.137  0.00  0.00    -0.126 OA
ENDBRANCH   7  12
BRANCH   1  15
ATOM     15  C   UNL     1      -0.685   1.556   1.300  0.00  0.00    -0.020 C 
BRANCH  15  16
ATOM     16  N   UNL     1      -0.716   3.024   1.329  0.00  0.00    +0.385 N 
ATOM     17  H   UNL     1      -1.279   3.383   0.455  0.00  0.00    -0.085 HD
ATOM     18  H   UNL     1       0.317   3.400   1.279  0.00  0.00    -0.085 HD
BRANCH  16  19
ATOM     19  C   UNL     1      -1.355   3.512   2.558  0.00  0.00    -0.047 C 
BRANCH  19  23
ATOM     20  C   UNL     1      -1.394   7.784   2.544  0.00  0.00    +0.000 A 
ATOM     21  C   UNL     1      -2.451   7.081   1.997  0.00  0.00    +0.000 A 
ATOM     22  C   UNL     1      -2.439   5.699   2.001  0.00  0.00    +0.002 A 
ATOM     23  C   UNL     1      -1.369   5.019   2.553  0.00  0.00    -0.064 A 
ATOM     24  C   UNL     1      -0.314   5.722   3.105  0.00  0.00    +0.002 A 
ATOM     25  C   UNL     1      -0.324   7.104   3.096  0.00  0.00    +0.000 A 
ENDBRANCH  19  23
ENDBRANCH  16  19
ENDBRANCH  15  16
ENDBRANCH   1  15
TORSDOF 5
