REMARK  Name = ZINC18204219
REMARK  10 active torsions:
REMARK  status: ('A' for Active; 'I' for Inactive)
REMARK    1  A    between atoms: C_1  and  O_2
REMARK    2  A    between atoms: O_2  and  C_3
REMARK    3  A    between atoms: C_6  and  C_11
REMARK    4  A    between atoms: C_8  and  O_9
REMARK    5  A    between atoms: O_9  and  C_10
REMARK    6  A    between atoms: C_12  and  C_13
REMARK    7  A    between atoms: C_13  and  C_14
REMARK    8  A    between atoms: N_20  and  C_23
REMARK    9  A    between atoms: C_23  and  C_24
REMARK   10  A    between atoms: C_24  and  C_25
REMARK                            x       y       z     vdW  Elec       q    Type
REMARK                         _______ _______ _______ _____ _____    ______ ____
ROOT
ATOM      1  C   UNL     1      -8.631  -1.786   0.176  0.00  0.00    +0.150 A 
ATOM      2  C   UNL     1      -8.601  -0.319   0.175  0.00  0.00    +0.269 A 
ATOM      3  O   UNL     1      -7.547   0.281   0.071  0.00  0.00    -0.267 OA
ATOM      4  N   UNL     1      -9.767   0.351   0.289  0.00  0.00    -0.274 N 
ATOM      5  C   UNL     1     -10.931  -0.310   0.403  0.00  0.00    +0.332 A 
ATOM      6  O   UNL     1     -11.960   0.328   0.504  0.00  0.00    -0.246 OA
ATOM      7  N   UNL     1     -10.996  -1.651   0.408  0.00  0.00    -0.260 N 
ATOM      8  C   UNL     1      -9.872  -2.416   0.291  0.00  0.00    +0.271 A 
ATOM      9  O   UNL     1      -9.958  -3.759   0.293  0.00  0.00    -0.267 OA
ATOM     10  H   UNL     1      -9.764   1.321   0.290  0.00  0.00    +0.173 HD
ENDROOT
BRANCH   1  11
ATOM     11  C   UNL     1      -7.394  -2.567   0.055  0.00  0.00    +0.197 C 
ATOM     12  O   UNL     1      -7.448  -3.780  -0.054  0.00  0.00    -0.287 OA
BRANCH  11  14
ATOM     13  C   UNL     1      -4.957  -2.614   0.055  0.00  0.00    +0.012 C 
ATOM     14  C   UNL     1      -6.097  -1.890   0.064  0.00  0.00    +0.052 C 
BRANCH  13  18
ATOM     15  C   UNL     1      -1.197  -0.645   0.085  0.00  0.00    +0.162 A 
ATOM     16  C   UNL     1      -2.370   0.099   0.093  0.00  0.00    +0.050 A 
ATOM     17  C   UNL     1      -3.592  -0.536   0.083  0.00  0.00    +0.012 A 
ATOM     18  C   UNL     1      -3.654  -1.934   0.065  0.00  0.00    -0.021 A 
ATOM     19  C   UNL     1      -2.472  -2.683   0.056  0.00  0.00    +0.057 A 
ATOM     20  C   UNL     1      -1.250  -2.038   0.061  0.00  0.00    +0.162 A 
BRANCH  15  22
ATOM     21  C   UNL     1      -0.013   1.415   0.118  0.00  0.00    +0.277 C 
ATOM     22  O   UNL     1       0.005  -0.013   0.094  0.00  0.00    -0.491 OA
ENDBRANCH  15  22
BRANCH  20  23
ATOM     23  O   UNL     1      -0.100  -2.762   0.048  0.00  0.00    -0.491 OA
ATOM     24  C   UNL     1      -0.229  -4.185   0.023  0.00  0.00    +0.277 C 
ENDBRANCH  20  23
ENDBRANCH  13  18
ENDBRANCH  11  14
ENDBRANCH   1  11
BRANCH   7  25
ATOM     25  C   UNL     1     -12.300  -2.305   0.536  0.00  0.00    +0.134 C 
BRANCH  25  26
ATOM     26  C   UNL     1     -12.896  -2.532  -0.856  0.00  0.00    +0.052 C 
BRANCH  26  27
ATOM     27  C   UNL     1     -14.238  -3.205  -0.724  0.00  0.00    -0.072 C 
ATOM     28  C   UNL     1     -15.294  -2.457  -0.725  0.00  0.00    -0.028 C 
ATOM     29  C   UNL     1     -16.694  -2.981  -0.592  0.00  0.00    +0.027 C 
ATOM     30  C   UNL     1     -16.726  -4.483  -0.883  0.00  0.00    +0.004 C 
ATOM     31  C   UNL     1     -15.621  -5.159  -0.060  0.00  0.00    +0.005 C 
ATOM     32  C   UNL     1     -14.266  -4.701  -0.607  0.00  0.00    +0.030 C 
ENDBRANCH  26  27
ENDBRANCH  25  26
ENDBRANCH   7  25
TORSDOF 8
