REMARK  Name = ZINC38966515
REMARK  7 active torsions:
REMARK  status: ('A' for Active; 'I' for Inactive)
REMARK    1  A    between atoms: C_1  and  C_2
REMARK    2  A    between atoms: C_4  and  C_8
REMARK    3  A    between atoms: C_12  and  S_25
REMARK    4  A    between atoms: N_14  and  N_15
REMARK    5  A    between atoms: C_16  and  C_17
REMARK    6  A    between atoms: C_20  and  O_23
REMARK    7  A    between atoms: O_23  and  C_24
REMARK                            x       y       z     vdW  Elec       q    Type
REMARK                         _______ _______ _______ _____ _____    ______ ____
ROOT
ATOM      1  C   UNL     1      -0.964  -2.951   1.248  0.00  0.00    +0.206 C 
ATOM      2  N   UNL     1      -0.424  -2.286   2.455  0.00  0.00    -0.231 NA
ATOM      3  N   UNL     1      -0.073  -3.394   3.357  0.00  0.00    -0.225 NA
ATOM      4  C   UNL     1       0.456  -4.426   2.427  0.00  0.00    +0.231 C 
ATOM      5  N   UNL     1      -0.404  -4.313   1.230  0.00  0.00    -0.207 N 
ATOM      6  H   UNL     1      -1.115  -1.683   2.876  0.00  0.00    +0.143 HD
ATOM      7  H   UNL     1      -0.887  -3.733   3.848  0.00  0.00    +0.143 HD
ENDROOT
BRANCH   1  11
ATOM      8  C   UNL     1      -0.018   1.503   0.010  0.00  0.00    +0.067 C 
ATOM      9  C   UNL     1       0.002  -0.004   0.002  0.00  0.00    +0.058 C 
ATOM     10  C   UNL     1      -1.086  -0.777   0.003  0.00  0.00    +0.029 C 
ATOM     11  C   UNL     1      -0.531  -2.190  -0.007  0.00  0.00    +0.190 C 
ATOM     12  N   UNL     1       0.926  -1.973  -0.013  0.00  0.00    -0.177 NA
ATOM     13  N   UNL     1       1.125  -0.756  -0.013  0.00  0.00    -0.159 NA
ENDBRANCH   1  11
BRANCH   5  14
ATOM     14  N   UNL     1      -0.640  -5.305   0.269  0.00  0.00    -0.188 NA
ATOM     15  C   UNL     1      -0.074  -6.467   0.384  0.00  0.00    +0.138 C 
BRANCH  15  16
ATOM     16  C   UNL     1      -0.323  -7.511  -0.628  0.00  0.00    -0.005 A 
ATOM     17  C   UNL     1      -1.162  -7.249  -1.714  0.00  0.00    +0.013 A 
ATOM     18  C   UNL     1      -1.391  -8.227  -2.657  0.00  0.00    +0.046 A 
ATOM     19  C   UNL     1      -0.789  -9.472  -2.529  0.00  0.00    +0.120 A 
ATOM     20  C   UNL     1       0.045  -9.737  -1.452  0.00  0.00    +0.046 A 
ATOM     21  C   UNL     1       0.285  -8.763  -0.506  0.00  0.00    +0.013 A 
BRANCH  19  22
ATOM     22  O   UNL     1      -1.019 -10.434  -3.461  0.00  0.00    -0.495 OA
ATOM     23  C   UNL     1      -0.368 -11.692  -3.269  0.00  0.00    +0.277 C 
ENDBRANCH  19  22
ENDBRANCH  15  16
ENDBRANCH   5  14
BRANCH   4  24
ATOM     24  S   UNL     1       2.185  -4.075   2.006  0.00  0.00    -0.138 S 
ATOM     25  H   UNL     1       2.826  -4.133   3.188  0.00  0.00    +0.105 HD
ENDBRANCH   4  24
TORSDOF 5
