REMARK  Name = ZINC20281586
REMARK  5 active torsions:
REMARK  status: ('A' for Active; 'I' for Inactive)
REMARK    1  A    between atoms: C_5  and  S_7
REMARK    2  A    between atoms: S_7  and  N_10
REMARK    3  A    between atoms: N_10  and  C_11
REMARK    4  A    between atoms: C_11  and  C_12
REMARK    5  A    between atoms: C_15  and  C_18
REMARK                            x       y       z     vdW  Elec       q    Type
REMARK                         _______ _______ _______ _____ _____    ______ ____
ROOT
ATOM      1  C   UNL     1      -3.335  -2.210  -3.726  0.00  0.00    +0.109 C 
ENDROOT
BRANCH   1   2
ATOM      2  C   UNL     1      -2.595  -2.717  -2.486  0.00  0.00    +0.005 C 
ATOM      3  C   UNL     1      -3.311  -2.223  -1.228  0.00  0.00    +0.005 C 
ATOM      4  C   UNL     1      -2.571  -2.730   0.012  0.00  0.00    +0.013 C 
ATOM      5  C   UNL     1      -1.135  -2.201   0.001  0.00  0.00    +0.075 C 
ATOM      6  C   UNL     1      -0.419  -2.694  -1.258  0.00  0.00    +0.013 C 
ATOM      7  C   UNL     1      -1.159  -2.187  -2.497  0.00  0.00    +0.005 C 
BRANCH   5   8
ATOM      8  C   UNL     1      -1.156  -0.694   0.009  0.00  0.00    +0.222 C 
ATOM      9  O   UNL     1      -2.214  -0.102   0.023  0.00  0.00    -0.275 OA
ATOM     10  N   UNL     1       0.002  -0.004   0.002  0.00  0.00    -0.264 N 
ATOM     11  C   UNL     1      -0.017   1.386   0.010  0.00  0.00    +0.164 A 
ATOM     12  N   UNL     1       0.998   2.228   0.004  0.00  0.00    -0.233 NA
ATOM     13  C   UNL     1       0.803   3.532   0.013  0.00  0.00    +0.120 A 
ATOM     14  C   UNL     1      -0.471   3.995   0.027  0.00  0.00    +0.068 A 
ATOM     15  S   UNL     1      -1.382   2.458   0.021  0.00  0.00    -0.061 S 
ATOM     16  H   UNL     1       0.962  -0.541  -0.010  0.00  0.00    +0.157 HD
ENDBRANCH   5   8
ENDBRANCH   1   2
BRANCH   1  17
ATOM     17  N   UNL     1      -2.721  -2.779  -4.928  0.00  0.00    -0.190 NA
ATOM     18  H   UNL     1      -1.669  -3.100  -4.909  0.00  0.00    +0.148 HD
BRANCH  17  19
ATOM     19  S   UNL     1      -3.520  -2.714  -6.377  0.00  0.00    +0.061 S 
ATOM     20  O   UNL     1      -2.666  -3.316  -7.340  0.00  0.00    -0.153 OA
ATOM     21  O   UNL     1      -4.841  -3.179  -6.133  0.00  0.00    -0.153 OA
BRANCH  19  26
ATOM     22  C   UNL     1      -3.110   0.792  -8.300  0.00  0.00    +0.004 A 
ATOM     23  C   UNL     1      -3.835   1.686  -7.585  0.00  0.00    +0.031 A 
ATOM     24  C   UNL     1      -4.529   1.267  -6.420  0.00  0.00    +0.102 A 
ATOM     25  C   UNL     1      -4.442  -0.136  -6.025  0.00  0.00    +0.126 A 
ATOM     26  C   UNL     1      -3.659  -1.014  -6.819  0.00  0.00    +0.133 A 
ATOM     27  C   UNL     1      -3.022  -0.547  -7.920  0.00  0.00    +0.031 A 
ATOM     28  N   UNL     1      -5.135  -0.387  -4.916  0.00  0.00    -0.189 NA
ATOM     29  S   UNL     1      -5.785   0.973  -4.489  0.00  0.00    +0.117 S 
ATOM     30  N   UNL     1      -5.289   1.975  -5.587  0.00  0.00    -0.191 NA
ENDBRANCH  19  26
ENDBRANCH  17  19
ENDBRANCH   1  17
TORSDOF 5
