REMARK  Name = ZINC26949989
REMARK  5 active torsions:
REMARK  status: ('A' for Active; 'I' for Inactive)
REMARK    1  A    between atoms: C_1  and  C_2
REMARK    2  A    between atoms: N_8  and  N_9
REMARK    3  A    between atoms: N_16  and  C_17
REMARK    4  A    between atoms: C_17  and  C_19
REMARK    5  A    between atoms: C_17  and  O_23
REMARK                            x       y       z     vdW  Elec       q    Type
REMARK                         _______ _______ _______ _____ _____    ______ ____
ROOT
ATOM      1  C   UNL     1       2.499  -2.709  -0.036  0.00  0.00    +0.088 C 
ATOM      2  C   UNL     1       1.182  -1.976  -0.020  0.00  0.00    +0.133 A 
ATOM      3  N   UNL     1       0.049  -2.657  -0.013  0.00  0.00    -0.200 NA
ATOM      4  C   UNL     1      -1.116  -2.013   0.002  0.00  0.00    +0.222 A 
ATOM      5  N   UNL     1      -1.139  -0.685   0.009  0.00  0.00    -0.180 NA
ATOM      6  C   UNL     1       0.002  -0.004   0.002  0.00  0.00    +0.237 A 
ATOM      7  N   UNL     1       1.163  -0.655  -0.018  0.00  0.00    -0.199 NA
ATOM      8  N   UNL     1      -0.017   1.376   0.010  0.00  0.00    -0.225 N 
ATOM      9  N   UNL     1      -2.298  -2.725   0.010  0.00  0.00    -0.285 N 
ATOM     10  H   UNL     1      -0.977   1.913   0.022  0.00  0.00    +0.174 HD
ATOM     11  H   UNL     1      -3.260  -2.192   0.022  0.00  0.00    +0.151 HD
ENDROOT
BRANCH   8  12
ATOM     12  N   UNL     1       1.187   2.093   0.002  0.00  0.00    -0.192 N 
ATOM     13  C   UNL     1       1.575   2.694  -1.144  0.00  0.00    +0.122 C 
ATOM     14  N   UNL     1       0.879   2.632  -2.230  0.00  0.00    -0.287 NA
ATOM     15  C   UNL     1       2.893   3.449  -1.060  0.00  0.00    +0.149 C 
ATOM     16  S   UNL     1       3.331   3.140   0.697  0.00  0.00    -0.093 S 
ATOM     17  C   UNL     1       1.905   2.159   1.137  0.00  0.00    +0.132 C 
ATOM     18  S   UNL     1       1.539   1.459   2.656  0.00  0.00    -0.026 S 
ATOM     19  H   UNL     1      -0.069   2.075  -2.245  0.00  0.00    +0.188 HD
ENDBRANCH   8  12
BRANCH   9  20
ATOM     20  C   UNL     1      -2.271  -4.189   0.002  0.00  0.00    +0.254 C 
BRANCH  20  21
ATOM     21  C   UNL     1      -3.376  -4.715  -0.917  0.00  0.00    +0.232 C 
ATOM     22 CL   UNL     1      -4.978  -4.146  -0.317  0.00  0.00    -0.079 Cl
ATOM     23 CL   UNL     1      -3.108  -4.099  -2.591  0.00  0.00    -0.079 Cl
ATOM     24 CL   UNL     1      -3.343  -6.517  -0.927  0.00  0.00    -0.079 Cl
ENDBRANCH  20  21
BRANCH  20  25
ATOM     25  O   UNL     1      -2.483  -4.677   1.328  0.00  0.00    -0.370 OA
ATOM     26  H   UNL     1      -2.497  -5.760   1.520  0.00  0.00    +0.212 HD
ENDBRANCH  20  25
ENDBRANCH   9  20
TORSDOF 4
