REMARK  Name = ZINC24521799
REMARK  8 active torsions:
REMARK  status: ('A' for Active; 'I' for Inactive)
REMARK    1  A    between atoms: C_1  and  C_2
REMARK    2  A    between atoms: C_2  and  C_24
REMARK    3  A    between atoms: N_3  and  N_4
REMARK    4  A    between atoms: C_9  and  C_12
REMARK    5  A    between atoms: C_12  and  C_13
REMARK    6  A    between atoms: N_15  and  C_16
REMARK    7  A    between atoms: C_19  and  O_22
REMARK    8  A    between atoms: O_22  and  C_23
REMARK                            x       y       z     vdW  Elec       q    Type
REMARK                         _______ _______ _______ _____ _____    ______ ____
ROOT
ATOM      1  N   UNL     1      -2.789  -0.098   0.689  0.00  0.00    -0.126 NA
ATOM      2  C   UNL     1      -3.888  -0.758   0.389  0.00  0.00    +0.183 C 
ATOM      3  N   UNL     1      -4.038  -2.114   0.189  0.00  0.00    -0.263 N 
ATOM      4  C   UNL     1      -5.205  -2.661  -0.105  0.00  0.00    +0.233 C 
ATOM      5  O   UNL     1      -5.333  -3.855  -0.276  0.00  0.00    -0.274 OA
ATOM      6  C   UNL     1      -6.376  -1.698  -0.224  0.00  0.00    +0.149 C 
ATOM      7  S   UNL     1      -5.532  -0.108   0.137  0.00  0.00    -0.075 S 
ATOM      8  H   UNL     1      -3.168  -2.782   0.272  0.00  0.00    +0.157 HD
ENDROOT
BRANCH   1  11
ATOM      9  C   UNL     1      -1.750   3.345   1.170  0.00  0.00    +0.068 C 
ATOM     10  C   UNL     1      -1.738   1.839   1.134  0.00  0.00    +0.068 C 
ATOM     11  N   UNL     1      -2.827   1.183   0.837  0.00  0.00    -0.152 NA
BRANCH  10  12
ATOM     12  C   UNL     1      -0.497   1.106   1.435  0.00  0.00    -0.002 A 
ATOM     13  C   UNL     1      -0.553  -0.142   2.065  0.00  0.00    +0.011 A 
ATOM     14  C   UNL     1       0.613  -0.820   2.349  0.00  0.00    +0.020 A 
ATOM     15  C   UNL     1       1.838  -0.269   2.012  0.00  0.00    +0.041 A 
ATOM     16  C   UNL     1       1.901   0.967   1.389  0.00  0.00    +0.020 A 
ATOM     17  C   UNL     1       0.743   1.657   1.098  0.00  0.00    +0.011 A 
ATOM     18 CL   UNL     1       3.301  -1.130   2.373  0.00  0.00    -0.084 Cl
ENDBRANCH  10  12
ENDBRANCH   1  11
BRANCH   6  19
ATOM     19  C   UNL     1      -6.960  -1.707  -1.638  0.00  0.00    +0.120 C 
BRANCH  19  20
ATOM     20  C   UNL     1      -8.074  -0.696  -1.728  0.00  0.00    +0.219 C 
ATOM     21  O   UNL     1      -8.371  -0.033  -0.756  0.00  0.00    -0.275 OA
ATOM     22  N   UNL     1      -8.740  -0.528  -2.887  0.00  0.00    -0.285 N 
ATOM     23  H   UNL     1      -8.528  -1.185  -3.743  0.00  0.00    +0.155 HD
BRANCH  22  24
ATOM     24  C   UNL     1      -9.701   0.485  -3.002  0.00  0.00    +0.034 A 
ATOM     25  C   UNL     1     -10.825   0.289  -3.794  0.00  0.00    +0.027 A 
ATOM     26  C   UNL     1     -11.775   1.285  -3.903  0.00  0.00    +0.047 A 
ATOM     27  C   UNL     1     -11.601   2.486  -3.231  0.00  0.00    +0.120 A 
ATOM     28  C   UNL     1     -10.476   2.685  -2.444  0.00  0.00    +0.047 A 
ATOM     29  C   UNL     1      -9.528   1.687  -2.330  0.00  0.00    +0.027 A 
BRANCH  27  30
ATOM     30  O   UNL     1     -12.534   3.469  -3.343  0.00  0.00    -0.495 OA
ATOM     31  C   UNL     1     -13.668   3.196  -4.169  0.00  0.00    +0.277 C 
ENDBRANCH  27  30
ENDBRANCH  22  24
ENDBRANCH  19  20
ENDBRANCH   6  19
TORSDOF 6
