REMARK  Name = ZINC01090099
REMARK  6 active torsions:
REMARK  status: ('A' for Active; 'I' for Inactive)
REMARK    1  A    between atoms: C_4  and  O_29
REMARK    2  A    between atoms: C_5  and  C_7
REMARK    3  A    between atoms: N_9  and  N_10
REMARK    4  A    between atoms: C_11  and  C_13
REMARK    5  A    between atoms: C_13  and  N_14
REMARK    6  A    between atoms: C_18  and  C_19
REMARK                            x       y       z     vdW  Elec       q    Type
REMARK                         _______ _______ _______ _____ _____    ______ ____
ROOT
ATOM      1  N   UNL     1       1.104  -6.429  -0.093  0.00  0.00    -0.233 N 
ATOM      2  C   UNL     1      -0.195  -6.787  -0.083  0.00  0.00    +0.247 C 
ATOM      3  O   UNL     1      -1.050  -5.976  -0.369  0.00  0.00    -0.273 OA
ATOM      4  H   UNL     1       1.788  -7.078   0.136  0.00  0.00    +0.173 HD
ENDROOT
BRANCH   1   7
ATOM      5  C   UNL     1       2.767  -4.762  -0.444  0.00  0.00    +0.264 C 
ATOM      6  O   UNL     1       3.624  -5.575  -0.157  0.00  0.00    -0.269 OA
ATOM      7  N   UNL     1       1.467  -5.120  -0.434  0.00  0.00    -0.230 N 
ATOM      8  H   UNL     1       0.784  -4.471  -0.663  0.00  0.00    +0.173 HD
BRANCH   5  13
ATOM      9  C   UNL     1       2.531  -1.159  -1.470  0.00  0.00    +0.001 A 
ATOM     10  C   UNL     1       3.867  -0.791  -1.480  0.00  0.00    +0.004 A 
ATOM     11  C   UNL     1       4.847  -1.707  -1.155  0.00  0.00    +0.046 A 
ATOM     12  C   UNL     1       4.499  -3.006  -0.815  0.00  0.00    +0.129 A 
ATOM     13  C   UNL     1       3.149  -3.383  -0.803  0.00  0.00    +0.079 A 
ATOM     14  C   UNL     1       2.167  -2.445  -1.134  0.00  0.00    +0.017 A 
BRANCH  12  15
ATOM     15  O   UNL     1       5.461  -3.908  -0.496  0.00  0.00    -0.506 OA
ATOM     16  H   UNL     1       5.681  -3.932   0.445  0.00  0.00    +0.292 HD
ENDBRANCH  12  15
ENDBRANCH   5  13
ENDBRANCH   1   7
BRANCH   2  17
ATOM     17  C   UNL     1      -0.586  -8.196   0.284  0.00  0.00    +0.214 C 
BRANCH  17  18
ATOM     18  N   UNL     1      -2.043  -8.331   0.221  0.00  0.00    -0.219 N 
ATOM     19  C   UNL     1      -2.763  -8.075   1.301  0.00  0.00    +0.261 C 
ATOM     20  O   UNL     1      -2.246  -7.730   2.347  0.00  0.00    -0.269 OA
ATOM     21  C   UNL     1      -4.227  -8.230   1.171  0.00  0.00    +0.080 C 
ATOM     22  C   UNL     1      -5.202  -8.039   2.095  0.00  0.00    +0.028 C 
ATOM     23  S   UNL     1      -4.360  -8.736  -0.538  0.00  0.00    -0.026 S 
ATOM     24  C   UNL     1      -2.620  -8.707  -0.938  0.00  0.00    +0.286 C 
ATOM     25  O   UNL     1      -2.085  -8.966  -1.999  0.00  0.00    -0.262 OA
BRANCH  22  26
ATOM     26  C   UNL     1      -6.585  -8.438   1.797  0.00  0.00    -0.024 A 
ATOM     27  C   UNL     1      -6.870  -9.180   0.645  0.00  0.00    +0.009 A 
ATOM     28  C   UNL     1      -8.169  -9.550   0.372  0.00  0.00    +0.020 A 
ATOM     29  C   UNL     1      -9.192  -9.188   1.234  0.00  0.00    +0.041 A 
ATOM     30  C   UNL     1      -8.917  -8.453   2.376  0.00  0.00    +0.020 A 
ATOM     31  C   UNL     1      -7.622  -8.081   2.666  0.00  0.00    +0.009 A 
ATOM     32 CL   UNL     1     -10.825  -9.658   0.882  0.00  0.00    -0.084 Cl
ENDBRANCH  22  26
ENDBRANCH  17  18
ENDBRANCH   2  17
TORSDOF 6
