REMARK  Name = ZINC66697798
REMARK  12 active torsions:
REMARK  status: ('A' for Active; 'I' for Inactive)
REMARK    1  A    between atoms: C_1  and  C_2
REMARK    2  A    between atoms: C_5  and  C_7
REMARK    3  A    between atoms: C_7  and  C_9
REMARK    4  A    between atoms: C_7  and  N_10
REMARK    5  A    between atoms: C_16  and  C_19
REMARK    6  A    between atoms: C_16  and  N_20
REMARK    7  A    between atoms: N_20  and  C_21
REMARK    8  A    between atoms: C_22  and  O_24
REMARK    9  A    between atoms: O_24  and  C_25
REMARK   10  A    between atoms: C_25  and  C_26
REMARK   11  A    between atoms: C_25  and  C_27
REMARK   12  A    between atoms: C_25  and  C_28
REMARK                            x       y       z     vdW  Elec       q    Type
REMARK                         _______ _______ _______ _____ _____    ______ ____
ROOT
ATOM      1  N   UNL     1       3.486  -4.898  -0.606  0.00  0.00    -0.290 N 
ATOM      2  C   UNL     1       3.955  -3.663  -0.878  0.00  0.00    +0.303 C 
ATOM      3  O   UNL     1       3.501  -2.698  -0.294  0.00  0.00    -0.253 OA
ATOM      4  N   UNL     1       4.926  -3.499  -1.798  0.00  0.00    -0.285 N 
ATOM      5  C   UNL     1       5.529  -2.178  -2.022  0.00  0.00    +0.111 C 
ATOM      6  C   UNL     1       7.051  -2.302  -1.890  0.00  0.00    +0.045 C 
ATOM      7  C   UNL     1       7.554  -3.392  -2.840  0.00  0.00    +0.040 C 
ATOM      8  C   UNL     1       6.925  -4.734  -2.457  0.00  0.00    +0.045 C 
ATOM      9  C   UNL     1       5.407  -4.639  -2.591  0.00  0.00    +0.111 C 
ATOM     10  C   UNL     1       9.077  -3.494  -2.736  0.00  0.00    +0.032 C 
ATOM     11  H   UNL     1       3.794  -5.658  -1.123  0.00  0.00    +0.151 HD
ENDROOT
BRANCH   7  12
ATOM     12  N   UNL     1       7.180  -3.052  -4.215  0.00  0.00    -0.265 N 
ATOM     13  C   UNL     1       6.504  -4.043  -5.056  0.00  0.00    +0.136 C 
ATOM     14  C   UNL     1       7.458  -1.828  -4.706  0.00  0.00    +0.404 C 
ATOM     15  O   UNL     1       8.020  -1.007  -4.008  0.00  0.00    -0.226 OA
BRANCH  14  16
ATOM     16  O   UNL     1       7.115  -1.516  -5.970  0.00  0.00    -0.445 OA
BRANCH  16  17
ATOM     17  C   UNL     1       7.441  -0.201  -6.425  0.00  0.00    +0.107 C 
ATOM     18  C   UNL     1       8.955   0.004  -6.347  0.00  0.00    +0.055 C 
ATOM     19  C   UNL     1       6.976  -0.033  -7.873  0.00  0.00    +0.055 C 
ATOM     20  C   UNL     1       6.740   0.832  -5.541  0.00  0.00    +0.055 C 
ENDBRANCH  16  17
ENDBRANCH  14  16
ENDBRANCH   7  12
BRANCH   1  21
ATOM     21  C   UNL     1       2.514  -5.090   0.472  0.00  0.00    +0.137 C 
ATOM     22  C   UNL     1       1.103  -4.832  -0.061  0.00  0.00    +0.036 C 
BRANCH  21  27
ATOM     23  C   UNL     1       2.993 -10.111   0.563  0.00  0.00    +0.086 C 
ATOM     24  C   UNL     1       2.814  -8.687   1.025  0.00  0.00    +0.102 A 
ATOM     25  C   UNL     1       2.661  -8.287   2.300  0.00  0.00    +0.045 A 
ATOM     26  C   UNL     1       2.527  -6.880   2.275  0.00  0.00    +0.047 A 
ATOM     27  C   UNL     1       2.606  -6.504   0.986  0.00  0.00    +0.125 A 
ATOM     28  O   UNL     1       2.785  -7.603   0.234  0.00  0.00    -0.463 OA
ENDBRANCH  21  27
ENDBRANCH   1  21
TORSDOF 5
