REMARK  Name = ZINC21473088
REMARK  9 active torsions:
REMARK  status: ('A' for Active; 'I' for Inactive)
REMARK    1  A    between atoms: C_1  and  C_2
REMARK    2  A    between atoms: C_2  and  C_3
REMARK    3  A    between atoms: C_5  and  C_28
REMARK    4  A    between atoms: C_6  and  C_11
REMARK    5  A    between atoms: C_11  and  N_12
REMARK    6  A    between atoms: C_16  and  C_18
REMARK    7  A    between atoms: C_28  and  O_30
REMARK    8  A    between atoms: O_30  and  C_31
REMARK    9  A    between atoms: C_31  and  C_32
REMARK                            x       y       z     vdW  Elec       q    Type
REMARK                         _______ _______ _______ _____ _____    ______ ____
ROOT
ATOM      1  C   UNL     1      -2.445   0.800   0.547  0.00  0.00    -0.026 C 
ENDROOT
BRANCH   1   4
ATOM      2  C   UNL     1       1.224   1.961   0.311  0.00  0.00    +0.113 C 
ATOM      3  C   UNL     1       0.004   1.114   0.610  0.00  0.00    +0.072 C 
ATOM      4  C   UNL     1      -1.205   1.608   0.264  0.00  0.00    +0.007 C 
ATOM      5  N   UNL     1      -1.320   2.826  -0.343  0.00  0.00    -0.274 N 
ATOM      6  C   UNL     1      -0.277   3.615  -0.629  0.00  0.00    +0.304 C 
ATOM      7  O   UNL     1      -0.480   4.686  -1.168  0.00  0.00    -0.253 OA
ATOM      8  N   UNL     1       0.991   3.261  -0.341  0.00  0.00    -0.292 N 
ATOM      9  H   UNL     1      -2.313   3.208  -0.625  0.00  0.00    +0.156 HD
ATOM     10  H   UNL     1       1.841   3.916  -0.580  0.00  0.00    +0.151 HD
BRANCH   2  12
ATOM     11  C   UNL     1       3.522   1.830  -0.661  0.00  0.00    +0.006 C 
ATOM     12  C   UNL     1       2.156   1.144  -0.585  0.00  0.00    +0.024 C 
ENDBRANCH   2  12
BRANCH   3  13
ATOM     13  C   UNL     1       0.125  -0.150   1.234  0.00  0.00    +0.338 C 
ATOM     14  O   UNL     1      -0.852  -0.863   1.361  0.00  0.00    -0.245 OA
BRANCH  13  15
ATOM     15  O   UNL     1       1.326  -0.564   1.690  0.00  0.00    -0.462 OA
BRANCH  15  16
ATOM     16  C   UNL     1       1.376  -1.851   2.310  0.00  0.00    +0.229 C 
ATOM     17  C   UNL     1       2.808  -2.145   2.759  0.00  0.00    +0.048 C 
ENDBRANCH  15  16
ENDBRANCH  13  15
ENDBRANCH   3  13
ENDBRANCH   1   4
BRANCH   1  18
ATOM     18  N   UNL     1      -2.738  -0.066  -0.602  0.00  0.00    +0.388 N 
ATOM     19  C   UNL     1      -3.300   0.719  -1.731  0.00  0.00    -0.078 C 
ATOM     20  C   UNL     1      -4.036  -0.323  -2.601  0.00  0.00    -0.020 C 
ATOM     21  C   UNL     1      -4.368  -1.484  -1.641  0.00  0.00    -0.013 C 
ATOM     22  C   UNL     1      -3.804  -1.046  -0.272  0.00  0.00    -0.037 C 
ATOM     23  H   UNL     1      -1.781  -0.547  -0.853  0.00  0.00    -0.080 HD
BRANCH  22  24
ATOM     24  C   UNL     1      -3.223  -2.229   0.460  0.00  0.00    -0.057 A 
ATOM     25  C   UNL     1      -2.006  -2.753   0.068  0.00  0.00    +0.006 A 
ATOM     26  C   UNL     1      -1.468  -3.835   0.739  0.00  0.00    +0.049 A 
ATOM     27  C   UNL     1      -2.154  -4.404   1.801  0.00  0.00    +0.162 A 
ATOM     28  C   UNL     1      -3.379  -3.880   2.193  0.00  0.00    +0.162 A 
ATOM     29  C   UNL     1      -3.912  -2.791   1.518  0.00  0.00    +0.051 A 
ATOM     30  O   UNL     1      -4.065  -4.418   3.239  0.00  0.00    -0.485 OA
ATOM     31  C   UNL     1      -3.681  -5.734   3.651  0.00  0.00    +0.270 C 
ATOM     32  C   UNL     1      -2.150  -5.783   3.738  0.00  0.00    +0.270 C 
ATOM     33  O   UNL     1      -1.617  -5.477   2.445  0.00  0.00    -0.485 OA
ENDBRANCH  22  24
ENDBRANCH   1  18
TORSDOF 7
