REMARK  Name = ZINC35405774
REMARK  9 active torsions:
REMARK  status: ('A' for Active; 'I' for Inactive)
REMARK    1  A    between atoms: C_1  and  C_2
REMARK    2  A    between atoms: C_7  and  C_8
REMARK    3  A    between atoms: C_18  and  C_20
REMARK    4  A    between atoms: C_20  and  N_21
REMARK    5  A    between atoms: N_21  and  C_22
REMARK    6  A    between atoms: N_21  and  S_25
REMARK    7  A    between atoms: C_22  and  C_23
REMARK    8  A    between atoms: C_22  and  C_24
REMARK    9  A    between atoms: S_25  and  C_28
REMARK                            x       y       z     vdW  Elec       q    Type
REMARK                         _______ _______ _______ _____ _____    ______ ____
ROOT
ATOM      1  C   UNL     1       0.293   1.222   4.059  0.00  0.00    +0.138 C 
ATOM      2  C   UNL     1      -0.655   1.799   5.109  0.00  0.00    -0.012 A 
ATOM      3  C   UNL     1      -1.421   2.944   4.898  0.00  0.00    +0.013 A 
ATOM      4  C   UNL     1      -2.244   3.396   5.872  0.00  0.00    +0.046 A 
ATOM      5  S   UNL     1      -1.971   2.199   7.169  0.00  0.00    -0.101 S 
ATOM      6  C   UNL     1      -0.784   1.192   6.320  0.00  0.00    -0.003 A 
ATOM      7  C   UNL     1      -0.084  -0.033   6.812  0.00  0.00    +0.062 C 
ATOM      8  C   UNL     1       0.526  -0.769   5.609  0.00  0.00    +0.114 C 
ATOM      9  N   UNL     1       1.147   0.227   4.723  0.00  0.00    -0.289 N 
ATOM     10  C   UNL     1       2.480   0.229   4.523  0.00  0.00    +0.232 C 
ATOM     11  O   UNL     1       2.999   1.130   3.898  0.00  0.00    -0.274 OA
ENDROOT
BRANCH   1  18
ATOM     12  C   UNL     1      -0.839   2.819   1.935  0.00  0.00    +0.044 C 
ATOM     13  C   UNL     1      -1.042   1.326   1.945  0.00  0.00    -0.045 A 
ATOM     14  C   UNL     1      -1.766   0.719   0.935  0.00  0.00    +0.004 A 
ATOM     15  C   UNL     1      -1.952  -0.650   0.945  0.00  0.00    +0.000 A 
ATOM     16  C   UNL     1      -1.415  -1.414   1.965  0.00  0.00    +0.000 A 
ATOM     17  C   UNL     1      -0.691  -0.808   2.974  0.00  0.00    +0.006 A 
ATOM     18  C   UNL     1      -0.500   0.562   2.962  0.00  0.00    -0.020 A 
ENDBRANCH   1  18
BRANCH  10  19
ATOM     19  C   UNL     1       3.326  -0.889   5.076  0.00  0.00    +0.205 C 
BRANCH  19  20
ATOM     20  N   UNL     1       4.743  -0.542   4.940  0.00  0.00    -0.165 NA
BRANCH  20  21
ATOM     21  C   UNL     1       5.371   0.367   5.902  0.00  0.00    +0.074 C 
ATOM     22  C   UNL     1       4.655   1.719   5.868  0.00  0.00    +0.025 C 
ATOM     23  C   UNL     1       5.270  -0.228   7.307  0.00  0.00    +0.025 C 
ENDBRANCH  20  21
BRANCH  20  24
ATOM     24  S   UNL     1       5.636  -1.178   3.698  0.00  0.00    +0.064 S 
ATOM     25  O   UNL     1       6.969  -1.295   4.175  0.00  0.00    -0.153 OA
ATOM     26  O   UNL     1       4.904  -2.290   3.200  0.00  0.00    -0.153 OA
BRANCH  24  27
ATOM     27  C   UNL     1       5.665   0.023   2.409  0.00  0.00    +0.131 A 
ATOM     28  C   UNL     1       6.803   0.725   2.156  0.00  0.00    +0.031 A 
ATOM     29  C   UNL     1       6.848   1.679   1.141  0.00  0.00    +0.003 A 
ATOM     30  C   UNL     1       5.753   1.936   0.374  0.00  0.00    +0.010 A 
ATOM     31  C   UNL     1       4.562   1.230   0.607  0.00  0.00    +0.002 A 
ATOM     32  C   UNL     1       4.515   0.255   1.635  0.00  0.00    +0.097 A 
ATOM     33  N   UNL     1       3.385  -0.423   1.858  0.00  0.00    -0.253 NA
ATOM     34  C   UNL     1       2.309  -0.210   1.139  0.00  0.00    +0.111 A 
ATOM     35  C   UNL     1       2.289   0.730   0.111  0.00  0.00    +0.020 A 
ATOM     36  C   UNL     1       3.407   1.466  -0.163  0.00  0.00    +0.011 A 
ENDBRANCH  24  27
ENDBRANCH  20  24
ENDBRANCH  19  20
ENDBRANCH  10  19
TORSDOF 6
