REMARK  Name = ZINC04288965
REMARK  7 active torsions:
REMARK  status: ('A' for Active; 'I' for Inactive)
REMARK    1  A    between atoms: C_1  and  C_2
REMARK    2  A    between atoms: C_4  and  C_27
REMARK    3  A    between atoms: C_5  and  N_9
REMARK    4  A    between atoms: C_10  and  C_12
REMARK    5  A    between atoms: C_12  and  N_13
REMARK    6  A    between atoms: C_16  and  C_20
REMARK    7  A    between atoms: C_16  and  C_21
REMARK                            x       y       z     vdW  Elec       q    Type
REMARK                         _______ _______ _______ _____ _____    ______ ____
ROOT
ATOM      1  N   UNL     1       2.692   0.882  -2.503  0.00  0.00    -0.215 N 
ATOM      2  C   UNL     1       3.278   2.028  -2.903  0.00  0.00    +0.251 C 
ATOM      3  O   UNL     1       3.446   3.033  -2.246  0.00  0.00    -0.272 OA
ATOM      4  C   UNL     1       3.682   1.800  -4.346  0.00  0.00    +0.135 C 
ATOM      5  N   UNL     1       3.236   0.422  -4.617  0.00  0.00    -0.281 N 
ATOM      6  C   UNL     1       2.675  -0.031  -3.481  0.00  0.00    +0.310 C 
ATOM      7  O   UNL     1       2.203  -1.144  -3.358  0.00  0.00    -0.252 OA
ATOM      8  C   UNL     1       5.200   1.914  -4.505  0.00  0.00    +0.047 C 
ATOM      9  H   UNL     1       3.331  -0.065  -5.451  0.00  0.00    +0.152 HD
ENDROOT
BRANCH   4  10
ATOM     10  C   UNL     1       2.978   2.774  -5.255  0.00  0.00    -0.016 A 
ATOM     11  C   UNL     1       2.624   4.025  -4.785  0.00  0.00    +0.006 A 
ATOM     12  C   UNL     1       1.982   4.920  -5.621  0.00  0.00    +0.000 A 
ATOM     13  C   UNL     1       1.685   4.561  -6.922  0.00  0.00    +0.000 A 
ATOM     14  C   UNL     1       2.034   3.308  -7.390  0.00  0.00    +0.000 A 
ATOM     15  C   UNL     1       2.681   2.414  -6.556  0.00  0.00    +0.006 A 
ENDBRANCH   4  10
BRANCH   1  16
ATOM     16  C   UNL     1       2.148   0.661  -1.161  0.00  0.00    +0.214 C 
BRANCH  16  18
ATOM     17  N   UNL     1      -0.011   0.966   0.007  0.00  0.00    -0.283 N 
ATOM     18  C   UNL     1       0.700   1.080  -1.132  0.00  0.00    +0.235 C 
ATOM     19  O   UNL     1       0.175   1.519  -2.133  0.00  0.00    -0.274 OA
ATOM     20  H   UNL     1       0.386   0.546   0.787  0.00  0.00    +0.155 HD
BRANCH  17  25
ATOM     21  C   UNL     1      -5.335   2.916   0.238  0.00  0.00    +0.044 C 
ATOM     22  C   UNL     1      -3.921   2.399   0.176  0.00  0.00    -0.049 A 
ATOM     23  C   UNL     1      -3.684   1.071  -0.130  0.00  0.00    +0.008 A 
ATOM     24  C   UNL     1      -2.390   0.593  -0.186  0.00  0.00    -0.028 A 
ATOM     25  C   UNL     1      -1.324   1.447   0.064  0.00  0.00    +0.055 A 
ATOM     26  C   UNL     1      -1.565   2.780   0.376  0.00  0.00    +0.063 A 
ATOM     27  C   UNL     1      -2.862   3.253   0.426  0.00  0.00    +0.025 A 
ATOM     28 CL   UNL     1      -0.236   3.851   0.697  0.00  0.00    -0.082 Cl
ATOM     29  C   UNL     1      -2.134  -0.854  -0.519  0.00  0.00    +0.046 C 
ENDBRANCH  17  25
ENDBRANCH  16  18
ENDBRANCH   1  16
TORSDOF 4
