REMARK  Name = ZINC04938227
REMARK  4 active torsions:
REMARK  status: ('A' for Active; 'I' for Inactive)
REMARK    1  A    between atoms: C_1  and  C_2
REMARK    2  A    between atoms: C_2  and  C_4
REMARK    3  A    between atoms: C_2  and  N_17
REMARK    4  A    between atoms: N_6  and  C_7
REMARK                            x       y       z     vdW  Elec       q    Type
REMARK                         _______ _______ _______ _____ _____    ______ ____
ROOT
ATOM      1  C   UNL     1      -0.697   7.788  -0.960  0.00  0.00    +0.040 C 
ATOM      2  C   UNL     1      -2.132   7.259  -0.950  0.00  0.00    +0.180 C 
ENDROOT
BRANCH   2   3
ATOM      3  N   UNL     1      -2.841   7.744  -2.136  0.00  0.00    -0.191 N 
ATOM      4  C   UNL     1      -2.506   7.512  -3.481  0.00  0.00    +0.062 A 
ATOM      5  C   UNL     1      -1.433   6.776  -3.979  0.00  0.00    +0.025 A 
ATOM      6  C   UNL     1      -1.238   6.640  -5.348  0.00  0.00    +0.002 A 
ATOM      7  C   UNL     1      -2.071   7.210  -6.265  0.00  0.00    +0.009 A 
ATOM      8  C   UNL     1      -3.166   7.963  -5.811  0.00  0.00    -0.014 A 
ATOM      9  C   UNL     1      -3.356   8.095  -4.419  0.00  0.00    +0.031 A 
ATOM     10  C   UNL     1      -4.435   8.837  -3.928  0.00  0.00    +0.118 A 
ATOM     11  C   UNL     1      -5.299   9.430  -4.772  0.00  0.00    +0.029 A 
ATOM     12  C   UNL     1      -5.120   9.304  -6.155  0.00  0.00    +0.003 A 
ATOM     13  C   UNL     1      -4.080   8.589  -6.674  0.00  0.00    +0.009 A 
ATOM     14  S   UNL     1      -4.227   8.687  -2.176  0.00  0.00    +0.076 S 
ATOM     15  O   UNL     1      -5.300   7.902  -1.675  0.00  0.00    -0.150 OA
ATOM     16  O   UNL     1      -3.892   9.972  -1.670  0.00  0.00    -0.150 OA
ENDBRANCH   2   3
BRANCH   2  17
ATOM     17  C   UNL     1      -2.112   5.752  -0.958  0.00  0.00    +0.235 C 
ATOM     18  O   UNL     1      -2.637   5.143  -1.866  0.00  0.00    -0.274 OA
ATOM     19  N   UNL     1      -1.510   5.081   0.044  0.00  0.00    -0.308 N 
ATOM     20  H   UNL     1      -1.089   5.567   0.770  0.00  0.00    +0.149 HD
BRANCH  19  21
ATOM     21  C   UNL     1      -1.490   3.616   0.036  0.00  0.00    +0.035 C 
ATOM     22  C   UNL     1      -0.773   3.123  -1.223  0.00  0.00    +0.029 C 
ATOM     23  C   UNL     1      -0.753   1.593  -1.232  0.00  0.00    -0.008 C 
ATOM     24  C   UNL     1      -0.013   1.086   0.008  0.00  0.00    +0.007 C 
ATOM     25  C   UNL     1      -0.729   1.579   1.267  0.00  0.00    -0.008 C 
ATOM     26  C   UNL     1      -0.750   3.109   1.275  0.00  0.00    +0.029 C 
ATOM     27  C   UNL     1      -2.164   1.050   1.278  0.00  0.00    +0.007 C 
ATOM     28  C   UNL     1      -2.904   1.556   0.038  0.00  0.00    -0.008 C 
ATOM     29  C   UNL     1      -2.188   1.063  -1.221  0.00  0.00    +0.007 C 
ATOM     30  C   UNL     1      -2.925   3.086   0.047  0.00  0.00    +0.029 C 
ENDBRANCH  19  21
ENDBRANCH   2  17
TORSDOF 3
