REMARK  Name = ZINC09534307
REMARK  9 active torsions:
REMARK  status: ('A' for Active; 'I' for Inactive)
REMARK    1  A    between atoms: C_1  and  C_2
REMARK    2  A    between atoms: C_2  and  C_3
REMARK    3  A    between atoms: C_2  and  O_4
REMARK    4  A    between atoms: O_4  and  C_5
REMARK    5  A    between atoms: C_8  and  C_11
REMARK    6  A    between atoms: C_11  and  O_13
REMARK    7  A    between atoms: O_13  and  C_14
REMARK    8  A    between atoms: C_14  and  C_15
REMARK    9  A    between atoms: N_17  and  C_18
REMARK                            x       y       z     vdW  Elec       q    Type
REMARK                         _______ _______ _______ _____ _____    ______ ____
ROOT
ATOM      1  C   UNL     1       3.605   6.078   0.753  0.00  0.00    +0.255 C 
ATOM      2  O   UNL     1       4.648   5.531   0.463  0.00  0.00    -0.272 OA
ATOM      3  N   UNL     1       2.443   5.399   0.678  0.00  0.00    -0.282 N 
ATOM      4  H   UNL     1       1.604   5.853   0.852  0.00  0.00    +0.155 HD
ENDROOT
BRANCH   3   5
ATOM      5  C   UNL     1       2.448   4.047   0.352  0.00  0.00    +0.045 A 
ATOM      6  C   UNL     1       3.384   3.547  -0.554  0.00  0.00    +0.024 A 
ATOM      7  C   UNL     1       3.392   2.208  -0.880  0.00  0.00    +0.003 A 
ATOM      8  C   UNL     1       2.472   1.338  -0.314  0.00  0.00    +0.012 A 
ATOM      9  C   UNL     1       1.531   1.813   0.591  0.00  0.00    +0.035 A 
ATOM     10  C   UNL     1       1.516   3.181   0.930  0.00  0.00    +0.054 A 
ATOM     11  C   UNL     1       0.515   3.685   1.889  0.00  0.00    +0.196 C 
ATOM     12  O   UNL     1       0.638   4.790   2.381  0.00  0.00    -0.287 OA
ATOM     13  C   UNL     1      -0.638   2.830   2.248  0.00  0.00    +0.033 A 
ATOM     14  C   UNL     1      -1.735   3.365   2.914  0.00  0.00    +0.012 A 
ATOM     15  C   UNL     1      -2.815   2.550   3.225  0.00  0.00    +0.001 A 
ATOM     16  C   UNL     1      -2.800   1.208   2.894  0.00  0.00    +0.001 A 
ATOM     17  C   UNL     1      -1.712   0.659   2.236  0.00  0.00    +0.012 A 
ATOM     18  C   UNL     1      -0.627   1.464   1.906  0.00  0.00    +0.033 A 
ATOM     19  C   UNL     1       0.544   0.897   1.203  0.00  0.00    +0.195 C 
ATOM     20  O   UNL     1       0.692  -0.307   1.124  0.00  0.00    -0.287 OA
ENDBRANCH   3   5
BRANCH   1  21
ATOM     21  C   UNL     1       3.609   7.518   1.198  0.00  0.00    +0.328 C 
BRANCH  21  22
ATOM     22  O   UNL     1       4.971   8.022   1.196  0.00  0.00    -0.452 OA
BRANCH  22  23
ATOM     23  C   UNL     1       5.149   9.303   1.572  0.00  0.00    +0.340 C 
ATOM     24  O   UNL     1       4.193   9.981   1.893  0.00  0.00    -0.245 OA
BRANCH  23  28
ATOM     25  C   UNL     1       9.052  10.973   1.635  0.00  0.00    +0.121 A 
ATOM     26  C   UNL     1       7.960  11.750   2.003  0.00  0.00    +0.046 A 
ATOM     27  C   UNL     1       6.693  11.213   1.984  0.00  0.00    +0.018 A 
ATOM     28  C   UNL     1       6.505   9.883   1.594  0.00  0.00    +0.059 A 
ATOM     29  C   UNL     1       7.607   9.103   1.231  0.00  0.00    +0.018 A 
ATOM     30  C   UNL     1       8.870   9.650   1.247  0.00  0.00    +0.046 A 
BRANCH  25  31
ATOM     31  O   UNL     1      10.300  11.506   1.655  0.00  0.00    -0.489 OA
BRANCH  31  33
ATOM     32  C   UNL     1      10.524  12.803   3.682  0.00  0.00    +0.051 C 
ATOM     33  C   UNL     1      10.428  12.838   2.156  0.00  0.00    +0.167 C 
ATOM     34  C   UNL     1      11.691  13.480   1.580  0.00  0.00    +0.051 C 
ENDBRANCH  31  33
ENDBRANCH  25  31
ENDBRANCH  23  28
ENDBRANCH  22  23
ENDBRANCH  21  22
ENDBRANCH   1  21
TORSDOF 7
