REMARK  Name = ZINC42567207
REMARK  8 active torsions:
REMARK  status: ('A' for Active; 'I' for Inactive)
REMARK    1  A    between atoms: C_1  and  C_2
REMARK    2  A    between atoms: C_4  and  N_22
REMARK    3  A    between atoms: C_7  and  N_8
REMARK    4  A    between atoms: C_9  and  C_11
REMARK    5  A    between atoms: C_11  and  C_13
REMARK    6  A    between atoms: C_11  and  N_14
REMARK    7  A    between atoms: C_17  and  O_20
REMARK    8  A    between atoms: O_20  and  C_21
REMARK                            x       y       z     vdW  Elec       q    Type
REMARK                         _______ _______ _______ _____ _____    ______ ____
ROOT
ATOM      1  N   UNL     1      -0.114  -0.066   2.412  0.00  0.00    -0.287 N 
ATOM      2  C   UNL     1      -0.315  -0.700   3.584  0.00  0.00    +0.203 C 
ATOM      3  O   UNL     1      -0.614  -1.875   3.595  0.00  0.00    -0.277 OA
ATOM      4  H   UNL     1       0.199   0.852   2.404  0.00  0.00    +0.155 HD
ENDROOT
BRANCH   1  11
ATOM      5  C   UNL     1      -1.114   1.446   0.219  0.00  0.00    +0.046 C 
ATOM      6  C   UNL     1      -0.845  -0.033   0.110  0.00  0.00    -0.027 A 
ATOM      7  C   UNL     1      -1.079  -0.693  -1.080  0.00  0.00    +0.038 A 
ATOM      8  C   UNL     1      -0.832  -2.049  -1.181  0.00  0.00    +0.127 A 
ATOM      9  C   UNL     1      -0.351  -2.750  -0.090  0.00  0.00    +0.034 A 
ATOM     10  C   UNL     1      -0.115  -2.096   1.103  0.00  0.00    +0.026 A 
ATOM     11  C   UNL     1      -0.356  -0.732   1.206  0.00  0.00    +0.036 A 
BRANCH   8  12
ATOM     12  N   UNL     1      -1.084  -2.753  -2.458  0.00  0.00    +0.056 N 
ATOM     13  O   UNL     1      -1.505  -2.142  -3.413  0.00  0.00    -0.126 OA
ATOM     14  O   UNL     1      -0.868  -3.940  -2.547  0.00  0.00    -0.126 OA
ENDBRANCH   8  12
ENDBRANCH   1  11
BRANCH   2  15
ATOM     15  C   UNL     1      -0.169   0.052   4.882  0.00  0.00    +0.016 C 
ATOM     16  C   UNL     1      -1.362   0.992   5.064  0.00  0.00    -0.004 C 
BRANCH  15  17
ATOM     17  N   UNL     1      -0.122  -0.902   5.998  0.00  0.00    +0.387 N 
ATOM     18  C   UNL     1       1.089  -1.723   5.887  0.00  0.00    -0.075 C 
ATOM     19  C   UNL     1       1.103  -2.772   7.001  0.00  0.00    +0.013 C 
ATOM     20  C   UNL     1       1.085  -2.067   8.360  0.00  0.00    +0.114 C 
ATOM     21  C   UNL     1      -0.143  -1.156   8.435  0.00  0.00    +0.013 C 
ATOM     22  C   UNL     1      -0.111  -0.166   7.268  0.00  0.00    -0.075 C 
ATOM     23  H   UNL     1      -0.935  -1.498   5.964  0.00  0.00    -0.081 HD
BRANCH  20  24
ATOM     24  O   UNL     1       1.022  -3.041   9.404  0.00  0.00    -0.380 OA
ATOM     25  C   UNL     1       1.653  -2.632  10.619  0.00  0.00    +0.194 C 
ENDBRANCH  20  24
ENDBRANCH  15  17
ENDBRANCH   2  15
TORSDOF 5
