REMARK  Name = ZINC63315026
REMARK  5 active torsions:
REMARK  status: ('A' for Active; 'I' for Inactive)
REMARK    1  A    between atoms: C_1  and  C_2
REMARK    2  A    between atoms: C_8  and  C_10
REMARK    3  A    between atoms: C_10  and  C_11
REMARK    4  A    between atoms: C_11  and  C_12
REMARK    5  A    between atoms: C_12  and  N_13
REMARK                            x       y       z     vdW  Elec       q    Type
REMARK                         _______ _______ _______ _____ _____    ______ ____
ROOT
ATOM      1  N   UNL     1      -1.052  -9.683  -0.038  0.00  0.00    -0.299 N 
ATOM      2  C   UNL     1      -0.815 -11.010  -0.051  0.00  0.00    +0.302 C 
ATOM      3  O   UNL     1       0.324 -11.423  -0.154  0.00  0.00    -0.253 OA
ATOM      4  N   UNL     1      -1.841 -11.879   0.051  0.00  0.00    -0.283 N 
ATOM      5  C   UNL     1      -3.219 -11.377   0.052  0.00  0.00    +0.114 C 
ATOM      6  C   UNL     1      -4.002 -12.028  -1.103  0.00  0.00    +0.052 C 
ATOM      7  C   UNL     1      -3.676 -13.501  -1.071  0.00  0.00    -0.036 C 
ATOM      8  C   UNL     1      -4.458 -14.573  -1.056  0.00  0.00    -0.001 A 
ATOM      9  C   UNL     1      -5.917 -14.723  -1.174  0.00  0.00    +0.010 A 
ATOM     10  C   UNL     1      -6.397 -15.992  -1.096  0.00  0.00    +0.001 A 
ATOM     11  C   UNL     1      -5.582 -17.114  -0.914  0.00  0.00    +0.002 A 
ATOM     12  C   UNL     1      -4.230 -17.069  -0.804  0.00  0.00    +0.026 A 
ATOM     13  C   UNL     1      -3.607 -15.790  -0.879  0.00  0.00    +0.043 A 
ATOM     14  N   UNL     1      -2.350 -15.461  -0.829  0.00  0.00    -0.376 N 
ATOM     15  C   UNL     1      -2.242 -14.016  -1.028  0.00  0.00    +0.124 C 
ATOM     16  C   UNL     1      -1.566 -13.321   0.153  0.00  0.00    +0.138 C 
ATOM     17  H   UNL     1      -1.964  -9.354  -0.029  0.00  0.00    +0.150 HD
ATOM     18  H   UNL     1      -1.610 -16.071  -0.684  0.00  0.00    +0.160 HD
ENDROOT
BRANCH   1  19
ATOM     19  C   UNL     1       0.068  -8.739  -0.038  0.00  0.00    +0.106 C 
BRANCH  19  20
ATOM     20  C   UNL     1      -0.472  -7.308  -0.022  0.00  0.00    +0.028 C 
BRANCH  20  21
ATOM     21  C   UNL     1       0.698  -6.322  -0.022  0.00  0.00    +0.098 C 
BRANCH  21  29
ATOM     22  C   UNL     1      -0.014   1.502   0.051  0.00  0.00    +0.053 C 
ATOM     23  C   UNL     1       0.006  -0.005   0.038  0.00  0.00    +0.008 A 
ATOM     24  C   UNL     1      -1.027  -0.883   0.037  0.00  0.00    +0.124 A 
ATOM     25  N   UNL     1      -0.722  -2.167   0.024  0.00  0.00    -0.233 NA
ATOM     26  C   UNL     1       0.531  -2.569   0.011  0.00  0.00    +0.165 A 
ATOM     27  S   UNL     1       1.396  -1.125   0.010  0.00  0.00    -0.057 S 
ATOM     28  N   UNL     1       1.021  -3.869  -0.003  0.00  0.00    -0.265 N 
ATOM     29  C   UNL     1       0.167  -4.912  -0.006  0.00  0.00    +0.219 C 
ATOM     30  O   UNL     1      -1.030  -4.715   0.004  0.00  0.00    -0.275 OA
ATOM     31  H   UNL     1       1.978  -4.027  -0.011  0.00  0.00    +0.157 HD
ENDBRANCH  21  29
ENDBRANCH  20  21
ENDBRANCH  19  20
ENDBRANCH   1  19
TORSDOF 4
