REMARK  Name = ZINC39622632
REMARK  6 active torsions:
REMARK  status: ('A' for Active; 'I' for Inactive)
REMARK    1  A    between atoms: C_4  and  N_7
REMARK    2  A    between atoms: C_13  and  C_15
REMARK    3  A    between atoms: C_15  and  O_16
REMARK    4  A    between atoms: O_16  and  C_17
REMARK    5  A    between atoms: C_17  and  C_19
REMARK    6  A    between atoms: C_25  and  C_27
REMARK                            x       y       z     vdW  Elec       q    Type
REMARK                         _______ _______ _______ _____ _____    ______ ____
ROOT
ATOM      1  C   UNL     1       8.457  -5.795   1.381  0.00  0.00    +0.311 C 
ATOM      2  O   UNL     1       7.564  -6.603   1.475  0.00  0.00    -0.251 OA
ENDROOT
BRANCH   1   3
ATOM      3  C   UNL     1       9.887  -6.261   1.283  0.00  0.00    +0.110 C 
ATOM      4  C   UNL     1      10.494  -5.769  -0.033  0.00  0.00    +0.015 C 
ATOM      5  C   UNL     1      11.945  -6.242  -0.133  0.00  0.00    +0.001 C 
ATOM      6  C   UNL     1      11.988  -7.771  -0.092  0.00  0.00    +0.001 C 
ATOM      7  C   UNL     1      11.381  -8.263   1.223  0.00  0.00    +0.013 C 
ATOM      8  C   UNL     1       9.929  -7.790   1.323  0.00  0.00    +0.089 C 
BRANCH   8   9
ATOM      9  C   UNL     1       9.139  -8.345   0.167  0.00  0.00    +0.224 C 
ATOM     10  O   UNL     1       8.743  -7.605  -0.708  0.00  0.00    -0.275 OA
ATOM     11  N   UNL     1       8.873  -9.665   0.104  0.00  0.00    -0.271 N 
ATOM     12  C   UNL     1       9.198 -10.638   1.151  0.00  0.00    +0.118 C 
ATOM     13  C   UNL     1       8.699 -11.990   0.614  0.00  0.00    +0.056 C 
ATOM     14  C   UNL     1       8.110 -11.667  -0.741  0.00  0.00    -0.024 A 
ATOM     15  C   UNL     1       8.240 -10.306  -0.965  0.00  0.00    +0.039 A 
ATOM     16  C   UNL     1       7.758  -9.767  -2.159  0.00  0.00    +0.024 A 
ATOM     17  C   UNL     1       7.158 -10.580  -3.098  0.00  0.00    +0.002 A 
ATOM     18  C   UNL     1       7.030 -11.937  -2.862  0.00  0.00    +0.000 A 
ATOM     19  C   UNL     1       7.512 -12.479  -1.685  0.00  0.00    +0.005 A 
ENDBRANCH   8   9
ENDBRANCH   1   3
BRANCH   1  20
ATOM     20  O   UNL     1       8.176  -4.483   1.366  0.00  0.00    -0.455 OA
BRANCH  20  21
ATOM     21  C   UNL     1       6.799  -4.113   1.463  0.00  0.00    +0.327 C 
BRANCH  21  28
ATOM     22  N   UNL     1       3.158  -1.005   0.460  0.00  0.00    -0.327 N 
ATOM     23  C   UNL     1       4.373  -0.186   0.342  0.00  0.00    +0.124 C 
ATOM     24  C   UNL     1       5.333  -0.567   1.476  0.00  0.00    +0.127 C 
ATOM     25  N   UNL     1       5.465  -2.030   1.508  0.00  0.00    -0.296 N 
ATOM     26  C   UNL     1       4.251  -2.849   1.626  0.00  0.00    +0.127 C 
ATOM     27  C   UNL     1       3.291  -2.468   0.498  0.00  0.00    +0.124 C 
ATOM     28  C   UNL     1       6.679  -2.611   1.429  0.00  0.00    +0.253 C 
ATOM     29  O   UNL     1       7.674  -1.925   1.331  0.00  0.00    -0.272 OA
BRANCH  22  33
ATOM     30  C   UNL     1      -0.591   0.789   0.704  0.00  0.00    +0.000 A 
ATOM     31  C   UNL     1      -0.489  -0.587   0.621  0.00  0.00    +0.002 A 
ATOM     32  C   UNL     1       0.753  -1.186   0.539  0.00  0.00    +0.023 A 
ATOM     33  C   UNL     1       1.900  -0.403   0.542  0.00  0.00    +0.030 A 
ATOM     34  C   UNL     1       1.794   0.979   0.626  0.00  0.00    +0.023 A 
ATOM     35  C   UNL     1       0.549   1.571   0.707  0.00  0.00    +0.002 A 
ENDBRANCH  22  33
ENDBRANCH  21  28
ENDBRANCH  20  21
ENDBRANCH   1  20
TORSDOF 6
