REMARK  Name = ZINC10732899
REMARK  9 active torsions:
REMARK  status: ('A' for Active; 'I' for Inactive)
REMARK    1  A    between atoms: C_1  and  N_2
REMARK    2  A    between atoms: C_5  and  C_18
REMARK    3  A    between atoms: C_6  and  N_17
REMARK    4  A    between atoms: N_7  and  C_10
REMARK    5  A    between atoms: C_10  and  C_11
REMARK    6  A    between atoms: C_18  and  C_20
REMARK    7  A    between atoms: C_20  and  O_21
REMARK    8  A    between atoms: O_21  and  C_22
REMARK    9  A    between atoms: C_22  and  C_24
REMARK                            x       y       z     vdW  Elec       q    Type
REMARK                         _______ _______ _______ _____ _____    ______ ____
ROOT
ATOM      1  C   UNL     1       3.627   2.190  -0.059  0.00  0.00    +0.157 C 
ATOM      2  N   UNL     1       2.378   1.425  -0.032  0.00  0.00    -0.263 N 
ATOM      3  C   UNL     1       2.423   0.077  -0.035  0.00  0.00    +0.269 A 
ATOM      4  O   UNL     1       3.489  -0.509  -0.060  0.00  0.00    -0.267 OA
ATOM      5  C   UNL     1       1.158  -0.669  -0.007  0.00  0.00    +0.123 A 
ATOM      6  C   UNL     1      -0.039   0.068   0.021  0.00  0.00    +0.116 A 
ATOM      7  N   UNL     1       0.026   1.433   0.022  0.00  0.00    -0.277 N 
ATOM      8  C   UNL     1       1.204   2.075  -0.004  0.00  0.00    +0.333 A 
ATOM      9  O   UNL     1       1.207   3.291  -0.002  0.00  0.00    -0.246 OA
ENDROOT
BRANCH   6  10
ATOM     10  N   UNL     1      -1.242  -0.567   0.048  0.00  0.00    -0.344 N 
ATOM     11  H   UNL     1      -2.059  -0.054   0.145  0.00  0.00    +0.144 HD
ATOM     12  H   UNL     1      -1.282  -1.533  -0.030  0.00  0.00    +0.144 HD
ENDBRANCH   6  10
BRANCH   5  13
ATOM     13  C   UNL     1       1.144  -2.080  -0.010  0.00  0.00    +0.209 C 
ATOM     14  O   UNL     1       0.089  -2.677  -0.094  0.00  0.00    -0.288 OA
BRANCH  13  15
ATOM     15  C   UNL     1       2.438  -2.846   0.091  0.00  0.00    +0.312 C 
BRANCH  15  16
ATOM     16  O   UNL     1       2.159  -4.271   0.068  0.00  0.00    -0.453 OA
BRANCH  16  17
ATOM     17  C   UNL     1       3.216  -5.102   0.151  0.00  0.00    +0.340 C 
ATOM     18  O   UNL     1       4.340  -4.649   0.240  0.00  0.00    -0.245 OA
BRANCH  17  19
ATOM     19  C   UNL     1       3.009  -6.564   0.133  0.00  0.00    +0.060 A 
ATOM     20  C   UNL     1       1.705  -7.083   0.035  0.00  0.00    +0.015 A 
ATOM     21  C   UNL     1       1.490  -8.423   0.013  0.00  0.00    +0.009 A 
ATOM     22  C   UNL     1       2.577  -9.313   0.097  0.00  0.00    -0.018 A 
ATOM     23  C   UNL     1       2.377 -10.703   0.081  0.00  0.00    +0.008 A 
ATOM     24  C   UNL     1       3.448 -11.540   0.165  0.00  0.00    +0.001 A 
ATOM     25  C   UNL     1       4.745 -11.038   0.267  0.00  0.00    +0.001 A 
ATOM     26  C   UNL     1       4.977  -9.697   0.286  0.00  0.00    +0.008 A 
ATOM     27  C   UNL     1       3.896  -8.802   0.201  0.00  0.00    -0.017 A 
ATOM     28  C   UNL     1       4.100  -7.414   0.218  0.00  0.00    +0.023 A 
ENDBRANCH  17  19
ENDBRANCH  16  17
ENDBRANCH  15  16
ENDBRANCH  13  15
ENDBRANCH   5  13
BRANCH   7  29
ATOM     29  C   UNL     1      -1.216   2.210   0.045  0.00  0.00    +0.163 C 
BRANCH  29  30
ATOM     30  C   UNL     1      -1.616   2.474   1.474  0.00  0.00    -0.028 A 
ATOM     31  C   UNL     1      -2.439   1.584   2.137  0.00  0.00    +0.005 A 
ATOM     32  C   UNL     1      -2.803   1.824   3.449  0.00  0.00    +0.000 A 
ATOM     33  C   UNL     1      -2.351   2.960   4.094  0.00  0.00    +0.000 A 
ATOM     34  C   UNL     1      -1.532   3.853   3.429  0.00  0.00    +0.000 A 
ATOM     35  C   UNL     1      -1.165   3.610   2.119  0.00  0.00    +0.005 A 
ENDBRANCH  29  30
ENDBRANCH   7  29
TORSDOF 8
