REMARK  Name = ZINC49103665
REMARK  7 active torsions:
REMARK  status: ('A' for Active; 'I' for Inactive)
REMARK    1  A    between atoms: C_1  and  C_2
REMARK    2  A    between atoms: C_2  and  C_4
REMARK    3  A    between atoms: C_2  and  S_8
REMARK    4  A    between atoms: N_6  and  C_7
REMARK    5  A    between atoms: S_8  and  C_11
REMARK    6  A    between atoms: C_14  and  C_17
REMARK    7  A    between atoms: N_15  and  C_16
REMARK                            x       y       z     vdW  Elec       q    Type
REMARK                         _______ _______ _______ _____ _____    ______ ____
ROOT
ATOM      1  C   UNL     1       2.476   0.084  -1.381  0.00  0.00    +0.272 A 
ATOM      2  N   UNL     1       2.866   1.240  -1.846  0.00  0.00    -0.109 NA
ATOM      3  N   UNL     1       4.113   1.420  -1.594  0.00  0.00    -0.127 NA
ATOM      4  C   UNL     1       4.592   0.377  -0.948  0.00  0.00    +0.172 A 
ATOM      5  N   UNL     1       3.554  -0.504  -0.789  0.00  0.00    -0.295 N 
ATOM      6  C   UNL     1       3.595  -1.808  -0.123  0.00  0.00    +0.154 C 
ENDROOT
BRANCH   4   7
ATOM      7  C   UNL     1       5.976   0.195  -0.480  0.00  0.00    +0.056 A 
ATOM      8  C   UNL     1       6.973   1.128  -0.346  0.00  0.00    +0.019 A 
ATOM      9  C   UNL     1       8.202   0.719   0.117  0.00  0.00    +0.008 A 
ATOM     10  C   UNL     1       8.392  -0.591   0.426  0.00  0.00    +0.046 A 
ATOM     11  S   UNL     1       6.791  -1.295   0.069  0.00  0.00    -0.094 S 
ENDBRANCH   4   7
BRANCH   1  12
ATOM     12  S   UNL     1       0.851  -0.589  -1.490  0.00  0.00    +0.043 S 
ATOM     13  O   UNL     1       1.037  -1.996  -1.428  0.00  0.00    -0.166 OA
ATOM     14  O   UNL     1       0.285   0.016  -2.645  0.00  0.00    -0.166 OA
BRANCH  12  16
ATOM     15  C   UNL     1      -0.019   1.526   0.010  0.00  0.00    +0.042 C 
ATOM     16  C   UNL     1       0.002  -0.004   0.002  0.00  0.00    +0.222 C 
BRANCH  16  17
ATOM     17  C   UNL     1      -1.412  -0.526   0.013  0.00  0.00    +0.237 C 
ATOM     18  O   UNL     1      -1.927  -0.901  -1.019  0.00  0.00    -0.274 OA
ATOM     19  N   UNL     1      -2.103  -0.575   1.169  0.00  0.00    -0.317 N 
ATOM     20  C   UNL     1      -3.478  -1.082   1.179  0.00  0.00    +0.128 C 
ATOM     21  H   UNL     1      -1.691  -0.275   1.994  0.00  0.00    +0.148 HD
ENDBRANCH  16  17
ENDBRANCH  12  16
ENDBRANCH   1  12
TORSDOF 4
