REMARK  Name = ZINC00811432
REMARK  4 active torsions:
REMARK  status: ('A' for Active; 'I' for Inactive)
REMARK    1  A    between atoms: C_6  and  C_7
REMARK    2  A    between atoms: C_10  and  C_12
REMARK    3  A    between atoms: N_13  and  C_14
REMARK    4  A    between atoms: C_19  and  O_20
REMARK                            x       y       z     vdW  Elec       q    Type
REMARK                         _______ _______ _______ _____ _____    ______ ____
ROOT
ATOM      1  C   UNL     1      -1.309  -0.799   0.589  0.00  0.00    +0.136 A 
ATOM      2  C   UNL     1      -1.407  -2.148   0.404  0.00  0.00    +0.050 A 
ATOM      3  C   UNL     1      -2.752  -2.432   0.147  0.00  0.00    +0.051 A 
ATOM      4  C   UNL     1      -3.428  -1.228   0.186  0.00  0.00    +0.147 A 
ATOM      5  O   UNL     1      -2.533  -0.256   0.460  0.00  0.00    -0.454 OA
ENDROOT
BRANCH   1  11
ATOM      6  C   UNL     1      -0.099   1.326   1.060  0.00  0.00    +0.012 A 
ATOM      7  C   UNL     1       1.065   2.010   1.339  0.00  0.00    +0.016 A 
ATOM      8  C   UNL     1       2.265   1.327   1.446  0.00  0.00    +0.018 A 
ATOM      9  C   UNL     1       2.304  -0.046   1.274  0.00  0.00    +0.016 A 
ATOM     10  C   UNL     1       1.147  -0.743   0.996  0.00  0.00    +0.012 A 
ATOM     11  C   UNL     1      -0.067  -0.060   0.886  0.00  0.00    +0.017 A 
ATOM     12 BR   UNL     1       3.857   2.274   1.827  0.00  0.00    -0.050 Br
ENDBRANCH   1  11
BRANCH   4  13
ATOM     13  C   UNL     1      -4.817  -1.046  -0.020  0.00  0.00    +0.157 C 
ATOM     14  N   UNL     1      -5.336   0.153   0.044  0.00  0.00    -0.248 NA
BRANCH  14  15
ATOM     15  C   UNL     1      -6.690   0.317  -0.048  0.00  0.00    +0.107 A 
ATOM     16  C   UNL     1      -7.547  -0.476   0.719  0.00  0.00    +0.051 A 
ATOM     17  C   UNL     1      -8.913  -0.305   0.621  0.00  0.00    +0.043 A 
ATOM     18  C   UNL     1      -9.437   0.650  -0.234  0.00  0.00    +0.024 A 
ATOM     19  C   UNL     1      -8.598   1.441  -0.998  0.00  0.00    +0.049 A 
ATOM     20  C   UNL     1      -7.225   1.286  -0.908  0.00  0.00    +0.142 A 
ATOM     21 CL   UNL     1      -9.979  -1.291   1.573  0.00  0.00    -0.083 Cl
BRANCH  20  22
ATOM     22  O   UNL     1      -6.400   2.067  -1.653  0.00  0.00    -0.505 OA
ATOM     23  H   UNL     1      -6.189   1.698  -2.522  0.00  0.00    +0.292 HD
ENDBRANCH  20  22
ENDBRANCH  14  15
ENDBRANCH   4  13
TORSDOF 4
