REMARK  Name = ZINC16011667
REMARK  5 active torsions:
REMARK  status: ('A' for Active; 'I' for Inactive)
REMARK    1  A    between atoms: C_1  and  S_2
REMARK    2  A    between atoms: S_2  and  C_3
REMARK    3  A    between atoms: C_3  and  C_4
REMARK    4  A    between atoms: C_4  and  C_5
REMARK    5  A    between atoms: N_13  and  C_16
REMARK                            x       y       z     vdW  Elec       q    Type
REMARK                         _______ _______ _______ _____ _____    ______ ____
ROOT
ATOM      1  C   UNL     1      -3.356  -2.382   0.021  0.00  0.00    +0.068 C 
ATOM      2  C   UNL     1      -3.508  -3.915  -0.074  0.00  0.00    +0.107 C 
ATOM      3  C   UNL     1      -4.706  -4.256   0.856  0.00  0.00    +0.123 C 
ATOM      4  C   UNL     1      -4.070  -5.081   1.953  0.00  0.00    +0.233 C 
ATOM      5  O   UNL     1      -4.658  -5.564   2.896  0.00  0.00    -0.274 OA
ATOM      6  N   UNL     1      -2.757  -5.195   1.720  0.00  0.00    -0.208 N 
ATOM      7  C   UNL     1      -2.326  -4.576   0.597  0.00  0.00    +0.232 C 
ATOM      8  O   UNL     1      -1.184  -4.549   0.190  0.00  0.00    -0.274 OA
ATOM      9  C   UNL     1      -5.162  -2.901   1.411  0.00  0.00    +0.136 C 
ATOM     10  N   UNL     1      -3.978  -2.014   1.321  0.00  0.00    -0.295 NA
ATOM     11  C   UNL     1      -6.338  -2.362   0.646  0.00  0.00    +0.003 A 
ATOM     12  C   UNL     1      -6.539  -2.034  -0.676  0.00  0.00    +0.008 A 
ATOM     13  C   UNL     1      -7.767  -1.548  -1.089  0.00  0.00    +0.000 A 
ATOM     14  C   UNL     1      -8.789  -1.391  -0.171  0.00  0.00    +0.002 A 
ATOM     15  C   UNL     1      -8.591  -1.717   1.155  0.00  0.00    +0.023 A 
ATOM     16  C   UNL     1      -7.359  -2.208   1.579  0.00  0.00    +0.039 A 
ATOM     17  N   UNL     1      -6.919  -2.600   2.845  0.00  0.00    -0.283 N 
ATOM     18  C   UNL     1      -5.639  -3.020   2.832  0.00  0.00    +0.243 C 
ATOM     19  O   UNL     1      -4.997  -3.417   3.781  0.00  0.00    -0.273 OA
ATOM     20  H   UNL     1      -3.338  -2.172   2.085  0.00  0.00    +0.123 HD
ATOM     21  H   UNL     1      -7.472  -2.574   3.642  0.00  0.00    +0.155 HD
ENDROOT
BRANCH   6  22
ATOM     22  C   UNL     1      -1.895  -5.904   2.569  0.00  0.00    +0.064 A 
ATOM     23  C   UNL     1      -1.663  -7.255   2.352  0.00  0.00    +0.025 A 
ATOM     24  C   UNL     1      -0.813  -7.952   3.189  0.00  0.00    +0.003 A 
ATOM     25  C   UNL     1      -0.195  -7.306   4.244  0.00  0.00    +0.021 A 
ATOM     26  C   UNL     1      -0.423  -5.960   4.463  0.00  0.00    +0.061 A 
ATOM     27  C   UNL     1      -1.268  -5.255   3.624  0.00  0.00    +0.081 A 
ATOM     28 CL   UNL     1      -1.550  -3.563   3.895  0.00  0.00    -0.080 Cl
ATOM     29 CL   UNL     1       0.355  -5.152   5.788  0.00  0.00    -0.082 Cl
ENDBRANCH   6  22
BRANCH   1  30
ATOM     30  C   UNL     1      -1.877  -1.992   0.009  0.00  0.00    +0.030 C 
BRANCH  30  31
ATOM     31  C   UNL     1      -1.752  -0.467   0.016  0.00  0.00    +0.070 C 
BRANCH  31  33
ATOM     32  C   UNL     1      -0.022   1.810   0.012  0.00  0.00    +0.084 C 
ATOM     33  S   UNL     1       0.002  -0.004   0.002  0.00  0.00    -0.164 S 
ENDBRANCH  31  33
ENDBRANCH  30  31
ENDBRANCH   1  30
TORSDOF 4
