REMARK  Name = ZINC23134259
REMARK  9 active torsions:
REMARK  status: ('A' for Active; 'I' for Inactive)
REMARK    1  A    between atoms: C_1  and  C_2
REMARK    2  A    between atoms: C_2  and  C_3
REMARK    3  A    between atoms: C_2  and  C_4
REMARK    4  A    between atoms: C_4  and  C_6
REMARK    5  A    between atoms: C_4  and  N_26
REMARK    6  A    between atoms: C_15  and  C_21
REMARK    7  A    between atoms: C_21  and  O_23
REMARK    8  A    between atoms: O_23  and  C_24
REMARK    9  A    between atoms: C_27  and  C_29
REMARK                            x       y       z     vdW  Elec       q    Type
REMARK                         _______ _______ _______ _____ _____    ______ ____
ROOT
ATOM      1  C   UNL     1      -4.198  -2.265  -1.220  0.00  0.00    +0.236 C 
ATOM      2  O   UNL     1      -4.321  -1.439  -2.099  0.00  0.00    -0.274 OA
ATOM      3  N   UNL     1      -3.618  -1.925  -0.051  0.00  0.00    -0.295 N 
ATOM      4  C   UNL     1      -3.562  -2.875   1.070  0.00  0.00    +0.114 C 
ATOM      5  C   UNL     1      -2.098  -3.219   1.365  0.00  0.00    +0.072 C 
ATOM      6  C   UNL     1      -1.287  -1.944   1.379  0.00  0.00    +0.023 A 
ATOM      7  C   UNL     1      -1.697  -0.784   0.833  0.00  0.00    -0.002 A 
ATOM      8  C   UNL     1      -0.641   0.199   1.048  0.00  0.00    +0.005 A 
ATOM      9  C   UNL     1      -0.481   1.544   0.722  0.00  0.00    +0.025 A 
ATOM     10  C   UNL     1       0.687   2.204   1.089  0.00  0.00    +0.060 A 
ATOM     11  C   UNL     1       1.695   1.516   1.781  0.00  0.00    +0.017 A 
ATOM     12  C   UNL     1       1.542   0.201   2.103  0.00  0.00    +0.027 A 
ATOM     13  C   UNL     1       0.379  -0.480   1.747  0.00  0.00    +0.047 A 
ATOM     14  N   UNL     1      -0.047  -1.774   1.931  0.00  0.00    -0.358 N 
ATOM     15  H   UNL     1       0.453  -2.617   2.430  0.00  0.00    +0.166 HD
ATOM     16  C   UNL     1      -3.022  -0.590   0.139  0.00  0.00    +0.145 C 
ENDROOT
BRANCH  10  17
ATOM     17  C   UNL     1       0.868   3.628   0.748  0.00  0.00    +0.339 C 
ATOM     18  O   UNL     1      -0.004   4.224   0.147  0.00  0.00    -0.245 OA
BRANCH  17  19
ATOM     19  O   UNL     1       1.999   4.268   1.103  0.00  0.00    -0.464 OA
ATOM     20  C   UNL     1       2.108   5.668   0.735  0.00  0.00    +0.280 C 
ENDBRANCH  17  19
ENDBRANCH  10  17
BRANCH   1  21
ATOM     21  C   UNL     1      -4.692  -3.672  -1.433  0.00  0.00    +0.162 C 
BRANCH  21  22
ATOM     22  N   UNL     1      -4.454  -4.067  -2.824  0.00  0.00    -0.299 N 
ATOM     23  C   UNL     1      -4.330  -5.371  -3.142  0.00  0.00    +0.251 C 
ATOM     24  O   UNL     1      -4.416  -6.220  -2.274  0.00  0.00    -0.270 OA
ATOM     25  H   UNL     1      -4.377  -3.300  -3.608  0.00  0.00    +0.150 HD
BRANCH  23  26
ATOM     26  C   UNL     1      -4.092  -5.767  -4.533  0.00  0.00    +0.074 A 
ATOM     27  C   UNL     1      -3.937  -7.037  -5.066  0.00  0.00    +0.021 A 
ATOM     28  C   UNL     1      -3.723  -7.125  -6.419  0.00  0.00    +0.008 A 
ATOM     29  C   UNL     1      -3.674  -5.986  -7.159  0.00  0.00    +0.046 A 
ATOM     30  S   UNL     1      -3.934  -4.739  -5.983  0.00  0.00    -0.092 S 
ENDBRANCH  23  26
ENDBRANCH  21  22
BRANCH  21  32
ATOM     31  C   UNL     1      -6.439  -3.334   0.321  0.00  0.00    +0.009 C 
ATOM     32  C   UNL     1      -6.191  -3.737  -1.134  0.00  0.00    +0.012 C 
ATOM     33  C   UNL     1      -6.939  -2.778  -2.063  0.00  0.00    +0.009 C 
ENDBRANCH  21  32
ENDBRANCH   1  21
TORSDOF 6
