REMARK  Name = ZINC24713333
REMARK  8 active torsions:
REMARK  status: ('A' for Active; 'I' for Inactive)
REMARK    1  A    between atoms: C_1  and  C_2
REMARK    2  A    between atoms: C_2  and  C_4
REMARK    3  A    between atoms: C_2  and  S_18
REMARK    4  A    between atoms: C_4  and  C_6
REMARK    5  A    between atoms: C_6  and  C_16
REMARK    6  A    between atoms: S_18  and  C_19
REMARK    7  A    between atoms: N_28  and  C_29
REMARK    8  A    between atoms: C_29  and  C_30
REMARK                            x       y       z     vdW  Elec       q    Type
REMARK                         _______ _______ _______ _____ _____    ______ ____
ROOT
ATOM      1  C   UNL     1      -5.668  -1.100  -0.092  0.00  0.00    +0.028 C 
ATOM      2  C   UNL     1      -4.327  -1.768   0.219  0.00  0.00    +0.123 C 
ENDROOT
BRANCH   2   3
ATOM      3  C   UNL     1      -4.484  -2.681   1.408  0.00  0.00    +0.189 C 
ATOM      4  O   UNL     1      -4.213  -2.279   2.523  0.00  0.00    -0.290 OA
BRANCH   3   5
ATOM      5  C   UNL     1      -4.944  -3.996   1.228  0.00  0.00    +0.131 C 
ATOM      6  C   UNL     1      -5.091  -4.847   2.338  0.00  0.00    +0.114 C 
ATOM      7  N   UNL     1      -4.816  -4.516   3.626  0.00  0.00    -0.300 N 
ATOM      8  C   UNL     1      -5.090  -5.617   4.428  0.00  0.00    +0.054 A 
ATOM      9  C   UNL     1      -4.995  -5.842   5.795  0.00  0.00    +0.025 A 
ATOM     10  C   UNL     1      -5.340  -7.073   6.315  0.00  0.00    +0.002 A 
ATOM     11  C   UNL     1      -5.781  -8.086   5.479  0.00  0.00    +0.002 A 
ATOM     12  C   UNL     1      -5.878  -7.873   4.119  0.00  0.00    +0.025 A 
ATOM     13  C   UNL     1      -5.534  -6.639   3.586  0.00  0.00    +0.054 A 
ATOM     14  N   UNL     1      -5.526  -6.133   2.291  0.00  0.00    -0.300 N 
ATOM     15  H   UNL     1      -4.443  -3.509   3.867  0.00  0.00    +0.153 HD
ATOM     16  H   UNL     1      -5.796  -6.587   1.326  0.00  0.00    +0.153 HD
BRANCH   5  17
ATOM     17  C   UNL     1      -5.264  -4.469  -0.085  0.00  0.00    +0.106 C 
ATOM     18  N   UNL     1      -5.517  -4.845  -1.126  0.00  0.00    -0.191 NA
ENDBRANCH   5  17
ENDBRANCH   3   5
ENDBRANCH   2   3
BRANCH   2  19
ATOM     19  S   UNL     1      -3.092  -0.498   0.593  0.00  0.00    -0.076 S 
BRANCH  19  20
ATOM     20  C   UNL     1      -3.000   0.308  -0.971  0.00  0.00    +0.173 A 
ATOM     21  N   UNL     1      -3.751  -0.131  -1.945  0.00  0.00    -0.222 NA
ATOM     22  C   UNL     1      -3.735   0.442  -3.185  0.00  0.00    +0.086 A 
ATOM     23  C   UNL     1      -4.478   0.085  -4.320  0.00  0.00    +0.036 A 
ATOM     24  C   UNL     1      -4.330   0.772  -5.473  0.00  0.00    +0.048 A 
ATOM     25  S   UNL     1      -3.109   2.002  -5.045  0.00  0.00    -0.090 S 
ATOM     26  C   UNL     1      -2.863   1.533  -3.352  0.00  0.00    +0.102 A 
ATOM     27  C   UNL     1      -2.069   1.998  -2.307  0.00  0.00    +0.269 A 
ATOM     28  O   UNL     1      -1.320   2.948  -2.464  0.00  0.00    -0.266 OA
ATOM     29  N   UNL     1      -2.146   1.365  -1.112  0.00  0.00    -0.283 N 
BRANCH  29  30
ATOM     30  C   UNL     1      -1.328   1.812   0.018  0.00  0.00    +0.154 C 
BRANCH  30  31
ATOM     31  C   UNL     1      -0.013   1.076   0.008  0.00  0.00    -0.013 C 
ATOM     32  C   UNL     1       1.113   1.746   0.001  0.00  0.00    +0.005 C 
ENDBRANCH  30  31
ENDBRANCH  29  30
ENDBRANCH  19  20
ENDBRANCH   2  19
TORSDOF 7
