REMARK  Name = ZINC13064182
REMARK  12 active torsions:
REMARK  status: ('A' for Active; 'I' for Inactive)
REMARK    1  A    between atoms: C_1  and  C_2
REMARK    2  A    between atoms: C_2  and  C_3
REMARK    3  A    between atoms: C_3  and  C_5
REMARK    4  A    between atoms: C_3  and  N_61
REMARK    5  A    between atoms: N_9  and  C_10
REMARK    6  A    between atoms: C_10  and  C_11
REMARK    7  A    between atoms: C_16  and  C_17
REMARK    8  A    between atoms: C_16  and  N_61
REMARK    9  A    between atoms: C_22  and  C_23
REMARK   10  A    between atoms: C_22  and  N_61
REMARK   11  A    between atoms: C_27  and  O_35
REMARK   12  A    between atoms: O_35  and  C_36
REMARK                            x       y       z     vdW  Elec       q    Type
REMARK                         _______ _______ _______ _____ _____    ______ ____
ROOT
ATOM      1  N   UNL     1      -0.118  -0.367   2.286  0.00  0.00    +0.392 N 
ATOM      2  H   UNL     1       0.243  -0.801   3.144  0.00  0.00    -0.080 HD
ENDROOT
BRANCH   1   3
ATOM      3  C   UNL     1      -0.390   1.062   2.549  0.00  0.00    +0.003 C 
BRANCH   3   4
ATOM      4  C   UNL     1      -1.162   1.179   3.838  0.00  0.00    +0.139 A 
ATOM      5  N   UNL     1      -2.337   0.659   4.096  0.00  0.00    -0.115 NA
ATOM      6  N   UNL     1      -2.658   0.982   5.302  0.00  0.00    -0.023 NA
ATOM      7  N   UNL     1      -1.718   1.694   5.819  0.00  0.00    -0.044 NA
ATOM      8  N   UNL     1      -0.776   1.833   4.949  0.00  0.00    -0.223 N 
BRANCH   8   9
ATOM      9  C   UNL     1       0.478   2.569   5.135  0.00  0.00    +0.221 C 
BRANCH   9  10
ATOM     10  C   UNL     1       0.248   4.032   4.853  0.00  0.00    +0.126 A 
ATOM     11  C   UNL     1      -0.094   4.963   5.761  0.00  0.00    +0.046 A 
ATOM     12  C   UNL     1      -0.202   6.191   5.069  0.00  0.00    +0.041 A 
ATOM     13  C   UNL     1       0.074   5.934   3.777  0.00  0.00    +0.195 A 
ATOM     14  O   UNL     1       0.346   4.625   3.652  0.00  0.00    -0.466 OA
ENDBRANCH   9  10
ENDBRANCH   8   9
ENDBRANCH   3   4
BRANCH   3  16
ATOM     15  C   UNL     1      -1.349   3.178   1.628  0.00  0.00    +0.002 C 
ATOM     16  C   UNL     1      -1.208   1.670   1.408  0.00  0.00    -0.011 C 
ENDBRANCH   3  16
ENDBRANCH   1   3
BRANCH   1  17
ATOM     17  C   UNL     1      -1.364  -1.054   1.888  0.00  0.00    -0.034 C 
BRANCH  17  18
ATOM     18  C   UNL     1      -1.148  -2.542   1.982  0.00  0.00    -0.027 A 
ATOM     19  C   UNL     1      -1.399  -3.377   3.020  0.00  0.00    +0.009 A 
ATOM     20  C   UNL     1      -1.119  -4.724   2.879  0.00  0.00    +0.008 A 
ATOM     21  C   UNL     1      -0.602  -5.169   1.708  0.00  0.00    +0.045 A 
ATOM     22  S   UNL     1      -0.502  -3.664   0.752  0.00  0.00    -0.103 S 
ENDBRANCH  17  18
ENDBRANCH   1  17
BRANCH   1  23
ATOM     23  C   UNL     1       0.896  -0.500   1.218  0.00  0.00    -0.036 C 
BRANCH  23  24
ATOM     24  C   UNL     1       2.256  -0.225   1.806  0.00  0.00    +0.001 A 
ATOM     25  C   UNL     1       3.013  -1.251   2.268  0.00  0.00    +0.017 A 
ATOM     26  C   UNL     1       4.331  -0.951   2.829  0.00  0.00    +0.002 A 
ATOM     27  C   UNL     1       5.158  -1.969   3.315  0.00  0.00    +0.055 A 
ATOM     28  C   UNL     1       6.393  -1.651   3.843  0.00  0.00    +0.121 A 
ATOM     29  C   UNL     1       6.816  -0.324   3.891  0.00  0.00    +0.047 A 
ATOM     30  C   UNL     1       6.011   0.687   3.416  0.00  0.00    +0.030 A 
ATOM     31  C   UNL     1       4.763   0.388   2.880  0.00  0.00    +0.049 A 
ATOM     32  N   UNL     1       3.941   1.387   2.398  0.00  0.00    -0.322 N 
ATOM     33  H   UNL     1       4.240   2.309   2.434  0.00  0.00    +0.169 HD
ATOM     34  C   UNL     1       2.734   1.101   1.881  0.00  0.00    +0.251 A 
ATOM     35  O   UNL     1       2.036   2.009   1.464  0.00  0.00    -0.268 OA
BRANCH  28  36
ATOM     36  O   UNL     1       7.200  -2.636   4.317  0.00  0.00    -0.495 OA
ATOM     37  C   UNL     1       8.465  -2.238   4.849  0.00  0.00    +0.277 C 
ENDBRANCH  28  36
ENDBRANCH  23  24
ENDBRANCH   1  23
TORSDOF 10
