REMARK  Name = ZINC15444942
REMARK  14 active torsions:
REMARK  status: ('A' for Active; 'I' for Inactive)
REMARK    1  A    between atoms: C_1  and  C_2
REMARK    2  A    between atoms: C_2  and  C_3
REMARK    3  A    between atoms: C_3  and  N_63
REMARK    4  A    between atoms: C_4  and  C_5
REMARK    5  A    between atoms: C_4  and  N_63
REMARK    6  A    between atoms: N_7  and  C_8
REMARK    7  A    between atoms: C_16  and  C_17
REMARK    8  A    between atoms: C_16  and  N_63
REMARK    9  A    between atoms: N_19  and  C_20
REMARK   10  A    between atoms: N_19  and  C_21
REMARK   11  A    between atoms: C_21  and  C_22
REMARK   12  A    between atoms: N_24  and  C_25
REMARK   13  A    between atoms: C_26  and  C_32
REMARK   14  A    between atoms: C_30  and  C_31
REMARK                            x       y       z     vdW  Elec       q    Type
REMARK                         _______ _______ _______ _____ _____    ______ ____
ROOT
ATOM      1  C   UNL     1       6.167   3.510  -0.591  0.00  0.00    +0.019 C 
ENDROOT
BRANCH   1   2
ATOM      2  C   UNL     1       5.553   2.260  -1.168  0.00  0.00    +0.199 C 
ATOM      3  O   UNL     1       4.348   2.164  -1.261  0.00  0.00    -0.278 OA
ATOM      4  N   UNL     1       6.344   1.249  -1.580  0.00  0.00    -0.297 N 
ATOM      5  C   UNL     1       7.800   1.365  -1.467  0.00  0.00    +0.132 C 
BRANCH   4   6
ATOM      6  C   UNL     1       5.747   0.034  -2.141  0.00  0.00    +0.203 C 
BRANCH   6   7
ATOM      7  C   UNL     1       5.597   0.190  -3.632  0.00  0.00    +0.235 C 
ATOM      8  O   UNL     1       5.954   1.215  -4.173  0.00  0.00    -0.274 OA
ATOM      9  N   UNL     1       5.067  -0.809  -4.364  0.00  0.00    -0.284 N 
ATOM     10  H   UNL     1       4.745  -1.613  -3.927  0.00  0.00    +0.155 HD
BRANCH   9  11
ATOM     11  C   UNL     1       4.980  -0.687  -5.755  0.00  0.00    +0.039 A 
ATOM     12  C   UNL     1       4.294   0.380  -6.319  0.00  0.00    -0.029 A 
ATOM     13  C   UNL     1       4.214   0.501  -7.692  0.00  0.00    +0.005 A 
ATOM     14  C   UNL     1       4.808  -0.447  -8.506  0.00  0.00    +0.001 A 
ATOM     15  C   UNL     1       5.487  -1.514  -7.949  0.00  0.00    +0.005 A 
ATOM     16  C   UNL     1       5.575  -1.637  -6.576  0.00  0.00    -0.029 A 
ATOM     17  C   UNL     1       6.316  -2.800  -5.968  0.00  0.00    +0.045 C 
ATOM     18  C   UNL     1       3.642   1.410  -5.432  0.00  0.00    +0.045 C 
ENDBRANCH   9  11
ENDBRANCH   6   7
ENDBRANCH   4   6
ENDBRANCH   1   2
BRANCH   1  19
ATOM     19  N   UNL     1       5.086   4.456  -0.244  0.00  0.00    +0.391 N 
ATOM     20  H   UNL     1       4.473   4.575  -1.059  0.00  0.00    -0.080 HD
BRANCH  19  21
ATOM     21  C   UNL     1       4.290   3.922   0.881  0.00  0.00    -0.078 C 
BRANCH  21  23
ATOM     22  C   UNL     1       2.113   4.125   2.090  0.00  0.00    +0.002 C 
ATOM     23  C   UNL     1       2.936   4.633   0.904  0.00  0.00    -0.022 C 
ENDBRANCH  21  23
ENDBRANCH  19  21
BRANCH  19  24
ATOM     24  C   UNL     1       5.660   5.768   0.121  0.00  0.00    +0.020 C 
BRANCH  24  25
ATOM     25  C   UNL     1       6.045   6.495  -1.141  0.00  0.00    +0.201 C 
ATOM     26  O   UNL     1       5.916   5.951  -2.218  0.00  0.00    -0.278 OA
ATOM     27  N   UNL     1       6.536   7.748  -1.074  0.00  0.00    -0.286 N 
ATOM     28  H   UNL     1       6.712   8.154  -0.211  0.00  0.00    +0.155 HD
BRANCH  27  29
ATOM     29  C   UNL     1       6.794   8.463  -2.250  0.00  0.00    +0.052 A 
ATOM     30  C   UNL     1       6.146   8.118  -3.429  0.00  0.00    +0.026 A 
ATOM     31  C   UNL     1       6.402   8.825  -4.588  0.00  0.00    +0.022 A 
ATOM     32  C   UNL     1       7.302   9.876  -4.575  0.00  0.00    +0.042 A 
ATOM     33  C   UNL     1       7.949  10.222  -3.402  0.00  0.00    +0.041 A 
ATOM     34  C   UNL     1       7.693   9.522  -2.238  0.00  0.00    +0.064 A 
ATOM     35 CL   UNL     1       8.499   9.961  -0.765  0.00  0.00    -0.082 Cl
ATOM     36 CL   UNL     1       7.621  10.762  -6.034  0.00  0.00    -0.083 Cl
ENDBRANCH  27  29
ENDBRANCH  24  25
ENDBRANCH  19  24
ENDBRANCH   1  19
TORSDOF 10
