REMARK  Name = ZINC13769904
REMARK  9 active torsions:
REMARK  status: ('A' for Active; 'I' for Inactive)
REMARK    1  A    between atoms: C_1  and  C_2
REMARK    2  A    between atoms: C_9  and  O_25
REMARK    3  A    between atoms: C_10  and  C_13
REMARK    4  A    between atoms: C_14  and  C_15
REMARK    5  A    between atoms: C_14  and  C_17
REMARK    6  A    between atoms: N_19  and  C_20
REMARK    7  A    between atoms: O_25  and  C_26
REMARK    8  A    between atoms: C_28  and  C_33
REMARK    9  A    between atoms: C_30  and  C_32
REMARK                            x       y       z     vdW  Elec       q    Type
REMARK                         _______ _______ _______ _____ _____    ______ ____
ROOT
ATOM      1  C   UNL     1      -0.027  -1.787  11.763  0.00  0.00    +0.047 C 
ATOM      2  C   UNL     1       0.091  -2.319  10.358  0.00  0.00    -0.007 A 
ATOM      3  C   UNL     1       0.389  -3.633  10.144  0.00  0.00    +0.008 A 
ATOM      4  C   UNL     1       0.495  -4.112   8.832  0.00  0.00    +0.019 A 
ATOM      5  C   UNL     1       0.302  -3.275   7.787  0.00  0.00    +0.096 A 
ATOM      6  N   UNL     1       0.003  -1.962   7.991  0.00  0.00    -0.267 N 
ATOM      7  C   UNL     1      -0.106  -1.465   9.259  0.00  0.00    +0.147 A 
ATOM      8  N   UNL     1      -0.398  -0.181   9.480  0.00  0.00    -0.194 NA
ATOM      9  C   UNL     1      -0.594   0.668   8.486  0.00  0.00    +0.235 A 
ATOM     10  C   UNL     1      -0.494   0.214   7.149  0.00  0.00    +0.103 A 
ATOM     11  C   UNL     1      -0.188  -1.155   6.925  0.00  0.00    +0.269 A 
ATOM     12  O   UNL     1      -0.097  -1.592   5.792  0.00  0.00    -0.266 OA
ENDROOT
BRANCH  10  13
ATOM     13  C   UNL     1      -0.697   1.093   6.071  0.00  0.00    +0.042 C 
ATOM     14  C   UNL     1       0.063   2.250   5.965  0.00  0.00    +0.114 C 
BRANCH  14  15
ATOM     15  C   UNL     1      -0.233   3.229   4.914  0.00  0.00    +0.255 C 
ATOM     16  O   UNL     1      -1.145   3.027   4.134  0.00  0.00    -0.269 OA
ATOM     17  N   UNL     1       0.505   4.352   4.812  0.00  0.00    -0.308 N 
ATOM     18  H   UNL     1       1.232   4.513   5.434  0.00  0.00    +0.149 HD
BRANCH  17  19
ATOM     19  C   UNL     1       0.210   5.330   3.762  0.00  0.00    +0.073 C 
ATOM     20  C   UNL     1       0.696   6.742   4.174  0.00  0.00    +0.022 C 
ATOM     21  C   UNL     1       0.891   7.483   2.836  0.00  0.00    +0.002 C 
ATOM     22  C   UNL     1       1.115   6.403   1.763  0.00  0.00    +0.002 C 
ATOM     23  C   UNL     1       1.047   5.043   2.486  0.00  0.00    +0.022 C 
ENDBRANCH  17  19
ENDBRANCH  14  15
BRANCH  14  24
ATOM     24  C   UNL     1       1.136   2.487   6.883  0.00  0.00    +0.104 C 
ATOM     25  N   UNL     1       1.987   2.675   7.612  0.00  0.00    -0.191 NA
ENDBRANCH  14  24
ENDBRANCH  10  13
BRANCH   9  26
ATOM     26  O   UNL     1      -0.889   1.962   8.745  0.00  0.00    -0.437 OA
BRANCH  26  27
ATOM     27  C   UNL     1      -0.891   2.369  10.042  0.00  0.00    +0.131 A 
ATOM     28  C   UNL     1      -2.091   2.633  10.686  0.00  0.00    +0.049 A 
ATOM     29  C   UNL     1      -2.091   3.040  12.006  0.00  0.00    -0.047 A 
ATOM     30  C   UNL     1      -0.895   3.196  12.682  0.00  0.00    +0.007 A 
ATOM     31  C   UNL     1       0.303   2.940  12.041  0.00  0.00    -0.047 A 
ATOM     32  C   UNL     1       0.308   2.526  10.723  0.00  0.00    +0.049 A 
ATOM     33  C   UNL     1       1.605   3.110  12.781  0.00  0.00    +0.044 C 
ATOM     34  C   UNL     1      -3.395   3.321  12.707  0.00  0.00    +0.044 C 
ENDBRANCH  26  27
ENDBRANCH   9  26
TORSDOF 6
