REMARK  Name = ZINC49126441
REMARK  6 active torsions:
REMARK  status: ('A' for Active; 'I' for Inactive)
REMARK    1  A    between atoms: C_1  and  C_2
REMARK    2  A    between atoms: C_2  and  C_4
REMARK    3  A    between atoms: C_2  and  N_10
REMARK    4  A    between atoms: C_11  and  C_13
REMARK    5  A    between atoms: C_15  and  N_20
REMARK    6  A    between atoms: C_17  and  N_19
REMARK                            x       y       z     vdW  Elec       q    Type
REMARK                         _______ _______ _______ _____ _____    ______ ____
ROOT
ATOM      1  N   UNL     1       0.711  -0.489   1.189  0.00  0.00    -0.304 N 
ATOM      2  C   UNL     1       2.054  -0.600   1.174  0.00  0.00    +0.245 C 
ATOM      3  O   UNL     1       2.677  -0.297   0.175  0.00  0.00    -0.270 OA
ATOM      4  H   UNL     1       0.213  -0.731   1.986  0.00  0.00    +0.150 HD
ENDROOT
BRANCH   2   5
ATOM      5  C   UNL     1       2.769  -1.090   2.372  0.00  0.00    +0.040 A 
ATOM      6  C   UNL     1       2.055  -1.443   3.516  0.00  0.00    +0.036 A 
ATOM      7  C   UNL     1       2.729  -1.903   4.638  0.00  0.00    +0.027 A 
ATOM      8  C   UNL     1       4.113  -2.011   4.623  0.00  0.00    +0.045 A 
ATOM      9  C   UNL     1       4.827  -1.659   3.485  0.00  0.00    +0.027 A 
ATOM     10  C   UNL     1       4.159  -1.205   2.358  0.00  0.00    +0.036 A 
BRANCH   9  11
ATOM     11  N   UNL     1       6.220  -1.769   3.474  0.00  0.00    -0.358 N 
ATOM     12  H   UNL     1       6.687  -2.091   4.261  0.00  0.00    +0.142 HD
ATOM     13  H   UNL     1       6.719  -1.524   2.679  0.00  0.00    +0.142 HD
ENDBRANCH   9  11
BRANCH   7  14
ATOM     14  N   UNL     1       2.014  -2.257   5.785  0.00  0.00    -0.358 N 
ATOM     15  H   UNL     1       1.047  -2.181   5.797  0.00  0.00    +0.142 HD
ATOM     16  H   UNL     1       2.485  -2.578   6.570  0.00  0.00    +0.142 HD
ENDBRANCH   7  14
ENDBRANCH   2   5
BRANCH   1  18
ATOM     17  C   UNL     1      -0.019   1.526   0.010  0.00  0.00    +0.033 C 
ATOM     18  C   UNL     1       0.002  -0.004   0.002  0.00  0.00    +0.107 C 
BRANCH  18  19
ATOM     19  C   UNL     1      -1.412  -0.526   0.013  0.00  0.00    +0.011 A 
ATOM     20  C   UNL     1      -2.157  -0.992  -1.019  0.00  0.00    +0.014 A 
ATOM     21  C   UNL     1      -3.447  -1.424  -0.772  0.00  0.00    +0.028 A 
ATOM     22  C   UNL     1      -3.928  -1.369   0.495  0.00  0.00    +0.078 A 
ATOM     23  S   UNL     1      -2.536  -0.697   1.389  0.00  0.00    -0.080 S 
ATOM     24 CL   UNL     1      -5.489  -1.836   1.093  0.00  0.00    -0.076 Cl
ENDBRANCH  18  19
ENDBRANCH   1  18
TORSDOF 5
