REMARK  Name = ZINC13275270
REMARK  6 active torsions:
REMARK  status: ('A' for Active; 'I' for Inactive)
REMARK    1  A    between atoms: C_3  and  O_16
REMARK    2  A    between atoms: C_4  and  N_13
REMARK    3  A    between atoms: C_6  and  C_7
REMARK    4  A    between atoms: N_9  and  C_10
REMARK    5  A    between atoms: C_10  and  C_11
REMARK    6  A    between atoms: O_16  and  C_17
REMARK                            x       y       z     vdW  Elec       q    Type
REMARK                         _______ _______ _______ _____ _____    ______ ____
ROOT
ATOM      1  C   UNL     1       0.947   7.228  -0.177  0.00  0.00    +0.017 A 
ATOM      2  C   UNL     1       1.019   5.856  -0.080  0.00  0.00    +0.049 A 
ATOM      3  C   UNL     1       2.255   5.221  -0.096  0.00  0.00    +0.159 A 
ATOM      4  C   UNL     1       3.423   5.966  -0.206  0.00  0.00    +0.169 A 
ATOM      5  C   UNL     1       3.359   7.338  -0.310  0.00  0.00    +0.049 A 
ATOM      6  C   UNL     1       2.119   7.981  -0.293  0.00  0.00    +0.039 A 
ENDROOT
BRANCH   6   7
ATOM      7  C   UNL     1       2.046   9.451  -0.398  0.00  0.00    +0.245 C 
ATOM      8  O   UNL     1       3.066  10.105  -0.499  0.00  0.00    -0.270 OA
ATOM      9  N   UNL     1       0.849  10.070  -0.382  0.00  0.00    -0.301 N 
ATOM     10  H   UNL     1       0.035   9.549  -0.302  0.00  0.00    +0.150 HD
BRANCH   9  11
ATOM     11  C   UNL     1       0.776  11.529  -0.487  0.00  0.00    +0.229 C 
BRANCH  11  12
ATOM     12  C   UNL     1      -0.665  11.965  -0.445  0.00  0.00    +0.373 C 
ATOM     13  O   UNL     1      -1.543  11.141  -0.339  0.00  0.00    -0.245 OA
ATOM     14  O   UNL     1      -0.975  13.269  -0.525  0.00  0.00    -0.245 OA
ENDBRANCH  11  12
ENDBRANCH   9  11
ENDBRANCH   6   7
BRANCH   4  15
ATOM     15  N   UNL     1       4.737   5.285  -0.217  0.00  0.00    +0.060 N 
ATOM     16  O   UNL     1       5.761   5.937  -0.314  0.00  0.00    -0.126 OA
ATOM     17  O   UNL     1       4.794   4.071  -0.131  0.00  0.00    -0.126 OA
ENDBRANCH   4  15
BRANCH   3  18
ATOM     18  O   UNL     1       2.322   3.869   0.001  0.00  0.00    -0.452 OA
BRANCH  18  19
ATOM     19  C   UNL     1       1.156   3.170  -0.008  0.00  0.00    +0.147 A 
ATOM     20  C   UNL     1       0.595   2.740   1.186  0.00  0.00    +0.049 A 
ATOM     21  C   UNL     1      -0.590   2.030   1.175  0.00  0.00    +0.019 A 
ATOM     22  C   UNL     1      -1.220   1.751  -0.024  0.00  0.00    +0.019 A 
ATOM     23  C   UNL     1      -0.661   2.174  -1.217  0.00  0.00    +0.039 A 
ATOM     24  C   UNL     1       0.525   2.885  -1.211  0.00  0.00    +0.084 A 
ATOM     25 CL   UNL     1       1.223   3.422  -2.707  0.00  0.00    -0.080 Cl
ATOM     26 BR   UNL     1      -2.845   0.784  -0.035  0.00  0.00    -0.050 Br
ENDBRANCH  18  19
ENDBRANCH   3  18
TORSDOF 6
