REMARK  Name = ZINC53714658
REMARK  4 active torsions:
REMARK  status: ('A' for Active; 'I' for Inactive)
REMARK    1  A    between atoms: C_5  and  C_8
REMARK    2  A    between atoms: N_10  and  C_11
REMARK    3  A    between atoms: C_11  and  C_18
REMARK    4  A    between atoms: C_18  and  N_20
REMARK                            x       y       z     vdW  Elec       q    Type
REMARK                         _______ _______ _______ _____ _____    ______ ____
ROOT
ATOM      1  C   UNL     1       3.013  -4.247   1.776  0.00  0.00    +0.079 C 
ATOM      2  C   UNL     1       4.489  -4.373   1.516  0.00  0.00    +0.032 C 
ATOM      3  C   UNL     1       4.951  -3.524   0.316  0.00  0.00    +0.002 C 
ATOM      4  C   UNL     1       3.972  -3.584  -0.871  0.00  0.00    +0.000 C 
ATOM      5  C   UNL     1       3.448  -4.973  -1.116  0.00  0.00    +0.000 C 
ATOM      6  C   UNL     1       2.106  -5.129  -0.371  0.00  0.00    +0.002 C 
ATOM      7  C   UNL     1       2.287  -5.397   1.048  0.00  0.00    +0.032 C 
ENDROOT
BRANCH   1  10
ATOM      8  C   UNL     1       1.213  -2.681   1.282  0.00  0.00    +0.217 C 
ATOM      9  O   UNL     1       0.436  -3.448   1.809  0.00  0.00    -0.275 OA
ATOM     10  N   UNL     1       2.531  -2.961   1.266  0.00  0.00    -0.304 N 
ATOM     11  H   UNL     1       3.161  -2.311   0.918  0.00  0.00    +0.150 HD
BRANCH   8  16
ATOM     12  C   UNL     1      -0.176   0.630  -1.560  0.00  0.00    +0.000 C 
ATOM     13  C   UNL     1      -0.580   1.058  -0.135  0.00  0.00    +0.000 C 
ATOM     14  C   UNL     1      -1.444  -0.021   0.461  0.00  0.00    +0.001 C 
ATOM     15  C   UNL     1      -0.634  -1.027   1.301  0.00  0.00    +0.013 C 
ATOM     16  C   UNL     1       0.705  -1.414   0.643  0.00  0.00    +0.075 C 
ATOM     17  C   UNL     1       0.575  -1.634  -0.840  0.00  0.00    +0.013 C 
ATOM     18  C   UNL     1       0.928  -0.318  -1.563  0.00  0.00    +0.001 C 
ENDBRANCH   8  16
ENDBRANCH   1  10
BRANCH   1  19
ATOM     19  C   UNL     1       2.746  -4.337   3.256  0.00  0.00    +0.070 C 
ATOM     20  S   UNL     1       2.032  -5.633   3.863  0.00  0.00    -0.038 S 
BRANCH  19  21
ATOM     21  N   UNL     1       3.110  -3.326   4.069  0.00  0.00    -0.354 N 
ATOM     22  H   UNL     1       3.477  -2.510   3.694  0.00  0.00    +0.143 HD
ATOM     23  H   UNL     1       3.004  -3.413   5.029  0.00  0.00    +0.143 HD
ENDBRANCH  19  21
ENDBRANCH   1  19
TORSDOF 4
