REMARK  Name = ZINC02150534
REMARK  7 active torsions:
REMARK  status: ('A' for Active; 'I' for Inactive)
REMARK    1  A    between atoms: C_1  and  O_2
REMARK    2  A    between atoms: O_2  and  C_3
REMARK    3  A    between atoms: C_6  and  C_9
REMARK    4  A    between atoms: C_9  and  C_10
REMARK    5  A    between atoms: C_10  and  N_11
REMARK    6  A    between atoms: C_31  and  C_33
REMARK    7  A    between atoms: C_37  and  N_39
REMARK                            x       y       z     vdW  Elec       q    Type
REMARK                         _______ _______ _______ _____ _____    ______ ____
ROOT
ATOM      1  N   UNL     1       2.287  -5.960   2.838  0.00  0.00    -0.291 N 
ATOM      2  C   UNL     1       3.150  -4.836   3.162  0.00  0.00    +0.203 C 
ATOM      3  C   UNL     1       3.171  -3.812   2.075  0.00  0.00    +0.234 C 
ATOM      4  O   UNL     1       3.840  -2.816   2.249  0.00  0.00    -0.274 OA
ATOM      5  N   UNL     1       2.502  -3.920   0.925  0.00  0.00    -0.276 N 
ATOM      6  C   UNL     1       1.725  -5.103   0.559  0.00  0.00    +0.167 C 
ATOM      7  C   UNL     1       1.643  -6.089   1.680  0.00  0.00    +0.237 C 
ATOM      8  O   UNL     1       0.945  -7.069   1.524  0.00  0.00    -0.274 OA
ATOM      9  C   UNL     1       2.368  -5.769  -0.666  0.00  0.00    +0.069 C 
ATOM     10  C   UNL     1       2.704  -4.704  -1.679  0.00  0.00    -0.015 A 
ATOM     11  C   UNL     1       2.998  -4.866  -3.088  0.00  0.00    +0.003 A 
ATOM     12  C   UNL     1       3.060  -5.988  -3.921  0.00  0.00    +0.010 A 
ATOM     13  C   UNL     1       3.378  -5.767  -5.238  0.00  0.00    +0.001 A 
ATOM     14  C   UNL     1       3.629  -4.497  -5.731  0.00  0.00    +0.002 A 
ATOM     15  C   UNL     1       3.574  -3.369  -4.930  0.00  0.00    +0.026 A 
ATOM     16  C   UNL     1       3.253  -3.563  -3.588  0.00  0.00    +0.047 A 
ATOM     17  N   UNL     1       3.115  -2.694  -2.545  0.00  0.00    -0.356 N 
ATOM     18  H   UNL     1       3.232  -1.733  -2.600  0.00  0.00    +0.166 HD
ATOM     19  C   UNL     1       2.787  -3.382  -1.409  0.00  0.00    +0.046 A 
ATOM     20  C   UNL     1       2.542  -2.797  -0.036  0.00  0.00    +0.154 C 
ENDROOT
BRANCH  20  21
ATOM     21  C   UNL     1       1.227  -2.061  -0.020  0.00  0.00    -0.019 A 
ATOM     22  C   UNL     1       0.076  -2.694  -0.450  0.00  0.00    +0.006 A 
ATOM     23  C   UNL     1      -1.130  -2.020  -0.435  0.00  0.00    +0.003 A 
ATOM     24  C   UNL     1      -1.186  -0.713   0.015  0.00  0.00    +0.033 A 
ATOM     25  C   UNL     1      -0.034  -0.079   0.439  0.00  0.00    +0.127 A 
ATOM     26  C   UNL     1       1.172  -0.753   0.424  0.00  0.00    +0.038 A 
BRANCH  25  27
ATOM     27  N   UNL     1      -0.093   1.322   0.915  0.00  0.00    +0.056 N 
ATOM     28  O   UNL     1       0.921   1.880   1.293  0.00  0.00    -0.126 OA
ATOM     29  O   UNL     1      -1.155   1.918   0.924  0.00  0.00    -0.126 OA
ENDBRANCH  25  27
ENDBRANCH  20  21
BRANCH   1  30
ATOM     30  C   UNL     1       2.115  -7.011   3.844  0.00  0.00    +0.113 C 
BRANCH  30  31
ATOM     31  C   UNL     1       0.926  -6.667   4.743  0.00  0.00    +0.054 C 
BRANCH  31  35
ATOM     32  C   UNL     1       0.425  -9.733   7.677  0.00  0.00    +0.120 A 
ATOM     33  C   UNL     1       1.240  -8.643   7.944  0.00  0.00    +0.046 A 
ATOM     34  C   UNL     1       1.400  -7.653   6.994  0.00  0.00    +0.007 A 
ATOM     35  C   UNL     1       0.749  -7.748   5.778  0.00  0.00    -0.046 A 
ATOM     36  C   UNL     1      -0.068  -8.832   5.511  0.00  0.00    +0.007 A 
ATOM     37  C   UNL     1      -0.227  -9.827   6.456  0.00  0.00    +0.046 A 
BRANCH  32  39
ATOM     38  C   UNL     1      -0.587 -11.802   8.267  0.00  0.00    +0.277 C 
ATOM     39  O   UNL     1       0.266 -10.709   8.610  0.00  0.00    -0.495 OA
ENDBRANCH  32  39
ENDBRANCH  31  35
ENDBRANCH  30  31
ENDBRANCH   1  30
TORSDOF 6
