REMARK  Name = ZINC64946656
REMARK  11 active torsions:
REMARK  status: ('A' for Active; 'I' for Inactive)
REMARK    1  A    between atoms: C_1  and  C_2
REMARK    2  A    between atoms: C_2  and  O_3
REMARK    3  A    between atoms: O_3  and  C_4
REMARK    4  A    between atoms: C_7  and  C_13
REMARK    5  A    between atoms: C_9  and  O_10
REMARK    6  A    between atoms: O_10  and  C_11
REMARK    7  A    between atoms: C_11  and  C_12
REMARK    8  A    between atoms: C_13  and  N_14
REMARK    9  A    between atoms: N_25  and  C_28
REMARK   10  A    between atoms: C_28  and  C_29
REMARK   11  A    between atoms: C_32  and  C_35
REMARK                            x       y       z     vdW  Elec       q    Type
REMARK                         _______ _______ _______ _____ _____    ______ ____
ROOT
ATOM      1  N   UNL     1       2.374  -6.527   1.116  0.00  0.00    -0.272 N 
ATOM      2  C   UNL     1       2.361  -6.888  -0.185  0.00  0.00    +0.270 A 
ATOM      3  O   UNL     1       1.327  -6.830  -0.826  0.00  0.00    -0.266 OA
ATOM      4  C   UNL     1       3.543  -7.329  -0.794  0.00  0.00    +0.101 A 
ATOM      5  C   UNL     1       4.747  -7.410  -0.097  0.00  0.00    +0.074 A 
ATOM      6  C   UNL     1       5.812  -7.870  -0.867  0.00  0.00    +0.035 A 
ATOM      7  C   UNL     1       5.612  -8.186  -2.165  0.00  0.00    +0.048 A 
ATOM      8  S   UNL     1       3.978  -7.884  -2.421  0.00  0.00    -0.090 S 
ATOM      9  N   UNL     1       4.722  -7.027   1.258  0.00  0.00    -0.228 N 
ATOM     10  C   UNL     1       3.557  -6.590   1.840  0.00  0.00    +0.240 A 
ATOM     11  N   UNL     1       3.805  -6.292   3.087  0.00  0.00    -0.129 NA
ATOM     12  N   UNL     1       5.164  -6.531   3.330  0.00  0.00    -0.206 N 
ATOM     13  C   UNL     1       5.704  -6.994   2.181  0.00  0.00    +0.353 A 
ATOM     14  O   UNL     1       6.867  -7.310   2.007  0.00  0.00    -0.244 OA
ENDROOT
BRANCH   1  15
ATOM     15  C   UNL     1       1.142  -6.064   1.761  0.00  0.00    +0.163 C 
BRANCH  15  19
ATOM     16  C   UNL     1       0.802  -1.825   1.306  0.00  0.00    +0.162 A 
ATOM     17  C   UNL     1       0.261  -2.673   0.353  0.00  0.00    +0.050 A 
ATOM     18  C   UNL     1       0.372  -4.043   0.502  0.00  0.00    +0.009 A 
ATOM     19  C   UNL     1       1.024  -4.570   1.602  0.00  0.00    -0.024 A 
ATOM     20  C   UNL     1       1.566  -3.730   2.557  0.00  0.00    +0.054 A 
ATOM     21  C   UNL     1       1.462  -2.356   2.410  0.00  0.00    +0.162 A 
BRANCH  16  22
ATOM     22  O   UNL     1       0.693  -0.477   1.160  0.00  0.00    -0.489 OA
BRANCH  22  24
ATOM     23  C   UNL     1      -0.019   1.526   0.010  0.00  0.00    +0.048 C 
ATOM     24  C   UNL     1       0.002  -0.004   0.002  0.00  0.00    +0.226 C 
ENDBRANCH  22  24
ENDBRANCH  16  22
BRANCH  21  25
ATOM     25  O   UNL     1       2.000  -1.528   3.345  0.00  0.00    -0.489 OA
BRANCH  25  26
ATOM     26  C   UNL     1       2.664  -2.143   4.451  0.00  0.00    +0.226 C 
ATOM     27  C   UNL     1       3.200  -1.060   5.390  0.00  0.00    +0.048 C 
ENDBRANCH  25  26
ENDBRANCH  21  25
ENDBRANCH  15  19
ENDBRANCH   1  15
BRANCH  12  28
ATOM     28  C   UNL     1       5.867  -6.329   4.599  0.00  0.00    +0.184 C 
BRANCH  28  29
ATOM     29  C   UNL     1       6.411  -4.925   4.654  0.00  0.00    -0.026 A 
ATOM     30  C   UNL     1       7.677  -4.654   4.169  0.00  0.00    +0.006 A 
ATOM     31  C   UNL     1       8.176  -3.366   4.219  0.00  0.00    +0.004 A 
ATOM     32  C   UNL     1       7.408  -2.348   4.754  0.00  0.00    -0.050 A 
ATOM     33  C   UNL     1       6.142  -2.619   5.238  0.00  0.00    +0.004 A 
ATOM     34  C   UNL     1       5.642  -3.906   5.184  0.00  0.00    +0.006 A 
ATOM     35  C   UNL     1       7.952  -0.944   4.810  0.00  0.00    +0.044 C 
ENDBRANCH  28  29
ENDBRANCH  12  28
TORSDOF 8
