REMARK  Name = ZINC01423421
REMARK  3 active torsions:
REMARK  status: ('A' for Active; 'I' for Inactive)
REMARK    1  A    between atoms: C_12  and  N_14
REMARK    2  A    between atoms: N_14  and  C_15
REMARK    3  A    between atoms: C_22  and  O_24
REMARK                            x       y       z     vdW  Elec       q    Type
REMARK                         _______ _______ _______ _____ _____    ______ ____
ROOT
ATOM      1  C   UNL     1      -0.013   1.076   0.008  0.00  0.00    +0.000 A 
ATOM      2  C   UNL     1       1.177   1.783   0.000  0.00  0.00    +0.001 A 
ATOM      3  C   UNL     1       1.165   3.162   0.007  0.00  0.00    +0.009 A 
ATOM      4  C   UNL     1      -0.050   3.849   0.022  0.00  0.00    -0.014 A 
ATOM      5  C   UNL     1      -1.242   3.129   0.030  0.00  0.00    -0.035 A 
ATOM      6  C   UNL     1      -1.221   1.750   0.017  0.00  0.00    +0.004 A 
ATOM      7  C   UNL     1      -2.375   4.125   0.045  0.00  0.00    +0.071 C 
ATOM      8  C   UNL     1      -1.731   5.490   0.046  0.00  0.00    -0.034 A 
ATOM      9  C   UNL     1      -0.351   5.302   0.032  0.00  0.00    -0.014 A 
ATOM     10  C   UNL     1       0.494   6.415   0.028  0.00  0.00    +0.010 A 
ATOM     11  C   UNL     1      -0.038   7.685   0.039  0.00  0.00    +0.023 A 
ATOM     12  C   UNL     1      -1.416   7.866   0.052  0.00  0.00    +0.028 A 
ATOM     13  C   UNL     1      -2.261   6.761   0.056  0.00  0.00    +0.027 A 
ENDROOT
BRANCH  12  14
ATOM     14  N   UNL     1      -1.952   9.155   0.063  0.00  0.00    -0.337 N 
ATOM     15  H   UNL     1      -2.914   9.280   0.073  0.00  0.00    +0.146 HD
BRANCH  14  16
ATOM     16  C   UNL     1      -1.062  10.318   0.060  0.00  0.00    +0.121 C 
ATOM     17  C   UNL     1      -0.560  10.558   1.502  0.00  0.00    +0.190 C 
ATOM     18  S   UNL     1      -0.514  12.403   1.564  0.00  0.00    -0.027 S 
ATOM     19  O   UNL     1       0.691  12.864   0.967  0.00  0.00    -0.174 OA
ATOM     20  O   UNL     1      -0.866  12.840   2.869  0.00  0.00    -0.174 OA
ATOM     21  C   UNL     1      -1.923  12.713   0.413  0.00  0.00    +0.199 C 
ATOM     22  C   UNL     1      -1.810  11.500  -0.537  0.00  0.00    +0.157 C 
BRANCH  22  23
ATOM     23  O   UNL     1      -3.127  11.074  -0.892  0.00  0.00    -0.388 OA
ATOM     24  H   UNL     1      -3.674  11.770  -1.282  0.00  0.00    +0.210 HD
ENDBRANCH  22  23
ENDBRANCH  14  16
ENDBRANCH  12  14
TORSDOF 3
