REMARK  Name = ZINC37556100
REMARK  8 active torsions:
REMARK  status: ('A' for Active; 'I' for Inactive)
REMARK    1  A    between atoms: C_1  and  C_2
REMARK    2  A    between atoms: C_2  and  C_3
REMARK    3  A    between atoms: C_2  and  N_4
REMARK    4  A    between atoms: N_4  and  C_5
REMARK    5  A    between atoms: N_4  and  S_6
REMARK    6  A    between atoms: S_6  and  C_9
REMARK    7  A    between atoms: C_10  and  N_18
REMARK    8  A    between atoms: N_18  and  N_19
REMARK                            x       y       z     vdW  Elec       q    Type
REMARK                         _______ _______ _______ _____ _____    ______ ____
ROOT
ATOM      1  C   UNL     1      -1.570  -3.136  -0.791  0.00  0.00    +0.222 A 
ATOM      2  C   UNL     1      -0.434  -3.826  -1.067  0.00  0.00    +0.179 A 
ATOM      3  N   UNL     1      -0.557  -5.061  -0.570  0.00  0.00    -0.210 NA
ATOM      4  C   UNL     1      -1.742  -5.180   0.017  0.00  0.00    +0.141 A 
ATOM      5  N   UNL     1      -2.399  -3.983  -0.102  0.00  0.00    -0.282 N 
ATOM      6  C   UNL     1      -3.648  -3.825   0.424  0.00  0.00    +0.094 A 
ATOM      7  C   UNL     1      -4.255  -4.843   1.071  0.00  0.00    +0.018 A 
ATOM      8  C   UNL     1      -3.606  -6.080   1.212  0.00  0.00    +0.005 A 
ATOM      9  C   UNL     1      -2.363  -6.253   0.684  0.00  0.00    +0.047 A 
ENDROOT
BRANCH   1  10
ATOM     10  S   UNL     1      -1.913  -1.464  -1.230  0.00  0.00    +0.080 S 
ATOM     11  O   UNL     1      -3.328  -1.333  -1.256  0.00  0.00    -0.151 OA
ATOM     12  O   UNL     1      -1.099  -1.164  -2.355  0.00  0.00    -0.151 OA
BRANCH  10  13
ATOM     13  N   UNL     1      -1.372  -0.511   0.012  0.00  0.00    -0.176 NA
ATOM     14  C   UNL     1      -2.269  -0.175   1.122  0.00  0.00    +0.132 C 
BRANCH  13  16
ATOM     15  C   UNL     1      -0.019   1.526   0.010  0.00  0.00    +0.025 C 
ATOM     16  C   UNL     1       0.002  -0.004   0.002  0.00  0.00    +0.073 C 
ATOM     17  C   UNL     1       0.742  -0.511   1.242  0.00  0.00    +0.025 C 
ENDBRANCH  13  16
ENDBRANCH  10  13
ENDBRANCH   1  10
BRANCH   2  18
ATOM     18  N   UNL     1       0.679  -3.328  -1.756  0.00  0.00    -0.265 N 
ATOM     19  H   UNL     1       0.679  -2.414  -2.082  0.00  0.00    +0.168 HD
BRANCH  18  20
ATOM     20  N   UNL     1       1.765  -4.128  -1.969  0.00  0.00    -0.255 NA
ATOM     21  H   UNL     1       2.485  -3.635  -2.476  0.00  0.00    +0.140 HD
ATOM     22  H   UNL     1       2.121  -4.494  -1.098  0.00  0.00    +0.140 HD
ENDBRANCH  18  20
ENDBRANCH   2  18
TORSDOF 5
