REMARK  Name = ZINC12712871
REMARK  9 active torsions:
REMARK  status: ('A' for Active; 'I' for Inactive)
REMARK    1  A    between atoms: C_1  and  C_2
REMARK    2  A    between atoms: C_8  and  C_10
REMARK    3  A    between atoms: C_8  and  C_26
REMARK    4  A    between atoms: C_8  and  N_68
REMARK    5  A    between atoms: C_14  and  O_24
REMARK    6  A    between atoms: C_15  and  O_22
REMARK    7  A    between atoms: O_22  and  C_23
REMARK    8  A    between atoms: O_24  and  C_25
REMARK    9  A    between atoms: N_30  and  C_31
REMARK                            x       y       z     vdW  Elec       q    Type
REMARK                         _______ _______ _______ _____ _____    ______ ____
ROOT
ATOM      1  C   UNL     1       1.756  -1.813  -0.024  0.00  0.00    +0.039 C 
ENDROOT
BRANCH   1   2
ATOM      2  C   UNL     1       1.622  -2.454   1.334  0.00  0.00    +0.011 A 
ATOM      3  C   UNL     1       2.731  -2.710   2.073  0.00  0.00    +0.017 A 
ATOM      4  C   UNL     1       2.568  -3.332   3.386  0.00  0.00    +0.002 A 
ATOM      5  C   UNL     1       3.677  -3.619   4.192  0.00  0.00    +0.059 A 
ATOM      6  C   UNL     1       3.491  -4.205   5.424  0.00  0.00    +0.162 A 
ATOM      7  C   UNL     1       2.201  -4.513   5.871  0.00  0.00    +0.163 A 
ATOM      8  C   UNL     1       1.100  -4.234   5.083  0.00  0.00    +0.075 A 
ATOM      9  C   UNL     1       1.270  -3.643   3.837  0.00  0.00    +0.053 A 
ATOM     10  N   UNL     1       0.184  -3.357   3.036  0.00  0.00    -0.322 N 
ATOM     11  H   UNL     1      -0.710  -3.572   3.348  0.00  0.00    +0.169 HD
ATOM     12  C   UNL     1       0.344  -2.780   1.833  0.00  0.00    +0.251 A 
ATOM     13  O   UNL     1      -0.639  -2.537   1.154  0.00  0.00    -0.268 OA
BRANCH   7  14
ATOM     14  O   UNL     1       2.030  -5.091   7.088  0.00  0.00    -0.491 OA
ATOM     15  C   UNL     1       0.689  -5.381   7.486  0.00  0.00    +0.277 C 
ENDBRANCH   7  14
BRANCH   6  16
ATOM     16  O   UNL     1       4.565  -4.486   6.210  0.00  0.00    -0.491 OA
ATOM     17  C   UNL     1       5.853  -4.146   5.694  0.00  0.00    +0.277 C 
ENDBRANCH   6  16
ENDBRANCH   1   2
BRANCH   1  24
ATOM     18  C   UNL     1       1.360  -6.272  -2.062  0.00  0.00    +0.005 C 
ATOM     19  C   UNL     1       0.773  -4.860  -2.006  0.00  0.00    -0.031 C 
ATOM     20  C   UNL     1       0.790  -4.243  -3.407  0.00  0.00    -0.001 C 
ATOM     21  C   UNL     1       0.257  -2.809  -3.331  0.00  0.00    -0.018 C 
ATOM     22  C   UNL     1       1.111  -2.004  -2.349  0.00  0.00    -0.077 C 
ATOM     23  C   UNL     1       1.612  -3.995  -1.062  0.00  0.00    -0.074 C 
ATOM     24  N   UNL     1       1.032  -2.636  -1.015  0.00  0.00    +0.389 N 
ATOM     25  H   UNL     1       0.046  -2.703  -0.736  0.00  0.00    -0.080 HD
ENDBRANCH   1  24
BRANCH   1  26
ATOM     26  C   UNL     1       1.144  -0.436   0.008  0.00  0.00    +0.143 A 
ATOM     27  N   UNL     1      -0.135  -0.148   0.014  0.00  0.00    -0.115 NA
ATOM     28  N   UNL     1      -0.253   1.135   0.045  0.00  0.00    -0.023 NA
ATOM     29  N   UNL     1       0.917   1.672   0.059  0.00  0.00    -0.044 NA
ATOM     30  N   UNL     1       1.804   0.736   0.038  0.00  0.00    -0.227 N 
BRANCH  30  31
ATOM     31  C   UNL     1       3.258   0.916   0.044  0.00  0.00    +0.111 C 
ATOM     32  C   UNL     1       3.675   1.664   1.312  0.00  0.00    +0.027 C 
ATOM     33  C   UNL     1       5.193   1.851   1.318  0.00  0.00    +0.002 C 
ATOM     34  C   UNL     1       5.612   2.660   0.089  0.00  0.00    +0.000 C 
ATOM     35  C   UNL     1       5.196   1.912  -1.179  0.00  0.00    +0.002 C 
ATOM     36  C   UNL     1       3.677   1.725  -1.186  0.00  0.00    +0.027 C 
ENDBRANCH  30  31
ENDBRANCH   1  26
TORSDOF 6
