REMARK  Name = ZINC09950282
REMARK  5 active torsions:
REMARK  status: ('A' for Active; 'I' for Inactive)
REMARK    1  A    between atoms: C_1  and  C_2
REMARK    2  A    between atoms: C_2  and  C_3
REMARK    3  A    between atoms: C_3  and  N_13
REMARK    4  A    between atoms: N_13  and  C_14
REMARK    5  A    between atoms: N_18  and  C_19
REMARK                            x       y       z     vdW  Elec       q    Type
REMARK                         _______ _______ _______ _____ _____    ______ ____
ROOT
ATOM      1  C   UNL     1      -0.077   5.806   0.024  0.00  0.00    +0.026 C 
ATOM      2  C   UNL     1      -0.131   4.911  -1.029  0.00  0.00    +0.116 C 
ATOM      3  C   UNL     1       0.842   4.966  -2.135  0.00  0.00    +0.256 C 
ATOM      4  O   UNL     1       1.724   5.804  -2.151  0.00  0.00    -0.270 OA
ATOM      5  N   UNL     1       0.729   4.060  -3.128  0.00  0.00    -0.263 N 
ATOM      6  C   UNL     1      -0.236   3.131  -3.122  0.00  0.00    +0.143 C 
ATOM      7  S   UNL     1      -0.303   2.023  -4.426  0.00  0.00    -0.018 S 
ATOM      8  N   UNL     1      -1.157   3.026  -2.153  0.00  0.00    -0.263 N 
ATOM      9  C   UNL     1      -1.163   3.861  -1.094  0.00  0.00    +0.256 C 
ATOM     10  O   UNL     1      -2.001   3.753  -0.218  0.00  0.00    -0.270 OA
ATOM     11  H   UNL     1       1.362   4.082  -3.863  0.00  0.00    +0.157 HD
ATOM     12  H   UNL     1      -1.831   2.332  -2.213  0.00  0.00    +0.157 HD
ENDROOT
BRANCH   1  14
ATOM     13  C   UNL     1      -0.802   4.812   2.177  0.00  0.00    +0.010 C 
ATOM     14  C   UNL     1      -1.162   5.805   1.070  0.00  0.00    +0.048 C 
ENDBRANCH   1  14
BRANCH   1  15
ATOM     15  N   UNL     1       0.946   6.681   0.115  0.00  0.00    -0.302 N 
ATOM     16  H   UNL     1       1.859   6.357   0.154  0.00  0.00    +0.153 HD
BRANCH  15  17
ATOM     17  C   UNL     1       0.691   8.050   0.152  0.00  0.00    +0.121 A 
ATOM     18  C   UNL     1      -0.524   8.647   0.004  0.00  0.00    +0.065 A 
ATOM     19  C   UNL     1      -0.338  10.028   0.111  0.00  0.00    +0.136 A 
ATOM     20  N   UNL     1       0.934  10.261   0.305  0.00  0.00    -0.178 NA
ATOM     21  N   UNL     1       1.609   9.034   0.336  0.00  0.00    -0.247 N 
BRANCH  21  22
ATOM     22  C   UNL     1       3.049   8.845   0.530  0.00  0.00    +0.109 C 
ATOM     23  C   UNL     1       3.488   9.474   1.869  0.00  0.00    +0.027 C 
ATOM     24  C   UNL     1       4.885  10.073   1.566  0.00  0.00    +0.002 C 
ATOM     25  C   UNL     1       4.718  10.622   0.127  0.00  0.00    +0.002 C 
ATOM     26  C   UNL     1       3.831   9.574  -0.577  0.00  0.00    +0.027 C 
ENDBRANCH  21  22
ENDBRANCH  15  17
ENDBRANCH   1  15
TORSDOF 4
