REMARK  Name = ZINC10084411
REMARK  12 active torsions:
REMARK  status: ('A' for Active; 'I' for Inactive)
REMARK    1  A    between atoms: C_1  and  C_2
REMARK    2  A    between atoms: C_4  and  N_27
REMARK    3  A    between atoms: C_7  and  N_8
REMARK    4  A    between atoms: C_9  and  C_11
REMARK    5  A    between atoms: N_13  and  C_14
REMARK    6  A    between atoms: C_14  and  C_15
REMARK    7  A    between atoms: C_15  and  C_17
REMARK    8  A    between atoms: C_15  and  N_53
REMARK    9  A    between atoms: C_20  and  O_23
REMARK   10  A    between atoms: O_23  and  C_24
REMARK   11  A    between atoms: C_25  and  N_53
REMARK   12  A    between atoms: C_26  and  N_53
REMARK                            x       y       z     vdW  Elec       q    Type
REMARK                         _______ _______ _______ _____ _____    ______ ____
ROOT
ATOM      1  C   UNL     1      -0.672   0.808  -1.948  0.00  0.00    +0.299 C 
ATOM      2  O   UNL     1       0.471   0.451  -2.144  0.00  0.00    -0.265 OA
ATOM      3  N   UNL     1      -1.054   1.199  -0.716  0.00  0.00    -0.309 N 
ATOM      4  H   UNL     1      -1.968   1.484  -0.560  0.00  0.00    +0.149 HD
ENDROOT
BRANCH   1   6
ATOM      5  N   UNL     1      -1.273   0.424  -4.304  0.00  0.00    -0.278 N 
ATOM      6  C   UNL     1      -1.655   0.815  -3.072  0.00  0.00    +0.303 C 
ATOM      7  O   UNL     1      -2.799   1.172  -2.876  0.00  0.00    -0.265 OA
ATOM      8  H   UNL     1      -0.382   0.067  -4.445  0.00  0.00    +0.155 HD
BRANCH   5  15
ATOM      9  C   UNL     1      -0.206   1.040  -6.869  0.00  0.00    +0.046 C 
ATOM     10  C   UNL     1      -1.683   0.833  -6.648  0.00  0.00    -0.027 A 
ATOM     11  C   UNL     1      -2.562   0.936  -7.708  0.00  0.00    +0.038 A 
ATOM     12  C   UNL     1      -3.917   0.751  -7.505  0.00  0.00    +0.127 A 
ATOM     13  C   UNL     1      -4.396   0.457  -6.241  0.00  0.00    +0.034 A 
ATOM     14  C   UNL     1      -3.523   0.348  -5.178  0.00  0.00    +0.026 A 
ATOM     15  C   UNL     1      -2.160   0.533  -5.378  0.00  0.00    +0.037 A 
BRANCH  12  16
ATOM     16  N   UNL     1      -4.857   0.868  -8.643  0.00  0.00    +0.056 N 
ATOM     17  O   UNL     1      -6.051   0.705  -8.465  0.00  0.00    -0.126 OA
ATOM     18  O   UNL     1      -4.436   1.126  -9.756  0.00  0.00    -0.126 OA
ENDBRANCH  12  16
ENDBRANCH   5  15
ENDBRANCH   1   6
BRANCH   3  19
ATOM     19  C   UNL     1      -0.089   1.192   0.386  0.00  0.00    +0.094 C 
BRANCH  19  20
ATOM     20  C   UNL     1      -0.718   1.846   1.618  0.00  0.00    -0.021 C 
BRANCH  20  21
ATOM     21  C   UNL     1       0.238   1.754   2.779  0.00  0.00    -0.059 A 
ATOM     22  C   UNL     1       1.211   2.721   2.950  0.00  0.00    +0.005 A 
ATOM     23  C   UNL     1       2.085   2.643   4.017  0.00  0.00    +0.046 A 
ATOM     24  C   UNL     1       1.994   1.585   4.910  0.00  0.00    +0.120 A 
ATOM     25  C   UNL     1       1.021   0.612   4.733  0.00  0.00    +0.046 A 
ATOM     26  C   UNL     1       0.145   0.699   3.668  0.00  0.00    +0.005 A 
BRANCH  24  27
ATOM     27  O   UNL     1       2.857   1.502   5.957  0.00  0.00    -0.495 OA
ATOM     28  C   UNL     1       3.833   2.538   6.077  0.00  0.00    +0.277 C 
ENDBRANCH  24  27
ENDBRANCH  20  21
BRANCH  20  31
ATOM     29  C   UNL     1      -0.056   3.799   0.350  0.00  0.00    -0.096 C 
ATOM     30  C   UNL     1      -2.391   3.430   0.874  0.00  0.00    -0.096 C 
ATOM     31  N   UNL     1      -1.002   3.272   1.355  0.00  0.00    +0.382 N 
ATOM     32  H   UNL     1      -0.890   3.801   2.228  0.00  0.00    -0.082 HD
ENDBRANCH  20  31
ENDBRANCH  19  20
ENDBRANCH   3  19
TORSDOF 8
