REMARK  Name = ZINC64363136
REMARK  5 active torsions:
REMARK  status: ('A' for Active; 'I' for Inactive)
REMARK    1  A    between atoms: C_1  and  N_2
REMARK    2  A    between atoms: N_2  and  C_3
REMARK    3  A    between atoms: N_2  and  C_17
REMARK    4  A    between atoms: C_3  and  C_4
REMARK    5  A    between atoms: C_4  and  N_6
REMARK                            x       y       z     vdW  Elec       q    Type
REMARK                         _______ _______ _______ _____ _____    ______ ____
ROOT
ATOM      1  N   UNL     1      -1.612  -1.679   2.844  0.00  0.00    -0.146 NA
ATOM      2  C   UNL     1      -2.856  -1.833   3.290  0.00  0.00    +0.198 A 
ATOM      3  N   UNL     1      -3.982  -1.451   2.632  0.00  0.00    -0.326 N 
ATOM      4  H   UNL     1      -4.013  -1.022   1.762  0.00  0.00    +0.169 HD
ATOM      5  C   UNL     1      -5.080  -1.781   3.418  0.00  0.00    +0.065 A 
ATOM      6  C   UNL     1      -6.449  -1.627   3.246  0.00  0.00    +0.028 A 
ATOM      7  C   UNL     1      -7.318  -2.064   4.226  0.00  0.00    +0.002 A 
ATOM      8  C   UNL     1      -6.832  -2.657   5.378  0.00  0.00    +0.002 A 
ATOM      9  C   UNL     1      -5.472  -2.815   5.559  0.00  0.00    +0.028 A 
ATOM     10  C   UNL     1      -4.589  -2.379   4.581  0.00  0.00    +0.065 A 
ATOM     11  N   UNL     1      -3.203  -2.404   4.474  0.00  0.00    -0.326 N 
ATOM     12  H   UNL     1      -2.588  -2.765   5.132  0.00  0.00    +0.169 HD
ENDROOT
BRANCH   1  13
ATOM     13  C   UNL     1      -1.388  -1.004   1.721  0.00  0.00    +0.256 C 
ATOM     14  O   UNL     1      -2.323  -0.611   1.051  0.00  0.00    -0.272 OA
BRANCH  13  15
ATOM     15  C   UNL     1       0.026  -0.727   1.278  0.00  0.00    +0.202 C 
BRANCH  15  17
ATOM     16  C   UNL     1      -0.014   1.490   0.045  0.00  0.00    +0.130 C 
ATOM     17  N   UNL     1       0.005   0.026   0.021  0.00  0.00    -0.324 N 
BRANCH  17  18
ATOM     18  C   UNL     1       0.004  -0.653  -1.199  0.00  0.00    +0.030 A 
ATOM     19  C   UNL     1       0.016  -2.042  -1.224  0.00  0.00    +0.023 A 
ATOM     20  C   UNL     1       0.014  -2.710  -2.432  0.00  0.00    +0.002 A 
ATOM     21  C   UNL     1       0.000  -1.998  -3.618  0.00  0.00    +0.000 A 
ATOM     22  C   UNL     1      -0.012  -0.615  -3.597  0.00  0.00    +0.002 A 
ATOM     23  C   UNL     1      -0.016   0.059  -2.392  0.00  0.00    +0.023 A 
ENDBRANCH  17  18
ENDBRANCH  15  17
ENDBRANCH  13  15
ENDBRANCH   1  13
TORSDOF 4
