REMARK  Name = ZINC36257844
REMARK  3 active torsions:
REMARK  status: ('A' for Active; 'I' for Inactive)
REMARK    1  A    between atoms: C_2  and  N_19
REMARK    2  A    between atoms: C_5  and  C_6
REMARK    3  A    between atoms: N_8  and  C_9
REMARK                            x       y       z     vdW  Elec       q    Type
REMARK                         _______ _______ _______ _____ _____    ______ ____
ROOT
ATOM      1  C   UNL     1      -1.169  -0.887   0.009  0.00  0.00    +0.263 C 
ATOM      2  O   UNL     1      -2.289  -0.412   0.022  0.00  0.00    -0.269 OA
ATOM      3  N   UNL     1      -1.005  -2.225   0.000  0.00  0.00    -0.307 N 
ATOM      4  H   UNL     1      -0.112  -2.603  -0.011  0.00  0.00    +0.149 HD
ENDROOT
BRANCH   3   5
ATOM      5  C   UNL     1      -2.174  -3.107   0.007  0.00  0.00    +0.070 C 
ATOM      6  C   UNL     1      -2.671  -3.311  -1.427  0.00  0.00    +0.003 C 
ATOM      7  C   UNL     1      -3.868  -4.262  -1.422  0.00  0.00    -0.080 C 
ATOM      8  N   UNL     1      -3.458  -5.570  -0.893  0.00  0.00    +0.383 N 
ATOM      9  C   UNL     1      -2.978  -5.417   0.482  0.00  0.00    -0.067 C 
ATOM     10  C   UNL     1      -1.789  -4.465   0.602  0.00  0.00    +0.010 C 
ATOM     11  C   UNL     1      -4.096  -5.122   1.492  0.00  0.00    -0.012 C 
ATOM     12  C   UNL     1      -4.235  -6.645   1.659  0.00  0.00    -0.003 C 
ATOM     13  C   UNL     1      -2.768  -6.751   1.211  0.00  0.00    -0.012 C 
ATOM     14  H   UNL     1      -4.246  -6.200  -0.906  0.00  0.00    -0.085 HD
ATOM     15  H   UNL     1      -2.719  -5.947  -1.467  0.00  0.00    -0.085 HD
ENDBRANCH   3   5
BRANCH   1  20
ATOM     16  C   UNL     1      -0.017   1.375   0.010  0.00  0.00    +0.067 A 
ATOM     17  C   UNL     1       1.314   1.804  -0.001  0.00  0.00    +0.146 A 
ATOM     18  C   UNL     1       2.105   0.704  -0.014  0.00  0.00    +0.144 A 
ATOM     19  N   UNL     1       1.320  -0.401  -0.013  0.00  0.00    -0.248 NA
ATOM     20  C   UNL     1       0.002  -0.004   0.002  0.00  0.00    +0.128 A 
BRANCH  17  21
ATOM     21  N   UNL     1       1.777   3.209   0.002  0.00  0.00    +0.058 N 
ATOM     22  O   UNL     1       0.971   4.111   0.014  0.00  0.00    -0.126 OA
ATOM     23  O   UNL     1       2.960   3.457  -0.008  0.00  0.00    -0.126 OA
ENDBRANCH  17  21
ENDBRANCH   1  20
TORSDOF 3
