REMARK  Name = ZINC12553070
REMARK  13 active torsions:
REMARK  status: ('A' for Active; 'I' for Inactive)
REMARK    1  A    between atoms: C_1  and  C_2
REMARK    2  A    between atoms: C_2  and  N_3
REMARK    3  A    between atoms: N_3  and  C_4
REMARK    4  A    between atoms: C_4  and  C_5
REMARK    5  A    between atoms: C_14  and  C_16
REMARK    6  A    between atoms: C_16  and  S_17
REMARK    7  A    between atoms: S_17  and  C_18
REMARK    8  A    between atoms: C_21  and  C_30
REMARK    9  A    between atoms: N_22  and  C_23
REMARK   10  A    between atoms: C_30  and  C_32
REMARK   11  A    between atoms: C_30  and  N_62
REMARK   12  A    between atoms: C_33  and  N_62
REMARK   13  A    between atoms: C_34  and  N_62
REMARK                            x       y       z     vdW  Elec       q    Type
REMARK                         _______ _______ _______ _____ _____    ______ ____
ROOT
ATOM      1  C   UNL     1       8.521  -4.836  -1.393  0.00  0.00    +0.197 A 
ATOM      2  N   UNL     1       9.108  -3.885  -2.083  0.00  0.00    -0.122 NA
ATOM      3  N   UNL     1       9.903  -4.401  -2.951  0.00  0.00    -0.135 NA
ATOM      4  C   UNL     1       9.874  -5.701  -2.869  0.00  0.00    +0.125 A 
ATOM      5  N   UNL     1       8.996  -6.027  -1.870  0.00  0.00    -0.275 N 
ENDROOT
BRANCH   5   6
ATOM      6  C   UNL     1       8.652  -7.314  -1.430  0.00  0.00    +0.050 A 
ATOM      7  C   UNL     1       9.610  -8.123  -0.833  0.00  0.00    +0.029 A 
ATOM      8  C   UNL     1       9.268  -9.387  -0.395  0.00  0.00    +0.040 A 
ATOM      9  C   UNL     1       7.975  -9.853  -0.561  0.00  0.00    +0.124 A 
ATOM     10  C   UNL     1       7.020  -9.050  -1.161  0.00  0.00    +0.040 A 
ATOM     11  C   UNL     1       7.356  -7.782  -1.595  0.00  0.00    +0.029 A 
ATOM     12  F   UNL     1       7.644 -11.092  -0.137  0.00  0.00    -0.205 F 
ENDBRANCH   5   6
BRANCH   4  13
ATOM     13  C   UNL     1      10.664  -6.667  -3.715  0.00  0.00    -0.003 C 
ATOM     14  C   UNL     1      12.123  -6.673  -3.254  0.00  0.00    -0.005 C 
BRANCH  13  17
ATOM     15  C   UNL     1      11.281  -4.969  -5.327  0.00  0.00    -0.096 C 
ATOM     16  C   UNL     1      11.150  -7.291  -6.003  0.00  0.00    -0.096 C 
ATOM     17  N   UNL     1      10.569  -6.250  -5.130  0.00  0.00    +0.382 N 
ATOM     18  H   UNL     1       9.580  -6.123  -5.375  0.00  0.00    -0.082 HD
ENDBRANCH  13  17
ENDBRANCH   4  13
BRANCH   1  19
ATOM     19  S   UNL     1       7.351  -4.619  -0.094  0.00  0.00    -0.076 S 
BRANCH  19  20
ATOM     20  C   UNL     1       7.256  -2.812  -0.055  0.00  0.00    +0.173 C 
BRANCH  20  22
ATOM     21  N   UNL     1       6.051  -1.073   1.226  0.00  0.00    -0.297 N 
ATOM     22  C   UNL     1       6.284  -2.383   1.014  0.00  0.00    +0.226 C 
ATOM     23  O   UNL     1       5.713  -3.217   1.684  0.00  0.00    -0.275 OA
BRANCH  21  25
ATOM     24  C   UNL     1       8.057   0.321   1.097  0.00  0.00    +0.024 C 
ATOM     25  C   UNL     1       6.742  -0.065   0.417  0.00  0.00    +0.105 C 
ENDBRANCH  21  25
BRANCH  21  26
ATOM     26  C   UNL     1       5.107  -0.655   2.265  0.00  0.00    +0.143 C 
BRANCH  26  27
ATOM     27  C   UNL     1       3.725  -0.548   1.674  0.00  0.00    -0.026 A 
ATOM     28  C   UNL     1       2.885  -1.646   1.677  0.00  0.00    +0.009 A 
ATOM     29  C   UNL     1       1.617  -1.553   1.135  0.00  0.00    +0.050 A 
ATOM     30  C   UNL     1       1.183  -0.356   0.589  0.00  0.00    +0.166 A 
ATOM     31  C   UNL     1       2.028   0.751   0.586  0.00  0.00    +0.167 A 
ATOM     32  C   UNL     1       3.298   0.650   1.131  0.00  0.00    +0.054 A 
ATOM     33  O   UNL     1       1.376   1.797  -0.001  0.00  0.00    -0.453 OA
ATOM     34  C   UNL     1      -0.018   1.436   0.010  0.00  0.00    +0.466 C 
ATOM     35  O   UNL     1       0.002  -0.004   0.002  0.00  0.00    -0.453 OA
ENDBRANCH  26  27
ENDBRANCH  21  26
ENDBRANCH  20  22
ENDBRANCH  19  20
ENDBRANCH   1  19
TORSDOF 9
