REMARK  Name = ZINC40514914
REMARK  4 active torsions:
REMARK  status: ('A' for Active; 'I' for Inactive)
REMARK    1  A    between atoms: C_1  and  C_2
REMARK    2  A    between atoms: C_4  and  C_20
REMARK    3  A    between atoms: C_7  and  C_8
REMARK    4  A    between atoms: C_8  and  N_10
REMARK                            x       y       z     vdW  Elec       q    Type
REMARK                         _______ _______ _______ _____ _____    ______ ____
ROOT
ATOM      1  C   UNL     1      -0.017   1.488   0.235  0.00  0.00    +0.044 C 
ATOM      2  C   UNL     1       0.000  -0.013   0.110  0.00  0.00    -0.036 A 
ATOM      3  C   UNL     1      -0.120  -0.623  -1.127  0.00  0.00    +0.027 A 
ATOM      4  C   UNL     1      -0.100  -2.004  -1.209  0.00  0.00    +0.041 A 
ATOM      5  N   UNL     1       0.032  -2.751  -0.131  0.00  0.00    -0.232 NA
ATOM      6  C   UNL     1       0.151  -2.220   1.075  0.00  0.00    +0.166 A 
ATOM      7  C   UNL     1       0.145  -0.826   1.240  0.00  0.00    +0.050 A 
ATOM      8  N   UNL     1       0.289  -3.049   2.186  0.00  0.00    -0.194 N 
ATOM      9  C   UNL     1       0.431  -4.419   2.179  0.00  0.00    +0.096 A 
ATOM     10  C   UNL     1       0.483  -5.380   1.176  0.00  0.00    +0.030 A 
ATOM     11  C   UNL     1       0.636  -6.707   1.509  0.00  0.00    +0.002 A 
ATOM     12  C   UNL     1       0.737  -7.091   2.840  0.00  0.00    +0.002 A 
ATOM     13  C   UNL     1       0.687  -6.163   3.839  0.00  0.00    +0.032 A 
ATOM     14  C   UNL     1       0.533  -4.807   3.526  0.00  0.00    +0.113 A 
ATOM     15  N   UNL     1       0.452  -3.686   4.282  0.00  0.00    -0.129 NA
ATOM     16  N   UNL     1       0.316  -2.651   3.530  0.00  0.00    -0.058 NA
ATOM     17  C   UNL     1      -0.233  -2.667  -2.556  0.00  0.00    +0.065 C 
ENDROOT
BRANCH   7  18
ATOM     18  C   UNL     1       0.284  -0.229   2.580  0.00  0.00    +0.081 C 
ATOM     19  S   UNL     1       1.826   0.252   3.148  0.00  0.00    -0.035 S 
BRANCH  18  20
ATOM     20  N   UNL     1      -0.803  -0.062   3.360  0.00  0.00    -0.352 N 
ATOM     21  H   UNL     1      -1.685  -0.266   3.012  0.00  0.00    +0.143 HD
ATOM     22  H   UNL     1      -0.703   0.263   4.268  0.00  0.00    +0.143 HD
ENDBRANCH  18  20
ENDBRANCH   7  18
TORSDOF 2
