REMARK  Name = ZINC09071859
REMARK  4 active torsions:
REMARK  status: ('A' for Active; 'I' for Inactive)
REMARK    1  A    between atoms: C_10  and  C_11
REMARK    2  A    between atoms: N_13  and  C_14
REMARK    3  A    between atoms: C_14  and  C_15
REMARK    4  A    between atoms: N_18  and  C_22
REMARK                            x       y       z     vdW  Elec       q    Type
REMARK                         _______ _______ _______ _____ _____    ______ ____
ROOT
ATOM      1  C   UNL     1      -2.976   1.313   2.243  0.00  0.00    +0.245 C 
ATOM      2  O   UNL     1      -2.650   2.108   3.103  0.00  0.00    -0.270 OA
ATOM      3  N   UNL     1      -2.109   0.986   1.264  0.00  0.00    -0.308 N 
ATOM      4  H   UNL     1      -2.369   0.352   0.577  0.00  0.00    +0.149 HD
ENDROOT
BRANCH   1  14
ATOM      5  C   UNL     1      -6.941   1.395   5.465  0.00  0.00    +0.001 A 
ATOM      6  C   UNL     1      -5.676   1.979   5.461  0.00  0.00    +0.001 A 
ATOM      7  C   UNL     1      -4.810   1.766   4.431  0.00  0.00    +0.009 A 
ATOM      8  C   UNL     1      -5.194   0.949   3.359  0.00  0.00    -0.006 A 
ATOM      9  C   UNL     1      -6.479   0.355   3.361  0.00  0.00    -0.017 A 
ATOM     10  C   UNL     1      -7.347   0.597   4.440  0.00  0.00    +0.008 A 
ATOM     11  C   UNL     1      -6.866  -0.463   2.286  0.00  0.00    +0.008 A 
ATOM     12  C   UNL     1      -6.008  -0.682   1.250  0.00  0.00    +0.001 A 
ATOM     13  C   UNL     1      -4.745  -0.105   1.228  0.00  0.00    +0.013 A 
ATOM     14  C   UNL     1      -4.320   0.706   2.270  0.00  0.00    +0.044 A 
ENDBRANCH   1  14
BRANCH   3  15
ATOM     15  C   UNL     1      -0.774   1.589   1.236  0.00  0.00    +0.150 C 
BRANCH  15  16
ATOM     16  C   UNL     1       0.003   1.052   0.033  0.00  0.00    +0.213 C 
ATOM     17  C   UNL     1       1.438   1.612   0.023  0.00  0.00    +0.163 C 
ATOM     18  N   UNL     1       1.513   2.365  -1.238  0.00  0.00    -0.234 N 
ATOM     19  C   UNL     1       0.334   2.271  -1.869  0.00  0.00    +0.408 C 
ATOM     20  O   UNL     1       0.112   2.800  -2.941  0.00  0.00    -0.226 OA
ATOM     21  O   UNL     1      -0.575   1.542  -1.212  0.00  0.00    -0.444 OA
BRANCH  18  22
ATOM     22  C   UNL     1       2.632   3.065  -1.704  0.00  0.00    +0.040 A 
ATOM     23  C   UNL     1       3.799   3.091  -0.951  0.00  0.00    +0.025 A 
ATOM     24  C   UNL     1       4.903   3.778  -1.416  0.00  0.00    +0.022 A 
ATOM     25  C   UNL     1       4.845   4.449  -2.625  0.00  0.00    +0.041 A 
ATOM     26  C   UNL     1       3.682   4.428  -3.374  0.00  0.00    +0.022 A 
ATOM     27  C   UNL     1       2.576   3.739  -2.917  0.00  0.00    +0.025 A 
ATOM     28 CL   UNL     1       6.233   5.317  -3.202  0.00  0.00    -0.084 Cl
ENDBRANCH  18  22
ENDBRANCH  15  16
ENDBRANCH   3  15
TORSDOF 4
