REMARK  Name = ZINC35548907
REMARK  6 active torsions:
REMARK  status: ('A' for Active; 'I' for Inactive)
REMARK    1  A    between atoms: C_1  and  C_2
REMARK    2  A    between atoms: C_6  and  C_8
REMARK    3  A    between atoms: N_10  and  N_11
REMARK    4  A    between atoms: C_12  and  C_14
REMARK    5  A    between atoms: C_20  and  C_23
REMARK    6  A    between atoms: C_20  and  C_24
REMARK                            x       y       z     vdW  Elec       q    Type
REMARK                         _______ _______ _______ _____ _____    ______ ____
ROOT
ATOM      1  N   UNL     1      -0.124  -4.996   3.654  0.00  0.00    -0.233 N 
ATOM      2  C   UNL     1      -0.038  -6.341   3.649  0.00  0.00    +0.239 C 
ATOM      3  O   UNL     1      -0.020  -6.944   2.597  0.00  0.00    -0.273 OA
ATOM      4  H   UNL     1      -0.138  -4.514   4.496  0.00  0.00    +0.173 HD
ENDROOT
BRANCH   2   5
ATOM      5  C   UNL     1       0.038  -7.096   4.951  0.00  0.00    +0.070 C 
ATOM      6  C   UNL     1      -1.196  -6.950   5.894  0.00  0.00    +0.021 C 
ATOM      7  C   UNL     1      -1.105  -8.166   6.844  0.00  0.00    +0.006 C 
ATOM      8  C   UNL     1       0.179  -8.923   6.387  0.00  0.00    +0.000 C 
ATOM      9  C   UNL     1       0.136  -8.658   4.840  0.00  0.00    +0.025 C 
ATOM     10  C   UNL     1       1.351  -7.988   6.817  0.00  0.00    -0.010 C 
ATOM     11  C   UNL     1       1.258  -6.791   5.832  0.00  0.00    -0.056 C 
ATOM     12  C   UNL     1       2.034  -5.737   5.777  0.00  0.00    +0.009 C 
ATOM     13  C   UNL     1       1.171  -7.542   8.270  0.00  0.00    +0.016 C 
ATOM     14  C   UNL     1       2.693  -8.700   6.640  0.00  0.00    +0.016 C 
ENDBRANCH   2   5
BRANCH   1  17
ATOM     15  C   UNL     1      -0.281  -2.949   2.448  0.00  0.00    +0.260 C 
ATOM     16  O   UNL     1      -0.298  -2.345   3.503  0.00  0.00    -0.269 OA
ATOM     17  N   UNL     1      -0.194  -4.294   2.443  0.00  0.00    -0.230 N 
ATOM     18  H   UNL     1      -0.180  -4.776   1.602  0.00  0.00    +0.173 HD
BRANCH  15  24
ATOM     19  C   UNL     1      -0.613   1.373  -0.024  0.00  0.00    +0.044 C 
ATOM     20  C   UNL     1      -0.515  -0.131  -0.023  0.00  0.00    -0.050 A 
ATOM     21  C   UNL     1      -0.495  -0.822  -1.222  0.00  0.00    +0.003 A 
ATOM     22  C   UNL     1      -0.405  -2.202  -1.230  0.00  0.00    +0.001 A 
ATOM     23  C   UNL     1      -0.335  -2.899  -0.042  0.00  0.00    +0.013 A 
ATOM     24  C   UNL     1      -0.355  -2.208   1.171  0.00  0.00    +0.038 A 
ATOM     25  C   UNL     1      -0.440  -0.815   1.172  0.00  0.00    +0.016 A 
ENDBRANCH  15  24
ENDBRANCH   1  17
TORSDOF 3
