REMARK  Name = ZINC06622220
REMARK  4 active torsions:
REMARK  status: ('A' for Active; 'I' for Inactive)
REMARK    1  A    between atoms: C_1  and  C_2
REMARK    2  A    between atoms: C_5  and  C_7
REMARK    3  A    between atoms: C_9  and  C_13
REMARK    4  A    between atoms: N_15  and  N_16
REMARK                            x       y       z     vdW  Elec       q    Type
REMARK                         _______ _______ _______ _____ _____    ______ ____
ROOT
ATOM      1  C   UNL     1       4.884  -4.966  -0.040  0.00  0.00    +0.281 C 
ATOM      2  O   UNL     1       5.803  -4.170  -0.034  0.00  0.00    -0.267 OA
ATOM      3  N   UNL     1       5.138  -6.290  -0.051  0.00  0.00    -0.201 N 
ATOM      4  H   UNL     1       4.405  -6.925  -0.055  0.00  0.00    +0.178 HD
ENDROOT
BRANCH   3   5
ATOM      5  N   UNL     1       6.462  -6.748  -0.055  0.00  0.00    -0.174 NA
ATOM      6  C   UNL     1       6.710  -8.036  -0.066  0.00  0.00    +0.153 C 
ATOM      7  C   UNL     1       8.034  -8.700  -0.066  0.00  0.00    +0.028 A 
ATOM      8  C   UNL     1       9.340  -8.221  -0.056  0.00  0.00    +0.012 A 
ATOM      9  C   UNL     1      10.395  -9.110  -0.060  0.00  0.00    +0.001 A 
ATOM     10  C   UNL     1      10.154 -10.474  -0.074  0.00  0.00    +0.002 A 
ATOM     11  C   UNL     1       8.862 -10.959  -0.084  0.00  0.00    +0.024 A 
ATOM     12  C   UNL     1       7.786 -10.079  -0.080  0.00  0.00    +0.043 A 
ATOM     13  N   UNL     1       6.413 -10.298  -0.088  0.00  0.00    -0.280 N 
ATOM     14  C   UNL     1       5.730  -9.140  -0.074  0.00  0.00    +0.269 C 
ATOM     15  O   UNL     1       4.519  -9.023  -0.071  0.00  0.00    -0.268 OA
ATOM     16  H   UNL     1       6.000 -11.176  -0.098  0.00  0.00    +0.155 HD
ENDBRANCH   3   5
BRANCH   1  19
ATOM     17  C   UNL     1       1.667  -3.226  -0.023  0.00  0.00    +0.128 A 
ATOM     18  C   UNL     1       3.075  -3.168  -0.024  0.00  0.00    +0.065 A 
ATOM     19  C   UNL     1       3.494  -4.485  -0.035  0.00  0.00    +0.122 A 
ATOM     20  N   UNL     1       2.362  -5.252  -0.040  0.00  0.00    -0.272 N 
ATOM     21  H   UNL     1       2.347  -6.222  -0.048  0.00  0.00    +0.189 HD
ATOM     22  N   UNL     1       1.323  -4.498  -0.028  0.00  0.00    -0.170 NA
BRANCH  17  27
ATOM     23  C   UNL     1      -0.018   1.503   0.010  0.00  0.00    +0.086 C 
ATOM     24  C   UNL     1       0.002  -0.004   0.002  0.00  0.00    +0.103 A 
ATOM     25  C   UNL     1      -1.081  -0.804   0.003  0.00  0.00    +0.045 A 
ATOM     26  C   UNL     1      -0.613  -2.134  -0.007  0.00  0.00    +0.052 A 
ATOM     27  C   UNL     1       0.745  -2.070  -0.013  0.00  0.00    +0.155 A 
ATOM     28  O   UNL     1       1.104  -0.772  -0.013  0.00  0.00    -0.458 OA
ENDBRANCH  17  27
ENDBRANCH   1  19
TORSDOF 3
