REMARK  Name = ZINC20745884
REMARK  10 active torsions:
REMARK  status: ('A' for Active; 'I' for Inactive)
REMARK    1  A    between atoms: C_1  and  O_2
REMARK    2  A    between atoms: O_2  and  C_3
REMARK    3  A    between atoms: C_3  and  C_5
REMARK    4  A    between atoms: C_5  and  C_6
REMARK    5  A    between atoms: C_6  and  C_7
REMARK    6  A    between atoms: C_7  and  C_9
REMARK    7  A    between atoms: C_7  and  N_13
REMARK    8  A    between atoms: C_9  and  O_11
REMARK    9  A    between atoms: O_11  and  C_12
REMARK   10  A    between atoms: C_25  and  C_27
REMARK                            x       y       z     vdW  Elec       q    Type
REMARK                         _______ _______ _______ _____ _____    ______ ____
ROOT
ATOM      1  N   UNL     1      -1.772  -6.390  -0.389  0.00  0.00    -0.286 N 
ATOM      2  C   UNL     1      -1.646  -5.700  -1.540  0.00  0.00    +0.304 C 
ATOM      3  O   UNL     1      -2.114  -4.582  -1.633  0.00  0.00    -0.253 OA
ATOM      4  N   UNL     1      -1.001  -6.250  -2.588  0.00  0.00    -0.273 N 
ATOM      5  C   UNL     1      -0.753  -5.473  -3.812  0.00  0.00    +0.116 C 
ATOM      6  C   UNL     1       0.760  -5.299  -3.997  0.00  0.00    +0.074 C 
ATOM      7  C   UNL     1       1.435  -6.622  -3.748  0.00  0.00    +0.040 A 
ATOM      8  C   UNL     1       0.874  -7.664  -3.099  0.00  0.00    +0.062 A 
ATOM      9  N   UNL     1       1.762  -8.660  -3.065  0.00  0.00    -0.348 N 
ATOM     10  C   UNL     1       2.856  -8.279  -3.672  0.00  0.00    +0.171 A 
ATOM     11  N   UNL     1       2.688  -7.011  -4.114  0.00  0.00    -0.349 N 
ATOM     12  H   UNL     1       3.338  -6.479  -4.599  0.00  0.00    +0.166 HD
ATOM     13  C   UNL     1      -0.522  -7.643  -2.533  0.00  0.00    +0.159 C 
ATOM     14  H   UNL     1      -1.463  -7.308  -0.338  0.00  0.00    +0.151 HD
ATOM     15  H   UNL     1       1.619  -9.528  -2.655  0.00  0.00    +0.167 HD
ENDROOT
BRANCH  13  16
ATOM     16  C   UNL     1      -1.419  -8.526  -3.361  0.00  0.00    +0.014 A 
ATOM     17  C   UNL     1      -0.869  -9.429  -4.252  0.00  0.00    +0.011 A 
ATOM     18  C   UNL     1      -1.691 -10.240  -5.011  0.00  0.00    +0.039 A 
ATOM     19  C   UNL     1      -3.067 -10.149  -4.881  0.00  0.00    +0.126 A 
ATOM     20  C   UNL     1      -3.619  -9.246  -3.989  0.00  0.00    +0.077 A 
ATOM     21  C   UNL     1      -2.795  -8.438  -3.225  0.00  0.00    +0.131 A 
ATOM     22  F   UNL     1      -3.332  -7.560  -2.350  0.00  0.00    -0.205 F 
ATOM     23  F   UNL     1      -3.869 -10.942  -5.624  0.00  0.00    -0.205 F 
ENDBRANCH  13  16
BRANCH   1  24
ATOM     24  C   UNL     1      -2.376  -5.753   0.784  0.00  0.00    +0.184 C 
BRANCH  24  25
ATOM     25  C   UNL     1      -1.322  -4.977   1.532  0.00  0.00    +0.327 C 
ATOM     26  O   UNL     1      -0.184  -4.959   1.127  0.00  0.00    -0.249 OA
BRANCH  25  27
ATOM     27  O   UNL     1      -1.648  -4.308   2.649  0.00  0.00    -0.467 OA
ATOM     28  C   UNL     1      -0.600  -3.594   3.307  0.00  0.00    +0.280 C 
ENDBRANCH  25  27
ENDBRANCH  24  25
BRANCH  24  29
ATOM     29  C   UNL     1      -2.966  -6.827   1.700  0.00  0.00    +0.045 C 
BRANCH  29  30
ATOM     30  C   UNL     1      -4.120  -7.531   0.983  0.00  0.00    +0.123 C 
BRANCH  30  31
ATOM     31  C   UNL     1      -4.701  -8.588   1.886  0.00  0.00    +0.307 C 
ATOM     32  O   UNL     1      -4.239  -8.761   2.989  0.00  0.00    -0.251 OA
BRANCH  31  34
ATOM     33  C   UNL     1      -6.232 -10.322   2.372  0.00  0.00    +0.280 C 
ATOM     34  O   UNL     1      -5.731  -9.338   1.464  0.00  0.00    -0.468 OA
ENDBRANCH  31  34
ENDBRANCH  30  31
ENDBRANCH  29  30
ENDBRANCH  24  29
ENDBRANCH   1  24
TORSDOF 8
