REMARK  Name = ZINC22293470
REMARK  8 active torsions:
REMARK  status: ('A' for Active; 'I' for Inactive)
REMARK    1  A    between atoms: C_1  and  C_2
REMARK    2  A    between atoms: C_3  and  C_13
REMARK    3  A    between atoms: N_5  and  C_7
REMARK    4  A    between atoms: C_13  and  N_15
REMARK    5  A    between atoms: C_18  and  C_21
REMARK    6  A    between atoms: C_21  and  N_22
REMARK    7  A    between atoms: C_24  and  C_31
REMARK    8  A    between atoms: C_27  and  C_30
REMARK                            x       y       z     vdW  Elec       q    Type
REMARK                         _______ _______ _______ _____ _____    ______ ____
ROOT
ATOM      1  N   UNL     1       0.003  -1.290  -3.527  0.00  0.00    -0.151 NA
ATOM      2  C   UNL     1      -0.008  -0.887  -4.796  0.00  0.00    +0.163 A 
ATOM      3  N   UNL     1      -0.008  -1.648  -5.925  0.00  0.00    -0.341 N 
ATOM      4  C   UNL     1      -0.021  -1.026  -7.135  0.00  0.00    +0.008 A 
ATOM      5  C   UNL     1      -0.033   0.311  -7.137  0.00  0.00    +0.067 A 
ATOM      6  S   UNL     1      -0.033   0.685  -5.394  0.00  0.00    -0.061 S 
ATOM      7  H   UNL     1       0.001  -2.616  -5.867  0.00  0.00    +0.167 HD
ENDROOT
BRANCH   1   8
ATOM      8  C   UNL     1      -0.004  -0.390  -2.541  0.00  0.00    +0.291 C 
ATOM      9  O   UNL     1      -0.022   0.801  -2.803  0.00  0.00    -0.266 OA
BRANCH   8  12
ATOM     10  C   UNL     1      -0.018   1.503   0.010  0.00  0.00    +0.070 C 
ATOM     11  C   UNL     1       0.002  -0.004   0.002  0.00  0.00    +0.093 A 
ATOM     12  C   UNL     1       0.008  -0.837  -1.129  0.00  0.00    +0.172 A 
ATOM     13  N   UNL     1       0.027  -2.089  -0.712  0.00  0.00    -0.142 NA
ATOM     14  N   UNL     1       0.033  -2.112   0.575  0.00  0.00    -0.149 N 
ATOM     15  N   UNL     1       0.023  -0.794   1.050  0.00  0.00    -0.152 NA
BRANCH  14  16
ATOM     16  C   UNL     1       0.052  -3.266   1.370  0.00  0.00    +0.086 A 
ATOM     17  C   UNL     1       0.050  -3.157   2.754  0.00  0.00    +0.029 A 
ATOM     18  C   UNL     1       0.069  -4.296   3.535  0.00  0.00    +0.002 A 
ATOM     19  C   UNL     1       0.088  -5.544   2.939  0.00  0.00    +0.000 A 
ATOM     20  C   UNL     1       0.090  -5.656   1.561  0.00  0.00    +0.002 A 
ATOM     21  C   UNL     1       0.066  -4.520   0.775  0.00  0.00    +0.029 A 
ENDBRANCH  14  16
ENDBRANCH   8  12
ENDBRANCH   1   8
BRANCH   4  22
ATOM     22  C   UNL     1      -0.022  -1.813  -8.420  0.00  0.00    -0.024 C 
BRANCH  22  23
ATOM     23  N   UNL     1       1.240  -2.556  -8.540  0.00  0.00    +0.384 N 
ATOM     24  C   UNL     1       2.355  -1.608  -8.655  0.00  0.00    -0.075 C 
ATOM     25  C   UNL     1       3.678  -2.375  -8.699  0.00  0.00    -0.031 C 
ATOM     26  C   UNL     1       3.678  -3.315  -9.908  0.00  0.00    +0.003 C 
ATOM     27  C   UNL     1       2.468  -4.249  -9.816  0.00  0.00    -0.031 C 
ATOM     28  C   UNL     1       1.189  -3.413  -9.731  0.00  0.00    -0.075 C 
ATOM     29  C   UNL     1       2.415  -5.141 -11.058  0.00  0.00    +0.005 C 
ATOM     30  C   UNL     1       3.837  -3.193  -7.415  0.00  0.00    +0.005 C 
ATOM     31  H   UNL     1       1.371  -3.128  -7.720  0.00  0.00    -0.081 HD
ENDBRANCH  22  23
ENDBRANCH   4  22
TORSDOF 5
