REMARK  Name = ZINC12820235
REMARK  7 active torsions:
REMARK  status: ('A' for Active; 'I' for Inactive)
REMARK    1  A    between atoms: C_1  and  C_2
REMARK    2  A    between atoms: C_3  and  C_8
REMARK    3  A    between atoms: C_4  and  N_7
REMARK    4  A    between atoms: C_8  and  O_10
REMARK    5  A    between atoms: O_10  and  C_11
REMARK    6  A    between atoms: C_11  and  C_13
REMARK    7  A    between atoms: C_11  and  C_14
REMARK                            x       y       z     vdW  Elec       q    Type
REMARK                         _______ _______ _______ _____ _____    ______ ____
ROOT
ATOM      1  C   UNL     1       0.198  -4.232  -0.020  0.00  0.00    +0.239 C 
ATOM      2  C   UNL     1       1.613  -4.666  -0.409  0.00  0.00    +0.060 C 
ENDROOT
BRANCH   1   3
ATOM      3  C   UNL     1       0.119  -2.727  -0.012  0.00  0.00    +0.151 A 
ATOM      4  N   UNL     1      -1.110  -2.147   0.003  0.00  0.00    -0.307 N 
ATOM      5  H   UNL     1      -1.904  -2.703   0.008  0.00  0.00    +0.170 HD
ATOM      6  C   UNL     1      -1.235  -0.799   0.011  0.00  0.00    +0.259 A 
ATOM      7  O   UNL     1      -2.329  -0.266   0.024  0.00  0.00    -0.267 OA
ATOM      8  C   UNL     1       0.002  -0.004   0.002  0.00  0.00    +0.065 A 
ATOM      9  C   UNL     1      -0.017   1.389   0.010  0.00  0.00    +0.015 A 
ATOM     10  C   UNL     1       1.173   2.084   0.002  0.00  0.00    +0.001 A 
ATOM     11  C   UNL     1       2.386   1.408  -0.014  0.00  0.00    +0.002 A 
ATOM     12  C   UNL     1       2.426   0.032  -0.021  0.00  0.00    +0.028 A 
ATOM     13  C   UNL     1       1.234  -0.695  -0.013  0.00  0.00    +0.078 A 
ATOM     14  N   UNL     1       1.227  -2.051  -0.020  0.00  0.00    -0.230 NA
ENDBRANCH   1   3
BRANCH   1  15
ATOM     15  O   UNL     1      -0.117  -4.740   1.303  0.00  0.00    -0.450 OA
BRANCH  15  16
ATOM     16  C   UNL     1      -0.693  -5.958   1.369  0.00  0.00    +0.344 C 
ATOM     17  O   UNL     1      -0.925  -6.578   0.349  0.00  0.00    -0.245 OA
BRANCH  16  20
ATOM     18  C   UNL     1       1.222  -7.629   2.857  0.00  0.00    +0.067 C 
ATOM     19  C   UNL     1      -0.152  -7.328   3.397  0.00  0.00    +0.063 A 
ATOM     20  C   UNL     1      -1.039  -6.535   2.671  0.00  0.00    +0.109 A 
ATOM     21  C   UNL     1      -2.283  -6.323   3.279  0.00  0.00    +0.097 A 
ATOM     22  S   UNL     1      -2.121  -7.223   4.751  0.00  0.00    +0.027 S 
ATOM     23  N   UNL     1      -0.529  -7.807   4.548  0.00  0.00    -0.213 NA
BRANCH  21  24
ATOM     24  N   UNL     1      -3.359  -5.590   2.824  0.00  0.00    -0.351 N 
ATOM     25  H   UNL     1      -3.308  -5.134   1.969  0.00  0.00    +0.143 HD
ATOM     26  H   UNL     1      -4.167  -5.531   3.358  0.00  0.00    +0.143 HD
ENDBRANCH  21  24
ENDBRANCH  16  20
ENDBRANCH  15  16
ENDBRANCH   1  15
TORSDOF 5
