REMARK  Name = ZINC24876894
REMARK  6 active torsions:
REMARK  status: ('A' for Active; 'I' for Inactive)
REMARK    1  A    between atoms: C_1  and  C_2
REMARK    2  A    between atoms: C_2  and  C_4
REMARK    3  A    between atoms: C_2  and  O_17
REMARK    4  A    between atoms: O_17  and  C_18
REMARK    5  A    between atoms: C_18  and  C_20
REMARK    6  A    between atoms: C_23  and  C_26
REMARK                            x       y       z     vdW  Elec       q    Type
REMARK                         _______ _______ _______ _____ _____    ______ ____
ROOT
ATOM      1  C   UNL     1       2.789   0.862  -1.462  0.00  0.00    +0.062 C 
ATOM      2  C   UNL     1       2.371   1.126  -0.015  0.00  0.00    +0.259 C 
ENDROOT
BRANCH   2   3
ATOM      3  C   UNL     1       3.459   1.895   0.690  0.00  0.00    +0.259 C 
ATOM      4  O   UNL     1       3.222   2.988   1.159  0.00  0.00    -0.271 OA
ATOM      5  N   UNL     1       4.695   1.368   0.798  0.00  0.00    -0.266 N 
ATOM      6  C   UNL     1       5.697   2.077   1.447  0.00  0.00    +0.154 A 
ATOM      7  C   UNL     1       6.991   1.544   1.569  0.00  0.00    +0.126 A 
ATOM      8  C   UNL     1       7.966   2.313   2.228  0.00  0.00    +0.183 A 
ATOM      9  N   UNL     1       9.118   1.568   2.198  0.00  0.00    -0.216 NA
ATOM     10  H   UNL     1       7.008  -0.372   0.641  0.00  0.00    +0.167 HD
ATOM     11  C   UNL     1       8.831   0.396   1.565  0.00  0.00    +0.199 A 
ATOM     12  N   UNL     1       7.585   0.389   1.186  0.00  0.00    -0.340 N 
ATOM     13  N   UNL     1       7.631   3.504   2.712  0.00  0.00    -0.214 NA
ATOM     14  C   UNL     1       6.404   3.960   2.579  0.00  0.00    +0.225 A 
ATOM     15  N   UNL     1       5.457   3.279   1.960  0.00  0.00    -0.218 NA
ATOM     16  H   UNL     1       4.910   0.377   0.373  0.00  0.00    +0.156 HD
ENDBRANCH   2   3
BRANCH   2  17
ATOM     17  O   UNL     1       1.143   1.900   0.001  0.00  0.00    -0.449 OA
BRANCH  17  18
ATOM     18  C   UNL     1      -0.014   1.210   0.009  0.00  0.00    +0.340 C 
ATOM     19  O   UNL     1       0.002  -0.004   0.002  0.00  0.00    -0.245 OA
BRANCH  18  20
ATOM     20  C   UNL     1      -1.304   1.932   0.019  0.00  0.00    +0.059 A 
ATOM     21  C   UNL     1      -1.326   3.328   0.032  0.00  0.00    +0.015 A 
ATOM     22  C   UNL     1      -2.534   3.995   0.036  0.00  0.00    +0.006 A 
ATOM     23  C   UNL     1      -3.720   3.284   0.037  0.00  0.00    -0.025 A 
ATOM     24  C   UNL     1      -3.705   1.900   0.030  0.00  0.00    +0.006 A 
ATOM     25  C   UNL     1      -2.505   1.220   0.021  0.00  0.00    +0.015 A 
BRANCH  23  26
ATOM     26  C   UNL     1      -5.036   4.019   0.047  0.00  0.00    +0.133 C 
ATOM     27  S   UNL     1      -5.148   5.085  -1.420  0.00  0.00    -0.142 S 
ATOM     28  C   UNL     1      -6.710   5.976  -1.186  0.00  0.00    +0.071 C 
ATOM     29  C   UNL     1      -6.643   6.826   0.077  0.00  0.00    +0.021 C 
ATOM     30  C   UNL     1      -6.705   5.951   1.324  0.00  0.00    +0.071 C 
ATOM     31  S   UNL     1      -5.142   5.056   1.535  0.00  0.00    -0.142 S 
ENDBRANCH  23  26
ENDBRANCH  18  20
ENDBRANCH  17  18
ENDBRANCH   2  17
TORSDOF 5
