REMARK  Name = ZINC15968479
REMARK  7 active torsions:
REMARK  status: ('A' for Active; 'I' for Inactive)
REMARK    1  A    between atoms: C_1  and  C_2
REMARK    2  A    between atoms: C_16  and  C_19
REMARK    3  A    between atoms: C_19  and  C_20
REMARK    4  A    between atoms: C_20  and  C_21
REMARK    5  A    between atoms: N_26  and  C_29
REMARK    6  A    between atoms: C_29  and  C_30
REMARK    7  A    between atoms: C_30  and  C_31
REMARK                            x       y       z     vdW  Elec       q    Type
REMARK                         _______ _______ _______ _____ _____    ______ ____
ROOT
ATOM      1  C   UNL     1      -0.018   1.503   0.010  0.00  0.00    +0.045 C 
ATOM      2  C   UNL     1       0.002  -0.004   0.002  0.00  0.00    -0.029 A 
ATOM      3  C   UNL     1       0.006  -0.685  -1.198  0.00  0.00    +0.005 A 
ATOM      4  C   UNL     1       0.024  -2.067  -1.216  0.00  0.00    +0.001 A 
ATOM      5  C   UNL     1       0.041  -2.772  -0.024  0.00  0.00    +0.008 A 
ATOM      6  C   UNL     1       0.038  -2.096   1.175  0.00  0.00    +0.004 A 
ATOM      7  C   UNL     1       0.023  -0.705   1.205  0.00  0.00    +0.042 A 
ATOM      8  N   UNL     1       0.027  -0.250   2.526  0.00  0.00    -0.283 N 
ATOM      9  C   UNL     1       0.051  -1.264   3.412  0.00  0.00    +0.243 C 
ATOM     10  O   UNL     1       0.059  -1.169   4.621  0.00  0.00    -0.273 OA
ATOM     11  C   UNL     1       0.053  -2.537   2.611  0.00  0.00    +0.136 C 
ATOM     12  C   UNL     1      -1.153  -3.424   2.943  0.00  0.00    +0.122 C 
ATOM     13  C   UNL     1      -0.607  -4.458   3.967  0.00  0.00    +0.107 C 
ATOM     14  C   UNL     1       0.874  -4.074   4.168  0.00  0.00    +0.068 C 
ATOM     15  N   UNL     1       1.246  -3.348   2.917  0.00  0.00    -0.295 NA
ATOM     16  C   UNL     1      -0.700  -5.770   3.222  0.00  0.00    +0.227 C 
ATOM     17  O   UNL     1      -0.364  -6.850   3.659  0.00  0.00    -0.275 OA
ATOM     18  N   UNL     1      -1.212  -5.554   2.004  0.00  0.00    -0.241 N 
ATOM     19  C   UNL     1      -1.514  -4.263   1.738  0.00  0.00    +0.228 C 
ATOM     20  O   UNL     1      -1.993  -3.839   0.708  0.00  0.00    -0.275 OA
ATOM     21  H   UNL     1       0.015   0.688   2.776  0.00  0.00    +0.155 HD
ATOM     22  H   UNL     1       1.452  -3.987   2.164  0.00  0.00    +0.123 HD
ENDROOT
BRANCH  14  23
ATOM     23  C   UNL     1       1.735  -5.330   4.316  0.00  0.00    +0.031 C 
BRANCH  23  24
ATOM     24  C   UNL     1       3.175  -4.926   4.638  0.00  0.00    +0.126 C 
BRANCH  24  25
ATOM     25  C   UNL     1       4.023  -6.163   4.783  0.00  0.00    +0.356 C 
ATOM     26  O   UNL     1       3.522  -7.266   4.642  0.00  0.00    -0.246 OA
ATOM     27  O   UNL     1       5.210  -6.061   5.042  0.00  0.00    -0.246 OA
ENDBRANCH  24  25
ENDBRANCH  23  24
ENDBRANCH  14  23
BRANCH  18  28
ATOM     28  C   UNL     1      -1.432  -6.631   1.035  0.00  0.00    +0.121 C 
BRANCH  28  29
ATOM     29  C   UNL     1      -2.839  -7.203   1.220  0.00  0.00    +0.054 C 
BRANCH  29  30
ATOM     30  C   UNL     1      -3.066  -8.311   0.224  0.00  0.00    -0.046 A 
ATOM     31  C   UNL     1      -3.592  -8.022  -1.022  0.00  0.00    +0.004 A 
ATOM     32  C   UNL     1      -3.800  -9.038  -1.936  0.00  0.00    +0.000 A 
ATOM     33  C   UNL     1      -3.482 -10.342  -1.605  0.00  0.00    +0.000 A 
ATOM     34  C   UNL     1      -2.955 -10.630  -0.359  0.00  0.00    +0.000 A 
ATOM     35  C   UNL     1      -2.743  -9.614   0.553  0.00  0.00    +0.004 A 
ENDBRANCH  29  30
ENDBRANCH  28  29
ENDBRANCH  18  28
TORSDOF 6
