REMARK  Name = ZINC33741387
REMARK  9 active torsions:
REMARK  status: ('A' for Active; 'I' for Inactive)
REMARK    1  A    between atoms: C_1  and  C_2
REMARK    2  A    between atoms: C_2  and  C_3
REMARK    3  A    between atoms: C_3  and  N_4
REMARK    4  A    between atoms: C_14  and  C_15
REMARK    5  A    between atoms: C_15  and  C_17
REMARK    6  A    between atoms: C_15  and  N_18
REMARK    7  A    between atoms: N_21  and  S_24
REMARK    8  A    between atoms: S_24  and  C_27
REMARK    9  A    between atoms: C_31  and  N_33
REMARK                            x       y       z     vdW  Elec       q    Type
REMARK                         _______ _______ _______ _____ _____    ______ ____
ROOT
ATOM      1  N   UNL     1       2.262  -2.933   0.084  0.00  0.00    +0.388 N 
ATOM      2  C   UNL     1       2.982  -2.674  -1.171  0.00  0.00    -0.060 C 
ATOM      3  C   UNL     1       4.403  -3.237  -1.065  0.00  0.00    +0.091 C 
ATOM      4  N   UNL     1       4.317  -4.654  -0.679  0.00  0.00    -0.180 NA
ATOM      5  C   UNL     1       3.498  -5.007   0.491  0.00  0.00    +0.091 C 
ATOM      6  C   UNL     1       2.113  -4.374   0.325  0.00  0.00    -0.060 C 
ATOM      7  H   UNL     1       2.863  -2.516   0.906  0.00  0.00    -0.081 HD
ENDROOT
BRANCH   4   8
ATOM      8  S   UNL     1       5.120  -5.820  -1.537  0.00  0.00    +0.061 S 
ATOM      9  O   UNL     1       6.203  -5.170  -2.189  0.00  0.00    -0.153 OA
ATOM     10  O   UNL     1       5.311  -6.916  -0.653  0.00  0.00    -0.153 OA
BRANCH   8  11
ATOM     11  C   UNL     1       4.031  -6.378  -2.804  0.00  0.00    +0.108 A 
ATOM     12  C   UNL     1       3.178  -7.439  -2.565  0.00  0.00    +0.030 A 
ATOM     13  C   UNL     1       2.320  -7.874  -3.557  0.00  0.00    +0.024 A 
ATOM     14  C   UNL     1       2.321  -7.254  -4.793  0.00  0.00    +0.071 A 
ATOM     15  C   UNL     1       3.178  -6.195  -5.034  0.00  0.00    +0.146 A 
ATOM     16  C   UNL     1       4.032  -5.757  -4.040  0.00  0.00    +0.062 A 
ATOM     17 CL   UNL     1       1.247  -7.803  -6.042  0.00  0.00    -0.081 Cl
BRANCH  15  18
ATOM     18  N   UNL     1       3.179  -5.530  -6.357  0.00  0.00    +0.058 N 
ATOM     19  O   UNL     1       3.933  -4.597  -6.569  0.00  0.00    -0.126 OA
ATOM     20  O   UNL     1       2.426  -5.915  -7.233  0.00  0.00    -0.126 OA
ENDBRANCH  15  18
ENDBRANCH   8  11
ENDBRANCH   4   8
BRANCH   1  21
ATOM     21  C   UNL     1       0.957  -2.260   0.090  0.00  0.00    -0.004 C 
ATOM     22  C   UNL     1       0.118  -2.763  -1.087  0.00  0.00    -0.005 C 
BRANCH  21  33
ATOM     23  N   UNL     1       1.594  -0.085   1.051  0.00  0.00    -0.297 N 
ATOM     24  C   UNL     1       1.790   1.253   0.988  0.00  0.00    +0.262 A 
ATOM     25  O   UNL     1       2.175   1.881   1.957  0.00  0.00    -0.267 OA
ATOM     26  C   UNL     1       1.514   1.918  -0.293  0.00  0.00    +0.065 A 
ATOM     27  C   UNL     1       1.683   3.291  -0.463  0.00  0.00    +0.015 A 
ATOM     28  C   UNL     1       1.409   3.863  -1.686  0.00  0.00    +0.001 A 
ATOM     29  C   UNL     1       0.967   3.083  -2.747  0.00  0.00    +0.002 A 
ATOM     30  C   UNL     1       0.793   1.725  -2.600  0.00  0.00    +0.028 A 
ATOM     31  C   UNL     1       1.064   1.122  -1.370  0.00  0.00    +0.078 A 
ATOM     32  N   UNL     1       0.906  -0.212  -1.181  0.00  0.00    -0.235 NA
ATOM     33  C   UNL     1       1.158  -0.772  -0.037  0.00  0.00    +0.099 A 
BRANCH  23  34
ATOM     34  C   UNL     1       1.854  -0.799   2.303  0.00  0.00    +0.126 C 
BRANCH  34  36
ATOM     35  C   UNL     1       0.818  -1.662   4.407  0.00  0.00    +0.005 C 
ATOM     36  C   UNL     1       0.584  -0.812   3.156  0.00  0.00    +0.018 C 
ENDBRANCH  34  36
ENDBRANCH  23  34
ENDBRANCH  21  33
ENDBRANCH   1  21
TORSDOF 7
