REMARK  Name = ZINC20709940
REMARK  5 active torsions:
REMARK  status: ('A' for Active; 'I' for Inactive)
REMARK    1  A    between atoms: C_1  and  N_2
REMARK    2  A    between atoms: C_3  and  C_5
REMARK    3  A    between atoms: C_12  and  C_21
REMARK    4  A    between atoms: C_23  and  N_28
REMARK    5  A    between atoms: C_26  and  O_27
REMARK                            x       y       z     vdW  Elec       q    Type
REMARK                         _______ _______ _______ _____ _____    ______ ____
ROOT
ATOM      1  C   UNL     1       0.416  -1.724  -1.651  0.00  0.00    +0.058 A 
ATOM      2  C   UNL     1       1.093  -2.222  -2.766  0.00  0.00    +0.015 A 
ATOM      3  C   UNL     1       2.081  -1.465  -3.356  0.00  0.00    +0.001 A 
ATOM      4  C   UNL     1       2.402  -0.219  -2.849  0.00  0.00    +0.006 A 
ATOM      5  C   UNL     1       1.741   0.293  -1.741  0.00  0.00    -0.019 A 
ATOM      6  C   UNL     1       0.747  -0.455  -1.137  0.00  0.00    +0.044 A 
ATOM      7  N   UNL     1       0.051  -0.002  -0.027  0.00  0.00    -0.336 N 
ATOM      8  C   UNL     1      -0.018   1.460   0.010  0.00  0.00    +0.108 C 
ATOM      9  C   UNL     1       1.386   2.045   0.030  0.00  0.00    +0.029 C 
ATOM     10  C   UNL     1       2.150   1.658  -1.253  0.00  0.00    +0.049 C 
ATOM     11  C   UNL     1       3.594   1.576  -0.786  0.00  0.00    -0.023 C 
ATOM     12  C   UNL     1       3.648   1.395   0.509  0.00  0.00    -0.030 C 
ATOM     13  C   UNL     1       2.251   1.329   1.096  0.00  0.00    +0.033 C 
ATOM     14  H   UNL     1      -0.419  -0.595   0.771  0.00  0.00    +0.147 HD
ENDROOT
BRANCH   8  15
ATOM     15  C   UNL     1      -0.750   1.957  -1.210  0.00  0.00    +0.017 A 
ATOM     16  C   UNL     1      -0.281   3.061  -1.895  0.00  0.00    +0.041 A 
ATOM     17  C   UNL     1      -0.949   3.515  -3.017  0.00  0.00    +0.127 A 
ATOM     18  C   UNL     1      -2.095   2.872  -3.450  0.00  0.00    +0.036 A 
ATOM     19  C   UNL     1      -2.571   1.770  -2.765  0.00  0.00    +0.048 A 
ATOM     20  C   UNL     1      -1.898   1.310  -1.642  0.00  0.00    +0.122 A 
BRANCH  17  21
ATOM     21  N   UNL     1      -0.442   4.694  -3.753  0.00  0.00    +0.056 N 
ATOM     22  O   UNL     1      -1.033   5.098  -4.738  0.00  0.00    -0.126 OA
ATOM     23  O   UNL     1       0.567   5.261  -3.373  0.00  0.00    -0.126 OA
ENDBRANCH  17  21
BRANCH  20  24
ATOM     24  O   UNL     1      -2.365   0.227  -0.966  0.00  0.00    -0.506 OA
ATOM     25  H   UNL     1      -3.275  -0.285  -1.309  0.00  0.00    +0.292 HD
ENDBRANCH  20  24
ENDBRANCH   8  15
BRANCH   1  28
ATOM     26  C   UNL     1      -2.011  -4.537  -0.871  0.00  0.00    +0.128 C 
ATOM     27  N   UNL     1      -0.959  -3.740  -1.505  0.00  0.00    -0.314 N 
ATOM     28  C   UNL     1      -0.643  -2.526  -1.013  0.00  0.00    +0.246 C 
ATOM     29  O   UNL     1      -1.232  -2.092  -0.041  0.00  0.00    -0.270 OA
ATOM     30  H   UNL     1      -0.426  -4.133  -2.384  0.00  0.00    +0.149 HD
ENDBRANCH   1  28
TORSDOF 4
