REMARK  Name = ZINC19824561
REMARK  6 active torsions:
REMARK  status: ('A' for Active; 'I' for Inactive)
REMARK    1  A    between atoms: C_1  and  C_2
REMARK    2  A    between atoms: C_3  and  C_22
REMARK    3  A    between atoms: C_4  and  N_21
REMARK    4  A    between atoms: C_9  and  C_10
REMARK    5  A    between atoms: C_16  and  C_20
REMARK    6  A    between atoms: C_17  and  C_18
REMARK                            x       y       z     vdW  Elec       q    Type
REMARK                         _______ _______ _______ _____ _____    ______ ____
ROOT
ATOM      1  C   UNL     1       0.272  -0.001  -1.321  0.00  0.00    +0.046 C 
ATOM      2  C   UNL     1       0.188   1.429  -0.851  0.00  0.00    -0.020 A 
ATOM      3  C   UNL     1      -1.032   1.982  -0.448  0.00  0.00    +0.095 A 
ATOM      4  C   UNL     1      -1.067   3.321  -0.011  0.00  0.00    +0.135 A 
ATOM      5  N   UNL     1       0.028   4.058   0.013  0.00  0.00    -0.230 NA
ATOM      6  C   UNL     1       1.208   3.571  -0.367  0.00  0.00    +0.092 A 
ATOM      7  C   UNL     1       1.320   2.235  -0.812  0.00  0.00    +0.013 A 
ATOM      8  C   UNL     1       2.736   2.010  -1.156  0.00  0.00    -0.010 C 
ATOM      9  C   UNL     1       3.284   0.824  -1.637  0.00  0.00    +0.024 C 
ATOM     10  C   UNL     1       3.435   3.206  -0.911  0.00  0.00    -0.023 C 
ATOM     11  C   UNL     1       2.553   4.162  -0.438  0.00  0.00    +0.081 C 
ATOM     12  C   UNL     1       4.912   3.413  -1.129  0.00  0.00    +0.046 C 
ENDROOT
BRANCH   9  13
ATOM     13  C   UNL     1       4.677   0.668  -1.695  0.00  0.00    +0.014 A 
ATOM     14  C   UNL     1       5.466   0.180  -2.741  0.00  0.00    +0.017 A 
ATOM     15  C   UNL     1       6.816   0.140  -2.531  0.00  0.00    +0.023 A 
ATOM     16  C   UNL     1       7.318   0.557  -1.333  0.00  0.00    +0.055 A 
ATOM     17  S   UNL     1       5.903   1.034  -0.452  0.00  0.00    -0.082 S 
ATOM     18 BR   UNL     1       9.123   0.604  -0.769  0.00  0.00    -0.043 Br
ENDBRANCH   9  13
BRANCH   4  19
ATOM     19  N   UNL     1      -2.270   3.874   0.395  0.00  0.00    -0.342 N 
ATOM     20  H   UNL     1      -2.307   4.919   0.738  0.00  0.00    +0.144 HD
ATOM     21  H   UNL     1      -3.188   3.269   0.375  0.00  0.00    +0.144 HD
ENDBRANCH   4  19
BRANCH  11  22
ATOM     22  C   UNL     1       2.893   5.506  -0.078  0.00  0.00    +0.102 C 
ATOM     23  N   UNL     1       3.164   6.571   0.208  0.00  0.00    -0.191 NA
ENDBRANCH  11  22
BRANCH   3  24
ATOM     24  C   UNL     1      -2.228   1.196  -0.475  0.00  0.00    +0.103 C 
ATOM     25  N   UNL     1      -3.178   0.572  -0.495  0.00  0.00    -0.191 NA
ENDBRANCH   3  24
TORSDOF 4
