REMARK  Name = ZINC45276403
REMARK  13 active torsions:
REMARK  status: ('A' for Active; 'I' for Inactive)
REMARK    1  A    between atoms: C_1  and  C_2
REMARK    2  A    between atoms: C_6  and  C_35
REMARK    3  A    between atoms: C_7  and  N_8
REMARK    4  A    between atoms: C_9  and  C_11
REMARK    5  A    between atoms: C_11  and  N_12
REMARK    6  A    between atoms: C_13  and  C_15
REMARK    7  A    between atoms: C_15  and  C_17
REMARK    8  A    between atoms: C_15  and  O_18
REMARK    9  A    between atoms: O_18  and  C_19
REMARK   10  A    between atoms: C_19  and  C_21
REMARK   11  A    between atoms: N_30  and  C_32
REMARK   12  A    between atoms: C_32  and  C_33
REMARK   13  A    between atoms: C_32  and  C_34
REMARK                            x       y       z     vdW  Elec       q    Type
REMARK                         _______ _______ _______ _____ _____    ______ ____
ROOT
ATOM      1  C   UNL     1      -0.455  -1.225   8.394  0.00  0.00    +0.259 C 
ATOM      2  C   UNL     1       0.805  -2.084   8.507  0.00  0.00    +0.062 C 
ENDROOT
BRANCH   1   4
ATOM      3  N   UNL     1      -0.231  -0.746   5.978  0.00  0.00    -0.304 N 
ATOM      4  C   UNL     1      -0.311  -0.271   7.236  0.00  0.00    +0.254 C 
ATOM      5  O   UNL     1      -0.268   0.924   7.437  0.00  0.00    -0.272 OA
ATOM      6  H   UNL     1      -0.265  -1.702   5.817  0.00  0.00    +0.149 HD
BRANCH   3   7
ATOM      7  C   UNL     1      -0.090   0.181   4.852  0.00  0.00    +0.200 C 
BRANCH   7   9
ATOM      8  N   UNL     1       0.108   0.050   2.390  0.00  0.00    -0.284 N 
ATOM      9  C   UNL     1      -0.022  -0.598   3.564  0.00  0.00    +0.234 C 
ATOM     10  O   UNL     1      -0.085  -1.810   3.584  0.00  0.00    -0.274 OA
ATOM     11  H   UNL     1       0.224   1.013   2.378  0.00  0.00    +0.155 HD
BRANCH   8  18
ATOM     12  C   UNL     1       2.558  -0.356   1.002  0.00  0.00    +0.045 C 
ATOM     13  C   UNL     1       1.249  -0.887   0.479  0.00  0.00    -0.029 A 
ATOM     14  C   UNL     1       1.214  -1.599  -0.704  0.00  0.00    +0.005 A 
ATOM     15  C   UNL     1       0.013  -2.087  -1.185  0.00  0.00    +0.001 A 
ATOM     16  C   UNL     1      -1.158  -1.863  -0.484  0.00  0.00    +0.005 A 
ATOM     17  C   UNL     1      -1.130  -1.152   0.700  0.00  0.00    -0.029 A 
ATOM     18  C   UNL     1       0.076  -0.666   1.188  0.00  0.00    +0.039 A 
ATOM     19  C   UNL     1      -2.406  -0.908   1.463  0.00  0.00    +0.045 C 
ENDBRANCH   8  18
ENDBRANCH   7   9
ENDBRANCH   3   7
ENDBRANCH   1   4
BRANCH   1  20
ATOM     20  O   UNL     1      -0.636  -0.484   9.602  0.00  0.00    -0.448 OA
BRANCH  20  21
ATOM     21  C   UNL     1      -1.367  -1.065  10.573  0.00  0.00    +0.361 C 
ATOM     22  O   UNL     1      -1.838  -2.172  10.399  0.00  0.00    -0.243 OA
BRANCH  21  23
ATOM     23  C   UNL     1      -1.596  -0.359  11.848  0.00  0.00    +0.176 A 
ATOM     24  C   UNL     1      -2.388  -0.989  12.917  0.00  0.00    +0.021 A 
ATOM     25  C   UNL     1      -2.953  -2.254  12.790  0.00  0.00    +0.011 A 
ATOM     26  C   UNL     1      -3.683  -2.777  13.837  0.00  0.00    +0.001 A 
ATOM     27  C   UNL     1      -3.859  -2.056  15.011  0.00  0.00    +0.001 A 
ATOM     28  C   UNL     1      -3.308  -0.801  15.157  0.00  0.00    +0.014 A 
ATOM     29  C   UNL     1      -2.568  -0.256  14.112  0.00  0.00    +0.050 A 
ATOM     30  C   UNL     1      -1.946   1.074  14.183  0.00  0.00    +0.275 A 
ATOM     31  O   UNL     1      -2.059   1.762  15.181  0.00  0.00    -0.266 OA
ATOM     32  N   UNL     1      -1.248   1.515  13.117  0.00  0.00    -0.226 N 
ATOM     33  N   UNL     1      -1.091   0.835  12.044  0.00  0.00    -0.161 NA
BRANCH  32  34
ATOM     34  C   UNL     1      -0.631   2.842  13.192  0.00  0.00    +0.105 C 
ATOM     35  C   UNL     1       0.883   2.711  13.021  0.00  0.00    +0.032 C 
ATOM     36  C   UNL     1      -1.195   3.731  12.082  0.00  0.00    +0.032 C 
ENDBRANCH  32  34
ENDBRANCH  21  23
ENDBRANCH  20  21
ENDBRANCH   1  20
TORSDOF 8
