REMARK  Name = ZINC59471500
REMARK  10 active torsions:
REMARK  status: ('A' for Active; 'I' for Inactive)
REMARK    1  A    between atoms: C_1  and  C_2
REMARK    2  A    between atoms: C_11  and  C_18
REMARK    3  A    between atoms: C_12  and  C_14
REMARK    4  A    between atoms: C_14  and  O_16
REMARK    5  A    between atoms: O_16  and  C_17
REMARK    6  A    between atoms: C_18  and  O_20
REMARK    7  A    between atoms: O_20  and  C_21
REMARK    8  A    between atoms: C_24  and  C_34
REMARK    9  A    between atoms: C_24  and  C_35
REMARK   10  A    between atoms: C_26  and  C_28
REMARK                            x       y       z     vdW  Elec       q    Type
REMARK                         _______ _______ _______ _____ _____    ______ ____
ROOT
ATOM      1  C   UNL     1       0.782   1.349   1.261  0.00  0.00    +0.044 C 
ATOM      2  C   UNL     1       0.485  -0.113   1.050  0.00  0.00    -0.050 A 
ATOM      3  C   UNL     1       0.337  -0.607  -0.234  0.00  0.00    +0.005 A 
ATOM      4  C   UNL     1       0.066  -1.948  -0.444  0.00  0.00    +0.024 A 
ATOM      5  C   UNL     1      -0.059  -2.800   0.637  0.00  0.00    +0.045 A 
ATOM      6  C   UNL     1       0.088  -2.301   1.940  0.00  0.00    +0.006 A 
ATOM      7  C   UNL     1       0.367  -0.955   2.140  0.00  0.00    +0.013 A 
ATOM      8  C   UNL     1      -0.056  -3.236   3.081  0.00  0.00    +0.017 C 
ATOM      9  C   UNL     1      -0.238  -2.750   4.382  0.00  0.00    +0.059 C 
ATOM     10  S   UNL     1      -0.252  -3.643   5.918  0.00  0.00    -0.073 S 
ATOM     11  C   UNL     1      -0.528  -2.431   7.165  0.00  0.00    +0.118 C 
ATOM     12  C   UNL     1      -0.658  -1.171   6.676  0.00  0.00    +0.118 C 
ATOM     13  S   UNL     1      -0.507  -1.079   4.924  0.00  0.00    -0.073 S 
ATOM     14  C   UNL     1      -0.008  -4.614   2.836  0.00  0.00    +0.029 C 
ATOM     15  S   UNL     1      -0.197  -5.720   4.129  0.00  0.00    -0.054 S 
ATOM     16  C   UNL     1       0.208  -5.125   1.434  0.00  0.00    +0.069 C 
ATOM     17  N   UNL     1      -0.329  -4.163   0.465  0.00  0.00    -0.258 N 
ATOM     18  C   UNL     1      -1.073  -4.586  -0.577  0.00  0.00    +0.249 C 
ATOM     19  O   UNL     1      -1.253  -5.773  -0.751  0.00  0.00    -0.272 OA
ATOM     20  C   UNL     1      -0.504  -6.468   1.267  0.00  0.00    +0.037 C 
ATOM     21  C   UNL     1       1.707  -5.312   1.188  0.00  0.00    +0.037 C 
ENDROOT
BRANCH  18  22
ATOM     22  C   UNL     1      -1.680  -3.584  -1.525  0.00  0.00    +0.204 C 
ATOM     23  C   UNL     1      -2.456  -2.513  -0.729  0.00  0.00    +0.043 C 
ATOM     24  C   UNL     1      -3.706  -2.281  -1.620  0.00  0.00    +0.031 C 
ATOM     25  C   UNL     1      -3.931  -3.705  -2.189  0.00  0.00    +0.161 C 
ATOM     26  O   UNL     1      -2.611  -4.240  -2.393  0.00  0.00    -0.367 OA
ENDBRANCH  18  22
BRANCH  12  27
ATOM     27  C   UNL     1      -0.894   0.006   7.529  0.00  0.00    +0.347 C 
ATOM     28  O   UNL     1       0.043   0.679   7.910  0.00  0.00    -0.244 OA
BRANCH  27  29
ATOM     29  O   UNL     1      -2.151   0.337   7.888  0.00  0.00    -0.464 OA
ATOM     30  C   UNL     1      -2.307   1.491   8.716  0.00  0.00    +0.280 C 
ENDBRANCH  27  29
ENDBRANCH  12  27
BRANCH  11  31
ATOM     31  C   UNL     1      -0.612  -2.753   8.600  0.00  0.00    +0.347 C 
ATOM     32  O   UNL     1      -0.899  -1.886   9.402  0.00  0.00    -0.244 OA
BRANCH  31  33
ATOM     33  O   UNL     1      -0.369  -4.010   9.024  0.00  0.00    -0.464 OA
ATOM     34  C   UNL     1      -0.468  -4.250  10.429  0.00  0.00    +0.280 C 
ENDBRANCH  31  33
ENDBRANCH  11  31
TORSDOF 5
