REMARK  Name = ZINC34780400
REMARK  8 active torsions:
REMARK  status: ('A' for Active; 'I' for Inactive)
REMARK    1  A    between atoms: C_1  and  C_2
REMARK    2  A    between atoms: C_2  and  C_3
REMARK    3  A    between atoms: C_3  and  C_5
REMARK    4  A    between atoms: C_3  and  N_6
REMARK    5  A    between atoms: C_10  and  C_11
REMARK    6  A    between atoms: C_12  and  N_22
REMARK    7  A    between atoms: N_25  and  C_28
REMARK    8  A    between atoms: C_28  and  C_29
REMARK                            x       y       z     vdW  Elec       q    Type
REMARK                         _______ _______ _______ _____ _____    ______ ____
ROOT
ATOM      1  C   UNL     1       4.178   2.509  -4.067  0.00  0.00    +0.081 A 
ATOM      2  C   UNL     1       5.037   3.160  -4.984  0.00  0.00    +0.136 A 
ATOM      3  N   UNL     1       4.550   3.601  -6.135  0.00  0.00    -0.214 NA
ATOM      4  C   UNL     1       3.265   3.448  -6.455  0.00  0.00    +0.142 A 
ATOM      5  C   UNL     1       2.805   3.937  -7.691  0.00  0.00    +0.047 A 
ATOM      6  C   UNL     1       1.493   3.785  -8.028  0.00  0.00    +0.005 A 
ATOM      7  C   UNL     1       0.620   3.144  -7.138  0.00  0.00    +0.018 A 
ATOM      8  C   UNL     1       1.079   2.680  -5.954  0.00  0.00    +0.096 A 
ATOM      9  N   UNL     1       2.390   2.826  -5.608  0.00  0.00    -0.268 N 
ATOM     10  C   UNL     1       2.817   2.347  -4.420  0.00  0.00    +0.267 A 
ATOM     11  O   UNL     1       2.043   1.787  -3.663  0.00  0.00    -0.267 OA
ENDROOT
BRANCH   1  16
ATOM     12  N   UNL     1       4.464  -1.628  -2.960  0.00  0.00    -0.252 N 
ATOM     13  C   UNL     1       4.370  -0.402  -3.443  0.00  0.00    +0.259 C 
ATOM     14  O   UNL     1       4.021  -0.207  -4.594  0.00  0.00    -0.269 OA
ATOM     15  C   UNL     1       4.687   0.686  -2.580  0.00  0.00    +0.077 C 
ATOM     16  C   UNL     1       4.669   2.027  -2.831  0.00  0.00    +0.037 C 
ATOM     17  S   UNL     1       5.114  -0.184  -1.078  0.00  0.00    -0.061 S 
ATOM     18  C   UNL     1       4.846  -1.844  -1.682  0.00  0.00    +0.121 C 
ATOM     19  S   UNL     1       5.028  -3.331  -0.852  0.00  0.00    -0.027 S 
BRANCH  12  20
ATOM     20  C   UNL     1       4.146  -2.770  -3.821  0.00  0.00    +0.080 C 
ATOM     21  C   UNL     1       5.373  -3.675  -3.943  0.00  0.00    +0.028 C 
BRANCH  20  23
ATOM     22  C   UNL     1       1.726  -2.695  -3.204  0.00  0.00    +0.006 C 
ATOM     23  C   UNL     1       2.987  -3.561  -3.211  0.00  0.00    +0.019 C 
ENDBRANCH  20  23
ENDBRANCH  12  20
ENDBRANCH   1  16
BRANCH   2  24
ATOM     24  N   UNL     1       6.370   3.334  -4.682  0.00  0.00    -0.312 N 
ATOM     25  C   UNL     1       7.063   4.587  -5.021  0.00  0.00    +0.122 C 
ATOM     26  C   UNL     1       8.347   4.242  -5.784  0.00  0.00    +0.103 C 
ATOM     27  N   UNL     1       9.138   3.287  -4.996  0.00  0.00    -0.295 NA
ATOM     28  C   UNL     1       8.418   2.019  -4.815  0.00  0.00    +0.103 C 
ATOM     29  C   UNL     1       7.136   2.276  -4.008  0.00  0.00    +0.122 C 
BRANCH  27  30
ATOM     30  C   UNL     1      10.454   3.062  -5.610  0.00  0.00    +0.119 C 
BRANCH  30  31
ATOM     31  C   UNL     1      11.324   2.280  -4.660  0.00  0.00    -0.033 A 
ATOM     32  C   UNL     1      12.117   2.944  -3.742  0.00  0.00    +0.005 A 
ATOM     33  C   UNL     1      12.915   2.226  -2.871  0.00  0.00    +0.000 A 
ATOM     34  C   UNL     1      12.920   0.845  -2.917  0.00  0.00    +0.000 A 
ATOM     35  C   UNL     1      12.127   0.181  -3.834  0.00  0.00    +0.000 A 
ATOM     36  C   UNL     1      11.325   0.898  -4.702  0.00  0.00    +0.005 A 
ENDBRANCH  30  31
ENDBRANCH  27  30
ENDBRANCH   2  24
TORSDOF 6
