REMARK  Name = ZINC38582447
REMARK  9 active torsions:
REMARK  status: ('A' for Active; 'I' for Inactive)
REMARK    1  A    between atoms: C_1  and  C_2
REMARK    2  A    between atoms: C_2  and  O_3
REMARK    3  A    between atoms: O_3  and  C_4
REMARK    4  A    between atoms: C_4  and  C_6
REMARK    5  A    between atoms: C_8  and  N_17
REMARK    6  A    between atoms: C_18  and  C_20
REMARK    7  A    between atoms: C_20  and  N_21
REMARK    8  A    between atoms: N_21  and  C_22
REMARK    9  A    between atoms: N_21  and  C_23
REMARK                            x       y       z     vdW  Elec       q    Type
REMARK                         _______ _______ _______ _____ _____    ______ ____
ROOT
ATOM      1  C   UNL     1      -3.320  -2.526   0.410  0.00  0.00    +0.234 C 
ATOM      2  C   UNL     1      -3.744  -2.433   1.859  0.00  0.00    +0.053 C 
ATOM      3  C   UNL     1      -4.035  -3.729   2.249  0.00  0.00    +0.019 A 
ATOM      4  C   UNL     1      -4.479  -4.280   3.476  0.00  0.00    +0.026 A 
ATOM      5  C   UNL     1      -4.688  -5.617   3.575  0.00  0.00    +0.019 A 
ATOM      6  C   UNL     1      -4.476  -6.474   2.491  0.00  0.00    +0.017 A 
ATOM      7  C   UNL     1      -4.052  -6.017   1.289  0.00  0.00    +0.027 A 
ATOM      8  C   UNL     1      -3.812  -4.630   1.106  0.00  0.00    +0.045 A 
ATOM      9  N   UNL     1      -3.404  -3.946   0.053  0.00  0.00    -0.367 N 
ATOM     10 BR   UNL     1      -5.280  -6.338   5.220  0.00  0.00    -0.050 Br
ATOM     11  H   UNL     1      -3.194  -4.322  -0.816  0.00  0.00    +0.161 HD
ENDROOT
BRANCH   2  12
ATOM     12  N   UNL     1      -3.822  -1.307   2.623  0.00  0.00    -0.288 N 
ATOM     13  C   UNL     1      -3.614  -0.099   2.064  0.00  0.00    +0.200 C 
ATOM     14  O   UNL     1      -3.452  -0.004   0.866  0.00  0.00    -0.278 OA
ATOM     15  H   UNL     1      -4.028  -1.376   3.568  0.00  0.00    +0.155 HD
BRANCH  13  16
ATOM     16  C   UNL     1      -3.581   1.135   2.928  0.00  0.00    +0.018 C 
BRANCH  16  17
ATOM     17  N   UNL     1      -3.495   2.328   2.075  0.00  0.00    +0.382 N 
ATOM     18  C   UNL     1      -3.663   3.533   2.899  0.00  0.00    -0.096 C 
ATOM     19  C   UNL     1      -2.184   2.365   1.415  0.00  0.00    -0.096 C 
ATOM     20  H   UNL     1      -4.223   2.295   1.376  0.00  0.00    -0.082 HD
ENDBRANCH  16  17
ENDBRANCH  13  16
ENDBRANCH   2  12
BRANCH   1  21
ATOM     21  C   UNL     1      -1.905  -2.034   0.251  0.00  0.00    +0.336 C 
ATOM     22  O   UNL     1      -0.984  -2.703   0.655  0.00  0.00    -0.248 OA
BRANCH  21  23
ATOM     23  O   UNL     1      -1.668  -0.853  -0.341  0.00  0.00    -0.463 OA
BRANCH  23  25
ATOM     24  C   UNL     1      -0.230   0.884  -1.210  0.00  0.00    +0.048 C 
ATOM     25  C   UNL     1      -0.301  -0.502  -0.566  0.00  0.00    +0.229 C 
ENDBRANCH  23  25
ENDBRANCH  21  23
ENDBRANCH   1  21
TORSDOF 6
