REMARK  Name = ZINC37968716
REMARK  4 active torsions:
REMARK  status: ('A' for Active; 'I' for Inactive)
REMARK    1  A    between atoms: C_1  and  C_2
REMARK    2  A    between atoms: C_8  and  C_9
REMARK    3  A    between atoms: C_8  and  N_12
REMARK    4  A    between atoms: N_12  and  C_13
REMARK                            x       y       z     vdW  Elec       q    Type
REMARK                         _______ _______ _______ _____ _____    ______ ____
ROOT
ATOM      1  C   UNL     1      -0.639   0.900  -0.064  0.00  0.00    +0.006 C 
ATOM      2  C   UNL     1      -0.080  -0.523  -0.035  0.00  0.00    -0.016 C 
ATOM      3  C   UNL     1      -1.220  -1.514   0.204  0.00  0.00    +0.002 C 
ATOM      4  C   UNL     1      -0.661  -2.938   0.234  0.00  0.00    +0.000 C 
ATOM      5  C   UNL     1       0.365  -3.060   1.362  0.00  0.00    -0.001 C 
ATOM      6  C   UNL     1       1.506  -2.069   1.123  0.00  0.00    -0.003 C 
ATOM      7  C   UNL     1       0.946  -0.645   1.094  0.00  0.00    +0.013 C 
ENDROOT
BRANCH   7   8
ATOM      8  C   UNL     1       0.282  -0.339   2.411  0.00  0.00    +0.200 C 
ATOM      9  O   UNL     1       0.040  -1.235   3.191  0.00  0.00    -0.278 OA
ATOM     10  N   UNL     1      -0.042   0.932   2.723  0.00  0.00    -0.330 N 
ATOM     11  H   UNL     1       0.205   1.656   2.127  0.00  0.00    +0.145 HD
ATOM     12  H   UNL     1      -0.523   1.122   3.544  0.00  0.00    +0.145 HD
ENDBRANCH   7   8
BRANCH   7  13
ATOM     13  N   UNL     1       2.042   0.307   0.864  0.00  0.00    +0.391 N 
ATOM     14  H   UNL     1       2.415   0.173  -0.064  0.00  0.00    -0.084 HD
ATOM     15  H   UNL     1       1.692   1.249   0.953  0.00  0.00    -0.084 HD
BRANCH  13  16
ATOM     16  C   UNL     1       3.102   0.082   1.856  0.00  0.00    -0.070 C 
ATOM     17  C   UNL     1       2.627   0.542   3.250  0.00  0.00    -0.016 C 
ATOM     18  C   UNL     1       3.892   1.159   3.897  0.00  0.00    -0.002 C 
ATOM     19  C   UNL     1       4.569   1.879   2.705  0.00  0.00    -0.002 C 
ATOM     20  C   UNL     1       4.337   0.932   1.510  0.00  0.00    -0.016 C 
ENDBRANCH  13  16
ENDBRANCH   7  13
TORSDOF 3
