REMARK  Name = ZINC09513723
REMARK  4 active torsions:
REMARK  status: ('A' for Active; 'I' for Inactive)
REMARK    1  A    between atoms: C_3  and  C_10
REMARK    2  A    between atoms: C_5  and  N_7
REMARK    3  A    between atoms: C_10  and  S_11
REMARK    4  A    between atoms: S_11  and  C_12
REMARK                            x       y       z     vdW  Elec       q    Type
REMARK                         _______ _______ _______ _____ _____    ______ ____
ROOT
ATOM      1  S   UNL     1      -0.094   5.959  -1.673  0.00  0.00    -0.088 S 
ENDROOT
BRANCH   1   2
ATOM      2  C   UNL     1      -0.115   7.695  -1.374  0.00  0.00    +0.129 C 
ATOM      3  N   UNL     1      -0.117   8.222  -0.169  0.00  0.00    -0.363 N 
ATOM      4  C   UNL     1      -0.295   9.650  -0.326  0.00  0.00    +0.101 C 
ATOM      5  C   UNL     1       0.398  10.620   0.600  0.00  0.00    +0.026 C 
ATOM      6  C   UNL     1      -0.012  12.035   0.153  0.00  0.00    +0.002 C 
ATOM      7  C   UNL     1       0.317  12.287  -1.315  0.00  0.00    +0.002 C 
ATOM      8  C   UNL     1      -0.278  11.199  -2.230  0.00  0.00    +0.024 C 
ATOM      9  C   UNL     1       0.291   9.880  -1.748  0.00  0.00    +0.094 C 
ATOM     10  N   UNL     1      -0.137   8.645  -2.388  0.00  0.00    -0.321 N 
ATOM     11  H   UNL     1      -0.388   8.638  -3.459  0.00  0.00    +0.148 HD
ATOM     12  H   UNL     1       0.004   7.576   0.714  0.00  0.00    +0.162 HD
ENDBRANCH   1   2
BRANCH   1  13
ATOM     13  C   UNL     1      -0.070   5.347   0.030  0.00  0.00    +0.112 C 
BRANCH  13  16
ATOM     14  C   UNL     1      -1.219   1.750   0.017  0.00  0.00    +0.003 A 
ATOM     15  C   UNL     1      -1.238   3.133   0.029  0.00  0.00    +0.004 A 
ATOM     16  C   UNL     1      -0.050   3.840   0.022  0.00  0.00    -0.035 A 
ATOM     17  C   UNL     1       1.157   3.165   0.008  0.00  0.00    +0.037 A 
ATOM     18  C   UNL     1       1.175   1.783   0.000  0.00  0.00    +0.126 A 
ATOM     19  C   UNL     1      -0.013   1.076   0.008  0.00  0.00    +0.033 A 
BRANCH  18  20
ATOM     20  N   UNL     1       2.467   1.061  -0.015  0.00  0.00    +0.056 N 
ATOM     21  O   UNL     1       2.483  -0.157  -0.022  0.00  0.00    -0.126 OA
ATOM     22  O   UNL     1       3.513   1.684  -0.022  0.00  0.00    -0.126 OA
ENDBRANCH  18  20
ENDBRANCH  13  16
ENDBRANCH   1  13
TORSDOF 4
