REMARK  Name = ZINC65329866
REMARK  7 active torsions:
REMARK  status: ('A' for Active; 'I' for Inactive)
REMARK    1  A    between atoms: C_1  and  C_2
REMARK    2  A    between atoms: C_5  and  C_8
REMARK    3  A    between atoms: C_8  and  N_10
REMARK    4  A    between atoms: N_12  and  C_13
REMARK    5  A    between atoms: N_19  and  C_20
REMARK    6  A    between atoms: C_20  and  C_21
REMARK    7  A    between atoms: C_21  and  C_22
REMARK                            x       y       z     vdW  Elec       q    Type
REMARK                         _______ _______ _______ _____ _____    ______ ____
ROOT
ATOM      1  N   UNL     1       0.519  -5.266   1.914  0.00  0.00    -0.143 NA
ATOM      2  C   UNL     1       0.731  -6.171   0.971  0.00  0.00    +0.194 C 
ATOM      3  N   UNL     1       0.007  -6.134  -0.186  0.00  0.00    -0.328 N 
ATOM      4  N   UNL     1       1.673  -7.141   1.155  0.00  0.00    -0.357 N 
ATOM      5  H   UNL     1      -0.010  -5.326  -0.721  0.00  0.00    +0.169 HD
ATOM      6  H   UNL     1       2.154  -7.196   1.996  0.00  0.00    +0.162 HD
ENDROOT
BRANCH   3   7
ATOM      7  C   UNL     1      -0.709  -7.262  -0.599  0.00  0.00    +0.042 A 
ATOM      8  C   UNL     1      -1.324  -8.079   0.342  0.00  0.00    +0.026 A 
ATOM      9  C   UNL     1      -2.031  -9.192  -0.069  0.00  0.00    +0.002 A 
ATOM     10  C   UNL     1      -2.127  -9.494  -1.415  0.00  0.00    +0.000 A 
ATOM     11  C   UNL     1      -1.516  -8.683  -2.354  0.00  0.00    +0.002 A 
ATOM     12  C   UNL     1      -0.813  -7.565  -1.950  0.00  0.00    +0.026 A 
ENDBRANCH   3   7
BRANCH   1  13
ATOM     13  C   UNL     1      -0.496  -4.401   1.796  0.00  0.00    +0.270 C 
ATOM     14  O   UNL     1      -1.167  -4.385   0.779  0.00  0.00    -0.268 OA
BRANCH  13  19
ATOM     15  C   UNL     1      -1.689  -0.757   6.090  0.00  0.00    +0.044 C 
ATOM     16  C   UNL     1      -1.376  -1.710   4.966  0.00  0.00    -0.050 A 
ATOM     17  C   UNL     1      -2.140  -1.689   3.812  0.00  0.00    +0.004 A 
ATOM     18  C   UNL     1      -1.859  -2.560   2.780  0.00  0.00    +0.013 A 
ATOM     19  C   UNL     1      -0.802  -3.463   2.900  0.00  0.00    +0.039 A 
ATOM     20  C   UNL     1      -0.036  -3.479   4.066  0.00  0.00    +0.013 A 
ATOM     21  C   UNL     1      -0.324  -2.599   5.089  0.00  0.00    +0.004 A 
ENDBRANCH  13  19
ENDBRANCH   1  13
BRANCH   4  22
ATOM     22  C   UNL     1       1.958  -8.098   0.084  0.00  0.00    +0.120 C 
BRANCH  22  23
ATOM     23  C   UNL     1       3.048  -9.068   0.544  0.00  0.00    +0.054 C 
BRANCH  23  24
ATOM     24  C   UNL     1       3.428  -9.976  -0.598  0.00  0.00    -0.040 C 
ATOM     25  C   UNL     1       4.427  -9.786  -1.490  0.00  0.00    -0.001 A 
ATOM     26  C   UNL     1       5.420  -8.719  -1.658  0.00  0.00    +0.010 A 
ATOM     27  C   UNL     1       6.314  -8.809  -2.669  0.00  0.00    +0.001 A 
ATOM     28  C   UNL     1       6.315  -9.892  -3.559  0.00  0.00    +0.002 A 
ATOM     29  C   UNL     1       5.434 -10.910  -3.468  0.00  0.00    +0.026 A 
ATOM     30  C   UNL     1       4.449 -10.919  -2.442  0.00  0.00    +0.043 A 
ATOM     31  N   UNL     1       3.500 -11.776  -2.150  0.00  0.00    -0.380 N 
ATOM     32  C   UNL     1       2.772 -11.286  -0.975  0.00  0.00    +0.144 C 
ATOM     33  H   UNL     1       3.314 -12.599  -2.629  0.00  0.00    +0.160 HD
ENDBRANCH  23  24
ENDBRANCH  22  23
ENDBRANCH   4  22
TORSDOF 6
