REMARK  Name = ZINC05630971
REMARK  2 active torsions:
REMARK  status: ('A' for Active; 'I' for Inactive)
REMARK    1  A    between atoms: C_3  and  C_9
REMARK    2  A    between atoms: C_12  and  C_14
REMARK                            x       y       z     vdW  Elec       q    Type
REMARK                         _______ _______ _______ _____ _____    ______ ____
ROOT
ATOM      1  C   UNL     1       3.655   2.162  -0.022  0.00  0.00    +0.137 A 
ATOM      2  C   UNL     1       4.713   1.946   0.814  0.00  0.00    +0.050 A 
ATOM      3  C   UNL     1       5.704   2.870   0.471  0.00  0.00    +0.050 A 
ATOM      4  C   UNL     1       5.202   3.623  -0.575  0.00  0.00    +0.130 A 
ATOM      5  O   UNL     1       3.962   3.170  -0.858  0.00  0.00    -0.455 OA
ENDROOT
BRANCH   4   6
ATOM      6  C   UNL     1       5.871   4.676  -1.235  0.00  0.00    +0.066 C 
ATOM      7  C   UNL     1       5.258   5.340  -2.257  0.00  0.00    +0.081 C 
ATOM      8  C   UNL     1       5.758   6.450  -3.081  0.00  0.00    +0.257 C 
ATOM      9  O   UNL     1       6.869   6.920  -2.909  0.00  0.00    -0.269 OA
ATOM     10  N   UNL     1       4.950   6.917  -4.019  0.00  0.00    -0.261 N 
ATOM     11  C   UNL     1       3.696   6.371  -4.199  0.00  0.00    +0.158 C 
ATOM     12  N   UNL     1       2.781   6.706  -5.066  0.00  0.00    -0.279 NA
ATOM     13  S   UNL     1       3.634   5.088  -2.958  0.00  0.00    -0.049 S 
ATOM     14  H   UNL     1       5.242   7.649  -4.584  0.00  0.00    +0.157 HD
ATOM     15  H   UNL     1       1.933   6.234  -5.085  0.00  0.00    +0.189 HD
ENDBRANCH   4   6
BRANCH   1  18
ATOM     16  C   UNL     1      -0.017   1.381   0.010  0.00  0.00    +0.021 A 
ATOM     17  C   UNL     1       1.166   2.090   0.002  0.00  0.00    +0.014 A 
ATOM     18  C   UNL     1       2.385   1.409  -0.013  0.00  0.00    +0.036 A 
ATOM     19  C   UNL     1       2.398   0.011  -0.021  0.00  0.00    +0.053 A 
ATOM     20  C   UNL     1       1.207  -0.687  -0.013  0.00  0.00    +0.040 A 
ATOM     21  C   UNL     1       0.002  -0.004   0.002  0.00  0.00    +0.042 A 
ATOM     22 CL   UNL     1      -1.492  -0.888   0.012  0.00  0.00    -0.083 Cl
ATOM     23 CL   UNL     1       3.908  -0.846  -0.040  0.00  0.00    -0.083 Cl
ENDBRANCH   1  18
TORSDOF 2
