REMARK  Name = ZINC19496057
REMARK  4 active torsions:
REMARK  status: ('A' for Active; 'I' for Inactive)
REMARK    1  A    between atoms: C_1  and  C_2
REMARK    2  A    between atoms: C_7  and  C_30
REMARK    3  A    between atoms: C_10  and  C_12
REMARK    4  A    between atoms: C_12  and  N_13
REMARK                            x       y       z     vdW  Elec       q    Type
REMARK                         _______ _______ _______ _____ _____    ______ ____
ROOT
ATOM      1  N   UNL     1      -4.704   0.517  -3.468  0.00  0.00    +0.389 N 
ATOM      2  C   UNL     1      -6.148   0.233  -3.501  0.00  0.00    -0.072 C 
ATOM      3  C   UNL     1      -6.590   0.140  -4.961  0.00  0.00    +0.037 C 
ATOM      4  C   UNL     1      -5.681  -0.794  -5.717  0.00  0.00    +0.050 A 
ATOM      5  C   UNL     1      -4.463  -1.154  -5.231  0.00  0.00    +0.022 A 
ATOM      6  C   UNL     1      -3.657  -2.026  -5.991  0.00  0.00    +0.254 A 
ATOM      7  O   UNL     1      -2.557  -2.364  -5.585  0.00  0.00    -0.268 OA
ATOM      8  N   UNL     1      -4.121  -2.481  -7.173  0.00  0.00    -0.295 N 
ATOM      9  H   UNL     1      -3.506  -3.163  -7.779  0.00  0.00    +0.172 HD
ATOM     10  C   UNL     1      -5.349  -2.091  -7.608  0.00  0.00    +0.198 A 
ATOM     11  N   UNL     1      -6.094  -1.273  -6.894  0.00  0.00    -0.221 NA
ATOM     12  N   UNL     1      -5.818  -2.555  -8.807  0.00  0.00    -0.301 N 
ATOM     13  C   UNL     1      -6.085  -4.015  -8.745  0.00  0.00    +0.108 C 
ATOM     14  C   UNL     1      -7.061  -4.248  -9.926  0.00  0.00    +0.020 C 
ATOM     15  C   UNL     1      -7.945  -2.980  -9.899  0.00  0.00    +0.020 C 
ATOM     16  C   UNL     1      -7.111  -1.923  -9.151  0.00  0.00    +0.108 C 
ATOM     17  C   UNL     1      -3.947  -0.660  -3.908  0.00  0.00    -0.035 C 
ATOM     18  H   UNL     1      -4.492   1.343  -4.162  0.00  0.00    -0.081 HD
ENDROOT
BRANCH   1  19
ATOM     19  C   UNL     1      -4.281   0.943  -2.127  0.00  0.00    +0.019 C 
BRANCH  19  27
ATOM     20  C   UNL     1      -4.462   2.163  -0.201  0.00  0.00    +0.028 C 
ATOM     21  C   UNL     1      -2.977   2.097   0.161  0.00  0.00    +0.073 C 
ATOM     22  C   UNL     1      -2.497   3.477   0.619  0.00  0.00    +0.022 C 
ATOM     23  C   UNL     1      -0.984   3.439   0.846  0.00  0.00    +0.004 C 
ATOM     24  C   UNL     1      -0.279   3.094  -0.469  0.00  0.00    +0.022 C 
ATOM     25  C   UNL     1      -0.734   1.709  -0.940  0.00  0.00    +0.073 C 
ATOM     26  N   UNL     1      -2.201   1.694  -1.020  0.00  0.00    -0.297 N 
ATOM     27  C   UNL     1      -2.822   1.319  -2.156  0.00  0.00    +0.199 C 
ATOM     28  O   UNL     1      -2.208   1.284  -3.201  0.00  0.00    -0.278 OA
ATOM     29  C   UNL     1      -0.141   1.416  -2.320  0.00  0.00    +0.028 C 
ENDBRANCH  19  27
ENDBRANCH   1  19
TORSDOF 2
