REMARK  Name = ZINC66265694
REMARK  6 active torsions:
REMARK  status: ('A' for Active; 'I' for Inactive)
REMARK    1  A    between atoms: C_1  and  C_2
REMARK    2  A    between atoms: C_2  and  C_19
REMARK    3  A    between atoms: C_3  and  C_4
REMARK    4  A    between atoms: N_6  and  N_7
REMARK    5  A    between atoms: C_8  and  C_10
REMARK    6  A    between atoms: C_14  and  N_16
REMARK                            x       y       z     vdW  Elec       q    Type
REMARK                         _______ _______ _______ _____ _____    ______ ____
ROOT
ATOM      1  C   UNL     1       0.042  -2.148   1.158  0.00  0.00    +0.253 C 
ATOM      2  O   UNL     1       0.040  -2.751   0.101  0.00  0.00    -0.269 OA
ATOM      3  N   UNL     1       0.062  -2.828   2.321  0.00  0.00    -0.231 N 
ATOM      4  H   UNL     1       0.064  -2.348   3.164  0.00  0.00    +0.173 HD
ENDROOT
BRANCH   3   5
ATOM      5  N   UNL     1       0.082  -4.229   2.314  0.00  0.00    -0.230 N 
ATOM      6  C   UNL     1       0.102  -4.909   3.477  0.00  0.00    +0.260 C 
ATOM      7  O   UNL     1       0.104  -4.307   4.533  0.00  0.00    -0.269 OA
ATOM      8  H   UNL     1       0.080  -4.710   1.471  0.00  0.00    +0.173 HD
BRANCH   6   9
ATOM      9  C   UNL     1       0.122  -6.388   3.469  0.00  0.00    +0.040 A 
ATOM     10  C   UNL     1       0.126  -7.082   2.258  0.00  0.00    +0.013 A 
ATOM     11  C   UNL     1       0.144  -8.461   2.257  0.00  0.00    +0.003 A 
ATOM     12  C   UNL     1       0.159  -9.156   3.454  0.00  0.00    +0.033 A 
ATOM     13  C   UNL     1       0.155  -8.474   4.657  0.00  0.00    +0.127 A 
ATOM     14  C   UNL     1       0.143  -7.095   4.672  0.00  0.00    +0.045 A 
BRANCH  13  15
ATOM     15  N   UNL     1       0.170  -9.226   5.932  0.00  0.00    +0.056 N 
ATOM     16  O   UNL     1       0.186 -10.435   5.921  0.00  0.00    -0.126 OA
ATOM     17  O   UNL     1       0.167  -8.632   6.985  0.00  0.00    -0.126 OA
ENDBRANCH  13  15
ENDBRANCH   6   9
ENDBRANCH   3   5
BRANCH   1  20
ATOM     18  C   UNL     1      -0.018   1.503   0.010  0.00  0.00    +0.044 C 
ATOM     19  C   UNL     1       0.002  -0.004   0.002  0.00  0.00    -0.037 C 
ATOM     20  C   UNL     1       0.022  -0.684   1.166  0.00  0.00    +0.072 C 
BRANCH  19  21
ATOM     21  C   UNL     1      -0.000  -0.733  -1.276  0.00  0.00    -0.004 A 
ATOM     22  C   UNL     1      -1.165  -1.364  -1.724  0.00  0.00    +0.009 A 
ATOM     23  C   UNL     1      -1.160  -2.044  -2.923  0.00  0.00    +0.001 A 
ATOM     24  C   UNL     1      -0.005  -2.105  -3.684  0.00  0.00    +0.001 A 
ATOM     25  C   UNL     1       1.152  -1.484  -3.249  0.00  0.00    +0.020 A 
ATOM     26  C   UNL     1       1.162  -0.793  -2.054  0.00  0.00    +0.048 A 
ATOM     27 CL   UNL     1       2.613  -0.009  -1.513  0.00  0.00    -0.083 Cl
ENDBRANCH  19  21
ENDBRANCH   1  20
TORSDOF 5
