REMARK  Name = ZINC13010747
REMARK  7 active torsions:
REMARK  status: ('A' for Active; 'I' for Inactive)
REMARK    1  A    between atoms: C_1  and  O_2
REMARK    2  A    between atoms: O_2  and  C_3
REMARK    3  A    between atoms: C_7  and  C_9
REMARK    4  A    between atoms: C_9  and  C_11
REMARK    5  A    between atoms: C_9  and  N_52
REMARK    6  A    between atoms: C_11  and  N_12
REMARK    7  A    between atoms: C_13  and  C_15
REMARK                            x       y       z     vdW  Elec       q    Type
REMARK                         _______ _______ _______ _____ _____    ______ ____
ROOT
ATOM      1  C   UNL     1      -3.192  -4.789   0.070  0.00  0.00    +0.094 C 
ENDROOT
BRANCH   1   2
ATOM      2  N   UNL     1      -2.465  -3.518   0.074  0.00  0.00    -0.311 N 
ATOM      3  C   UNL     1      -1.118  -3.512   0.113  0.00  0.00    +0.260 C 
ATOM      4  O   UNL     1      -0.506  -4.563   0.145  0.00  0.00    -0.269 OA
ATOM      5  H   UNL     1      -2.953  -2.680   0.048  0.00  0.00    +0.149 HD
BRANCH   3   6
ATOM      6  C   UNL     1      -0.387  -2.236   0.116  0.00  0.00    +0.103 A 
ATOM      7  C   UNL     1       0.964  -2.102   0.154  0.00  0.00    +0.041 A 
ATOM      8  C   UNL     1       1.261  -0.717   0.143  0.00  0.00    +0.001 A 
ATOM      9  C   UNL     1       2.458   0.011   0.168  0.00  0.00    +0.025 A 
ATOM     10  C   UNL     1       2.423   1.375   0.147  0.00  0.00    +0.019 A 
ATOM     11  C   UNL     1       1.209   2.052   0.102  0.00  0.00    +0.017 A 
ATOM     12  C   UNL     1       0.020   1.358   0.078  0.00  0.00    +0.027 A 
ATOM     13  C   UNL     1       0.030  -0.034   0.098  0.00  0.00    +0.047 A 
ATOM     14  N   UNL     1      -0.966  -0.982   0.082  0.00  0.00    -0.351 N 
ATOM     15  H   UNL     1      -1.918  -0.800   0.051  0.00  0.00    +0.166 HD
ATOM     16 BR   UNL     1       4.040   2.354   0.180  0.00  0.00    -0.050 Br
ENDBRANCH   3   6
ENDBRANCH   1   2
BRANCH   1  17
ATOM     17  C   UNL     1      -4.697  -4.516   0.023  0.00  0.00    -0.020 C 
BRANCH  17  22
ATOM     18  C   UNL     1      -7.322  -7.201   0.444  0.00  0.00    +0.120 A 
ATOM     19  C   UNL     1      -6.801  -8.220  -0.341  0.00  0.00    +0.045 A 
ATOM     20  C   UNL     1      -5.604  -8.035  -1.005  0.00  0.00    +0.004 A 
ATOM     21  C   UNL     1      -4.924  -6.837  -0.887  0.00  0.00    +0.002 A 
ATOM     22  C   UNL     1      -5.441  -5.820  -0.105  0.00  0.00    -0.056 A 
ATOM     23  C   UNL     1      -6.636  -6.002   0.565  0.00  0.00    +0.047 A 
BRANCH  18  25
ATOM     24  C   UNL     1      -9.148  -8.643   0.932  0.00  0.00    +0.277 C 
ATOM     25  O   UNL     1      -8.499  -7.380   1.098  0.00  0.00    -0.495 OA
ENDBRANCH  18  25
ENDBRANCH  17  22
BRANCH  17  30
ATOM     26  C   UNL     1      -4.767  -4.388  -2.408  0.00  0.00    -0.078 C 
ATOM     27  C   UNL     1      -5.607  -3.586  -3.433  0.00  0.00    -0.020 C 
ATOM     28  C   UNL     1      -6.864  -3.197  -2.621  0.00  0.00    -0.020 C 
ATOM     29  C   UNL     1      -6.432  -3.280  -1.146  0.00  0.00    -0.078 C 
ATOM     30  N   UNL     1      -5.017  -3.656  -1.156  0.00  0.00    +0.385 N 
ATOM     31  H   UNL     1      -4.434  -2.812  -1.126  0.00  0.00    -0.081 HD
ENDBRANCH  17  30
ENDBRANCH   1  17
TORSDOF 6
