REMARK  Name = ZINC41439220
REMARK  6 active torsions:
REMARK  status: ('A' for Active; 'I' for Inactive)
REMARK    1  A    between atoms: C_1  and  C_2
REMARK    2  A    between atoms: C_4  and  C_21
REMARK    3  A    between atoms: C_5  and  C_9
REMARK    4  A    between atoms: C_6  and  C_8
REMARK    5  A    between atoms: C_9  and  N_10
REMARK    6  A    between atoms: C_13  and  N_20
REMARK                            x       y       z     vdW  Elec       q    Type
REMARK                         _______ _______ _______ _____ _____    ______ ____
ROOT
ATOM      1  N   UNL     1       1.554  -4.917  -0.403  0.00  0.00    -0.270 N 
ATOM      2  C   UNL     1       2.064  -5.375   0.811  0.00  0.00    +0.092 A 
ATOM      3  C   UNL     1       1.540  -5.455   2.092  0.00  0.00    +0.052 A 
ATOM      4  C   UNL     1       2.314  -5.972   3.121  0.00  0.00    +0.027 A 
ATOM      5  C   UNL     1       3.610  -6.408   2.866  0.00  0.00    +0.026 A 
ATOM      6  C   UNL     1       4.131  -6.329   1.591  0.00  0.00    +0.050 A 
ATOM      7  C   UNL     1       3.363  -5.814   0.558  0.00  0.00    +0.157 A 
ATOM      8  O   UNL     1       3.604  -5.617  -0.763  0.00  0.00    -0.407 OA
ATOM      9  C   UNL     1       2.513  -5.084  -1.335  0.00  0.00    +0.422 A 
ATOM     10  O   UNL     1       2.408  -4.794  -2.511  0.00  0.00    -0.223 OA
ENDROOT
BRANCH   4  11
ATOM     11  N   UNL     1       1.790  -6.055   4.415  0.00  0.00    -0.358 N 
ATOM     12  H   UNL     1       0.887  -5.751   4.593  0.00  0.00    +0.142 HD
ATOM     13  H   UNL     1       2.331  -6.417   5.135  0.00  0.00    +0.142 HD
ENDBRANCH   4  11
BRANCH   1  14
ATOM     14  C   UNL     1       0.217  -4.362  -0.627  0.00  0.00    +0.164 C 
BRANCH  14  19
ATOM     15  C   UNL     1       0.481   1.410  -0.505  0.00  0.00    +0.044 C 
ATOM     16  C   UNL     1       0.412  -0.095  -0.537  0.00  0.00    -0.050 A 
ATOM     17  C   UNL     1       0.539  -0.768  -1.738  0.00  0.00    +0.007 A 
ATOM     18  C   UNL     1       0.476  -2.149  -1.767  0.00  0.00    -0.045 A 
ATOM     19  C   UNL     1       0.286  -2.857  -0.595  0.00  0.00    -0.022 A 
ATOM     20  C   UNL     1       0.160  -2.184   0.606  0.00  0.00    -0.045 A 
ATOM     21  C   UNL     1       0.227  -0.804   0.636  0.00  0.00    +0.007 A 
ATOM     22  C   UNL     1      -0.047  -2.956   1.884  0.00  0.00    +0.044 C 
ATOM     23  C   UNL     1       0.614  -2.882  -3.076  0.00  0.00    +0.044 C 
ENDBRANCH  14  19
ENDBRANCH   1  14
TORSDOF 3
