REMARK  Name = ZINC39443962
REMARK  4 active torsions:
REMARK  status: ('A' for Active; 'I' for Inactive)
REMARK    1  A    between atoms: C_4  and  C_7
REMARK    2  A    between atoms: C_9  and  C_12
REMARK    3  A    between atoms: N_14  and  N_15
REMARK    4  A    between atoms: C_16  and  C_18
REMARK                            x       y       z     vdW  Elec       q    Type
REMARK                         _______ _______ _______ _____ _____    ______ ____
ROOT
ATOM      1  N   UNL     1       4.780  -6.118  -0.099  0.00  0.00    -0.232 N 
ATOM      2  C   UNL     1       3.779  -7.020  -0.101  0.00  0.00    +0.257 C 
ATOM      3  O   UNL     1       2.625  -6.646  -0.089  0.00  0.00    -0.272 OA
ATOM      4  H   UNL     1       5.703  -6.418  -0.108  0.00  0.00    +0.173 HD
ENDROOT
BRANCH   2   5
ATOM      5  C   UNL     1       4.093  -8.494  -0.117  0.00  0.00    +0.214 C 
ATOM      6  C   UNL     1       4.514  -8.863  -1.520  0.00  0.00    -0.003 A 
ATOM      7  C   UNL     1       5.574  -8.268  -2.153  0.00  0.00    +0.007 A 
ATOM      8  C   UNL     1       5.906  -8.656  -3.443  0.00  0.00    +0.000 A 
ATOM      9  C   UNL     1       5.174  -9.638  -4.089  0.00  0.00    +0.001 A 
ATOM     10  C   UNL     1       4.104 -10.243  -3.460  0.00  0.00    +0.013 A 
ATOM     11  C   UNL     1       3.767  -9.858  -2.165  0.00  0.00    +0.046 A 
ATOM     12  C   UNL     1       2.638 -10.463  -1.434  0.00  0.00    +0.283 C 
ATOM     13  O   UNL     1       1.973 -11.328  -1.968  0.00  0.00    -0.267 OA
ATOM     14  N   UNL     1       2.335 -10.071  -0.186  0.00  0.00    -0.104 NA
ATOM     15  N   UNL     1       2.938  -9.208   0.449  0.00  0.00    -0.298 N 
ATOM     16  H   UNL     1       2.644  -8.992   1.347  0.00  0.00    +0.181 HD
ENDBRANCH   2   5
BRANCH   1  19
ATOM     17  C   UNL     1       5.490  -3.846  -0.082  0.00  0.00    +0.279 C 
ATOM     18  O   UNL     1       6.647  -4.221  -0.094  0.00  0.00    -0.267 OA
ATOM     19  N   UNL     1       4.489  -4.748  -0.083  0.00  0.00    -0.229 N 
ATOM     20  H   UNL     1       3.566  -4.449  -0.074  0.00  0.00    +0.173 HD
BRANCH  17  23
ATOM     21  C   UNL     1       3.696  -0.685  -0.037  0.00  0.00    +0.109 A 
ATOM     22  N   UNL     1       3.926  -1.986  -0.052  0.00  0.00    -0.234 NA
ATOM     23  C   UNL     1       5.183  -2.405  -0.066  0.00  0.00    +0.135 A 
ATOM     24  C   UNL     1       6.194  -1.480  -0.064  0.00  0.00    +0.080 A 
ATOM     25  S   UNL     1       5.352  -0.022  -0.051  0.00  0.00    -0.075 S 
BRANCH  21  29
ATOM     26  C   UNL     1      -0.017   1.379   0.010  0.00  0.00    +0.000 A 
ATOM     27  C   UNL     1       1.168   2.093   0.002  0.00  0.00    +0.001 A 
ATOM     28  C   UNL     1       2.377   1.429  -0.013  0.00  0.00    +0.010 A 
ATOM     29  C   UNL     1       2.403   0.034  -0.021  0.00  0.00    +0.007 A 
ATOM     30  C   UNL     1       1.204  -0.680  -0.013  0.00  0.00    +0.010 A 
ATOM     31  C   UNL     1       0.002  -0.004   0.002  0.00  0.00    +0.001 A 
ENDBRANCH  21  29
ENDBRANCH  17  23
ENDBRANCH   1  19
TORSDOF 4
