REMARK  Name = ZINC13247322
REMARK  8 active torsions:
REMARK  status: ('A' for Active; 'I' for Inactive)
REMARK    1  A    between atoms: C_3  and  N_24
REMARK    2  A    between atoms: C_6  and  C_7
REMARK    3  A    between atoms: C_7  and  C_9
REMARK    4  A    between atoms: C_7  and  O_23
REMARK    5  A    between atoms: C_9  and  N_10
REMARK    6  A    between atoms: N_10  and  S_11
REMARK    7  A    between atoms: S_11  and  C_14
REMARK    8  A    between atoms: C_16  and  C_21
REMARK                            x       y       z     vdW  Elec       q    Type
REMARK                         _______ _______ _______ _____ _____    ______ ____
ROOT
ATOM      1  N   UNL     1      -0.106   1.595  -0.026  0.00  0.00    -0.187 NA
ATOM      2  H   UNL     1      -0.887   2.146   0.139  0.00  0.00    +0.148 HD
ENDROOT
BRANCH   1   3
ATOM      3  S   UNL     1       1.394   2.290  -0.118  0.00  0.00    +0.060 S 
ATOM      4  O   UNL     1       1.205   3.688   0.053  0.00  0.00    -0.153 OA
ATOM      5  O   UNL     1       2.247   1.528   0.724  0.00  0.00    -0.153 OA
BRANCH   3   6
ATOM      6  C   UNL     1       1.975   2.058  -1.766  0.00  0.00    +0.120 A 
ATOM      7  C   UNL     1       3.094   1.286  -1.998  0.00  0.00    +0.044 A 
ATOM      8  C   UNL     1       3.550   1.100  -3.305  0.00  0.00    +0.065 A 
ATOM      9  C   UNL     1       2.875   1.706  -4.367  0.00  0.00    +0.016 A 
ATOM     10  C   UNL     1       1.761   2.480  -4.121  0.00  0.00    +0.018 A 
ATOM     11  C   UNL     1       1.310   2.657  -2.823  0.00  0.00    +0.044 A 
ATOM     12 BR   UNL     1      -0.219   3.719  -2.494  0.00  0.00    -0.048 Br
BRANCH   8  13
ATOM     13  C   UNL     1       4.744   0.270  -3.562  0.00  0.00    +0.387 C 
ATOM     14  O   UNL     1       5.329  -0.256  -2.636  0.00  0.00    -0.241 OA
ATOM     15  O   UNL     1       5.184   0.096  -4.823  0.00  0.00    -0.241 OA
ENDBRANCH   8  13
ENDBRANCH   3   6
ENDBRANCH   1   3
BRANCH   1  16
ATOM     16  C   UNL     1      -0.255   0.147  -0.199  0.00  0.00    +0.142 C 
BRANCH  16  17
ATOM     17  C   UNL     1      -1.632  -0.288   0.307  0.00  0.00    +0.160 C 
BRANCH  17  23
ATOM     18  C   UNL     1      -1.298  -2.642   1.091  0.00  0.00    +0.008 A 
ATOM     19  C   UNL     1      -1.442  -4.007   0.930  0.00  0.00    +0.033 A 
ATOM     20  C   UNL     1      -2.064  -4.508  -0.198  0.00  0.00    +0.126 A 
ATOM     21  C   UNL     1      -2.546  -3.643  -1.163  0.00  0.00    +0.033 A 
ATOM     22  C   UNL     1      -2.406  -2.278  -1.000  0.00  0.00    +0.008 A 
ATOM     23  C   UNL     1      -1.784  -1.777   0.129  0.00  0.00    -0.018 A 
BRANCH  20  24
ATOM     24  N   UNL     1      -2.213  -5.970  -0.373  0.00  0.00    +0.056 N 
ATOM     25  O   UNL     1      -2.760  -6.412  -1.368  0.00  0.00    -0.126 OA
ATOM     26  O   UNL     1      -1.788  -6.732   0.477  0.00  0.00    -0.126 OA
ENDBRANCH  20  24
ENDBRANCH  17  23
BRANCH  17  27
ATOM     27  O   UNL     1      -1.756   0.041   1.692  0.00  0.00    -0.386 OA
ATOM     28  H   UNL     1      -1.097  -0.383   2.258  0.00  0.00    +0.210 HD
ENDBRANCH  17  27
ENDBRANCH  16  17
ENDBRANCH   1  16
TORSDOF 8
