REMARK  Name = ZINC09663881
REMARK  4 active torsions:
REMARK  status: ('A' for Active; 'I' for Inactive)
REMARK    1  A    between atoms: N_7  and  C_21
REMARK    2  A    between atoms: N_10  and  C_14
REMARK    3  A    between atoms: C_21  and  C_22
REMARK    4  A    between atoms: C_22  and  C_24
REMARK                            x       y       z     vdW  Elec       q    Type
REMARK                         _______ _______ _______ _____ _____    ______ ____
ROOT
ATOM      1  C   UNL     1      -0.013   1.076  -0.017  0.00  0.00    +0.002 A 
ATOM      2  C   UNL     1      -1.225   1.742  -0.009  0.00  0.00    +0.002 A 
ATOM      3  C   UNL     1      -1.248   3.129   0.012  0.00  0.00    +0.031 A 
ATOM      4  C   UNL     1      -0.067   3.814   0.013  0.00  0.00    +0.131 A 
ATOM      5  C   UNL     1       1.169   3.163  -0.001  0.00  0.00    +0.065 A 
ATOM      6  C   UNL     1       1.179   1.773  -0.016  0.00  0.00    +0.025 A 
ATOM      7  N   UNL     1       2.348   3.893   0.001  0.00  0.00    -0.244 N 
ATOM      8  C   UNL     1       2.549   5.202   0.014  0.00  0.00    +0.333 C 
ATOM      9  O   UNL     1       3.705   5.578   0.013  0.00  0.00    -0.250 OA
ATOM     10  N   UNL     1       1.595   6.162   0.030  0.00  0.00    -0.123 N 
ATOM     11  S   UNL     1       0.016   5.587   0.032  0.00  0.00    +0.084 S 
ATOM     12  O   UNL     1      -0.538   5.984   1.279  0.00  0.00    -0.149 OA
ATOM     13  O   UNL     1      -0.550   6.010  -1.201  0.00  0.00    -0.149 OA
ENDROOT
BRANCH  10  14
ATOM     14  C   UNL     1       1.899   7.527   0.044  0.00  0.00    +0.063 A 
ATOM     15  C   UNL     1       0.988   8.439   0.562  0.00  0.00    +0.025 A 
ATOM     16  C   UNL     1       1.293   9.785   0.578  0.00  0.00    +0.003 A 
ATOM     17  C   UNL     1       2.501  10.229   0.070  0.00  0.00    +0.020 A 
ATOM     18  C   UNL     1       3.409   9.324  -0.451  0.00  0.00    +0.043 A 
ATOM     19  C   UNL     1       3.111   7.974  -0.466  0.00  0.00    +0.045 A 
ATOM     20 CL   UNL     1       4.923   9.886  -1.088  0.00  0.00    -0.083 Cl
ENDBRANCH  10  14
BRANCH   7  21
ATOM     21  C   UNL     1       3.570   3.085  -0.015  0.00  0.00    +0.195 C 
BRANCH  21  22
ATOM     22  C   UNL     1       3.907   2.713  -1.436  0.00  0.00    +0.187 C 
ATOM     23  O   UNL     1       3.196   3.086  -2.347  0.00  0.00    -0.290 OA
BRANCH  22  24
ATOM     24  C   UNL     1       5.050   1.930  -1.707  0.00  0.00    +0.057 A 
ATOM     25  C   UNL     1       5.535   1.481  -2.932  0.00  0.00    +0.020 A 
ATOM     26  C   UNL     1       6.678   0.729  -2.911  0.00  0.00    +0.023 A 
ATOM     27  C   UNL     1       7.277   0.461  -1.716  0.00  0.00    +0.056 A 
ATOM     28  S   UNL     1       6.254   1.265  -0.571  0.00  0.00    -0.078 S 
ATOM     29 BR   UNL     1       8.847  -0.540  -1.388  0.00  0.00    -0.043 Br
ENDBRANCH  22  24
ENDBRANCH  21  22
ENDBRANCH   7  21
TORSDOF 4
