REMARK  Name = ZINC08843542
REMARK  8 active torsions:
REMARK  status: ('A' for Active; 'I' for Inactive)
REMARK    1  A    between atoms: C_1  and  C_2
REMARK    2  A    between atoms: C_3  and  C_25
REMARK    3  A    between atoms: C_4  and  C_12
REMARK    4  A    between atoms: C_16  and  O_18
REMARK    5  A    between atoms: O_18  and  C_19
REMARK    6  A    between atoms: C_25  and  O_27
REMARK    7  A    between atoms: O_27  and  C_28
REMARK    8  A    between atoms: C_28  and  C_29
REMARK                            x       y       z     vdW  Elec       q    Type
REMARK                         _______ _______ _______ _____ _____    ______ ____
ROOT
ATOM      1  C   UNL     1      10.182   2.365   1.952  0.00  0.00    +0.061 C 
ATOM      2  C   UNL     1       9.301   2.049   0.771  0.00  0.00    +0.020 C 
ATOM      3  C   UNL     1       8.185   1.329   0.969  0.00  0.00    +0.082 C 
ATOM      4  C   UNL     1       7.232   0.970  -0.139  0.00  0.00    +0.179 C 
ATOM      5  N   UNL     1       7.853   1.261  -1.428  0.00  0.00    -0.221 N 
ATOM      6  C   UNL     1       8.991   1.985  -1.566  0.00  0.00    +0.218 A 
ATOM      7  N   UNL     1       9.267   2.063  -2.839  0.00  0.00    -0.201 NA
ATOM      8  C   UNL     1       8.338   1.403  -3.539  0.00  0.00    +0.247 A 
ATOM      9  N   UNL     1       7.456   0.896  -2.713  0.00  0.00    -0.156 NA
ATOM     10  N   UNL     1       9.666   2.506  -0.470  0.00  0.00    -0.287 N 
ATOM     11  H   UNL     1      10.368   3.166  -0.578  0.00  0.00    +0.155 HD
ENDROOT
BRANCH   4  12
ATOM     12  C   UNL     1       5.968   1.779   0.004  0.00  0.00    -0.015 A 
ATOM     13  C   UNL     1       6.024   3.160  -0.037  0.00  0.00    +0.006 A 
ATOM     14  C   UNL     1       4.867   3.906   0.094  0.00  0.00    +0.004 A 
ATOM     15  C   UNL     1       3.652   3.272   0.266  0.00  0.00    +0.046 A 
ATOM     16  C   UNL     1       3.593   1.886   0.307  0.00  0.00    +0.129 A 
ATOM     17  C   UNL     1       4.756   1.141   0.181  0.00  0.00    +0.052 A 
BRANCH  16  18
ATOM     18  O   UNL     1       2.399   1.260   0.476  0.00  0.00    -0.456 OA
BRANCH  18  19
ATOM     19  C   UNL     1       1.554   1.200  -0.586  0.00  0.00    +0.128 A 
ATOM     20  C   UNL     1       0.367   0.488  -0.491  0.00  0.00    +0.046 A 
ATOM     21  C   UNL     1      -0.487   0.422  -1.575  0.00  0.00    +0.004 A 
ATOM     22  C   UNL     1      -0.165   1.075  -2.750  0.00  0.00    +0.000 A 
ATOM     23  C   UNL     1       1.017   1.786  -2.848  0.00  0.00    +0.004 A 
ATOM     24  C   UNL     1       1.877   1.849  -1.769  0.00  0.00    +0.046 A 
ENDBRANCH  18  19
ENDBRANCH  16  18
ENDBRANCH   4  12
BRANCH   3  25
ATOM     25  C   UNL     1       7.892   0.889   2.279  0.00  0.00    +0.339 C 
ATOM     26  O   UNL     1       8.580   1.257   3.213  0.00  0.00    -0.245 OA
BRANCH  25  27
ATOM     27  O   UNL     1       6.849   0.059   2.494  0.00  0.00    -0.457 OA
BRANCH  27  28
ATOM     28  C   UNL     1       6.611  -0.346   3.844  0.00  0.00    +0.268 C 
BRANCH  28  29
ATOM     29  C   UNL     1       5.415  -1.263   3.889  0.00  0.00    -0.010 A 
ATOM     30  C   UNL     1       4.149  -0.739   4.072  0.00  0.00    +0.007 A 
ATOM     31  C   UNL     1       3.053  -1.580   4.109  0.00  0.00    +0.000 A 
ATOM     32  C   UNL     1       3.223  -2.945   3.972  0.00  0.00    +0.000 A 
ATOM     33  C   UNL     1       4.490  -3.469   3.794  0.00  0.00    +0.000 A 
ATOM     34  C   UNL     1       5.586  -2.628   3.753  0.00  0.00    +0.007 A 
ENDBRANCH  28  29
ENDBRANCH  27  28
ENDBRANCH  25  27
ENDBRANCH   3  25
TORSDOF 7
