REMARK  Name = ZINC39770784
REMARK  12 active torsions:
REMARK  status: ('A' for Active; 'I' for Inactive)
REMARK    1  A    between atoms: C_1  and  C_2
REMARK    2  A    between atoms: C_2  and  C_3
REMARK    3  A    between atoms: C_3  and  C_4
REMARK    4  A    between atoms: C_4  and  N_5
REMARK    5  A    between atoms: C_6  and  N_29
REMARK    6  A    between atoms: C_7  and  C_15
REMARK    7  A    between atoms: C_8  and  C_14
REMARK    8  A    between atoms: C_9  and  C_12
REMARK    9  A    between atoms: N_19  and  C_23
REMARK   10  A    between atoms: C_23  and  C_24
REMARK   11  A    between atoms: C_31  and  C_38
REMARK   12  A    between atoms: C_34  and  C_37
REMARK                            x       y       z     vdW  Elec       q    Type
REMARK                         _______ _______ _______ _____ _____    ______ ____
ROOT
ATOM      1  N   UNL     1       1.293  -2.594   2.948  0.00  0.00    -0.295 N 
ATOM      2  C   UNL     1       2.622  -2.744   2.711  0.00  0.00    +0.112 A 
ATOM      3  C   UNL     1       3.418  -3.513   3.575  0.00  0.00    +0.019 A 
ATOM      4  C   UNL     1       2.830  -4.129   4.692  0.00  0.00    -0.017 A 
ATOM      5  C   UNL     1       1.466  -3.960   4.913  0.00  0.00    +0.120 A 
ATOM      6  C   UNL     1       0.707  -3.170   4.013  0.00  0.00    +0.270 A 
ATOM      7  O   UNL     1      -0.486  -3.014   4.204  0.00  0.00    -0.266 OA
ATOM      8  C   UNL     1       3.661  -4.960   5.635  0.00  0.00    +0.046 C 
ENDROOT
BRANCH   3   9
ATOM      9  C   UNL     1       4.850  -3.671   3.314  0.00  0.00    +0.032 C 
ATOM     10  C   UNL     1       5.762  -3.141   4.175  0.00  0.00    +0.077 C 
ATOM     11  C   UNL     1       5.555  -2.315   5.321  0.00  0.00    +0.259 C 
ATOM     12  O   UNL     1       4.434  -1.980   5.659  0.00  0.00    -0.269 OA
ATOM     13  N   UNL     1       6.617  -1.924   6.004  0.00  0.00    -0.248 N 
ATOM     14  C   UNL     1       7.861  -2.296   5.628  0.00  0.00    +0.121 C 
ATOM     15  S   UNL     1       9.362  -1.911   6.356  0.00  0.00    -0.027 S 
ATOM     16  S   UNL     1       7.542  -3.297   4.183  0.00  0.00    -0.061 S 
BRANCH  13  17
ATOM     17  C   UNL     1       6.444  -1.075   7.185  0.00  0.00    +0.189 C 
BRANCH  17  18
ATOM     18  C   UNL     1       6.285  -1.942   8.408  0.00  0.00    +0.122 A 
ATOM     19  C   UNL     1       7.282  -2.378   9.198  0.00  0.00    +0.046 A 
ATOM     20  C   UNL     1       6.686  -3.154  10.219  0.00  0.00    +0.041 A 
ATOM     21  C   UNL     1       5.360  -3.147   9.990  0.00  0.00    +0.195 A 
ATOM     22  O   UNL     1       5.122  -2.406   8.895  0.00  0.00    -0.466 OA
ENDBRANCH  17  18
ENDBRANCH  13  17
ENDBRANCH   3   9
BRANCH   2  23
ATOM     23  N   UNL     1       3.187  -2.143   1.625  0.00  0.00    -0.311 N 
ATOM     24  C   UNL     1       3.166  -2.791   0.304  0.00  0.00    +0.137 C 
ATOM     25  C   UNL     1       4.591  -2.786  -0.260  0.00  0.00    +0.133 C 
ATOM     26  O   UNL     1       5.112  -1.455  -0.214  0.00  0.00    -0.371 OA
ATOM     27  C   UNL     1       5.229  -0.918   1.105  0.00  0.00    +0.133 C 
ATOM     28  C   UNL     1       3.832  -0.825   1.738  0.00  0.00    +0.137 C 
ATOM     29  C   UNL     1       5.852   0.477   1.036  0.00  0.00    +0.039 C 
ATOM     30  C   UNL     1       4.569  -3.278  -1.709  0.00  0.00    +0.039 C 
ENDBRANCH   2  23
BRANCH   5  31
ATOM     31  C   UNL     1       0.835  -4.575   6.042  0.00  0.00    +0.105 C 
ATOM     32  N   UNL     1       0.335  -5.064   6.938  0.00  0.00    -0.191 NA
ENDBRANCH   5  31
BRANCH   1  33
ATOM     33  C   UNL     1       0.485  -1.787   2.030  0.00  0.00    +0.126 C 
BRANCH  33  34
ATOM     34  C   UNL     1       0.378  -0.358   2.567  0.00  0.00    +0.021 C 
BRANCH  34  36
ATOM     35  C   UNL     1      -0.573   1.913   2.145  0.00  0.00    +0.004 C 
ATOM     36  C   UNL     1      -0.466   0.484   1.609  0.00  0.00    -0.002 C 
ENDBRANCH  34  36
ENDBRANCH  33  34
ENDBRANCH   1  33
TORSDOF 8
