REMARK  Name = ZINC50987012
REMARK  3 active torsions:
REMARK  status: ('A' for Active; 'I' for Inactive)
REMARK    1  A    between atoms: C_1  and  C_2
REMARK    2  A    between atoms: C_4  and  C_11
REMARK    3  A    between atoms: N_6  and  C_7
REMARK                            x       y       z     vdW  Elec       q    Type
REMARK                         _______ _______ _______ _____ _____    ______ ____
ROOT
ATOM      1  C   UNL     1       0.200   1.119  -0.120  0.00  0.00    +0.081 C 
ATOM      2  C   UNL     1      -0.647   1.600  -1.270  0.00  0.00    +0.073 C 
ATOM      3  N   UNL     1      -1.098   0.822  -2.189  0.00  0.00    -0.363 N 
ATOM      4  C   UNL     1      -1.877   1.633  -3.136  0.00  0.00    +0.172 C 
ATOM      5  C   UNL     1      -1.782   3.039  -2.574  0.00  0.00    +0.101 C 
ATOM      6  N   UNL     1      -1.017   2.905  -1.435  0.00  0.00    -0.276 N 
ATOM      7  N   UNL     1      -2.305   4.119  -3.053  0.00  0.00    -0.388 N 
ATOM      8  H   UNL     1      -2.832   4.084  -3.867  0.00  0.00    +0.157 HD
ATOM      9  H   UNL     1      -2.172   4.965  -2.598  0.00  0.00    +0.157 HD
ATOM     10  H   UNL     1      -0.949  -0.135  -2.247  0.00  0.00    +0.162 HD
ENDROOT
BRANCH   4  11
ATOM     11  C   UNL     1      -3.311   1.173  -3.172  0.00  0.00    -0.013 A 
ATOM     12  C   UNL     1      -3.995   1.138  -4.374  0.00  0.00    +0.055 A 
ATOM     13  C   UNL     1      -5.314   0.716  -4.409  0.00  0.00    +0.168 A 
ATOM     14  C   UNL     1      -5.949   0.327  -3.232  0.00  0.00    +0.180 A 
ATOM     15  C   UNL     1      -5.258   0.365  -2.031  0.00  0.00    +0.064 A 
ATOM     16  C   UNL     1      -3.939   0.782  -2.005  0.00  0.00    +0.025 A 
ATOM     17 BR   UNL     1      -6.116  -0.161  -0.431  0.00  0.00    -0.046 Br
ATOM     18  O   UNL     1      -7.229  -0.043  -3.529  0.00  0.00    -0.451 OA
ATOM     19  C   UNL     1      -7.497   0.510  -4.831  0.00  0.00    +0.466 C 
ATOM     20  O   UNL     1      -6.196   0.589  -5.443  0.00  0.00    -0.453 OA
ENDBRANCH   4  11
BRANCH   6  21
ATOM     21  C   UNL     1      -0.651   4.002  -0.536  0.00  0.00    +0.081 C 
ATOM     22  C   UNL     1      -0.120   5.288  -1.171  0.00  0.00    +0.025 C 
ATOM     23  C   UNL     1       0.834   4.356  -0.422  0.00  0.00    +0.025 C 
ENDBRANCH   6  21
TORSDOF 2
