REMARK  Name = ZINC65536252
REMARK  8 active torsions:
REMARK  status: ('A' for Active; 'I' for Inactive)
REMARK    1  A    between atoms: C_1  and  C_2
REMARK    2  A    between atoms: C_2  and  C_3
REMARK    3  A    between atoms: C_2  and  C_4
REMARK    4  A    between atoms: C_4  and  C_28
REMARK    5  A    between atoms: C_9  and  C_12
REMARK    6  A    between atoms: N_24  and  C_27
REMARK    7  A    between atoms: C_28  and  O_30
REMARK    8  A    between atoms: O_30  and  C_31
REMARK                            x       y       z     vdW  Elec       q    Type
REMARK                         _______ _______ _______ _____ _____    ______ ____
ROOT
ATOM      1  C   UNL     1      -1.327  -0.330  -0.040  0.00  0.00    +0.132 C 
ATOM      2  C   UNL     1      -1.614  -1.839   0.102  0.00  0.00    +0.120 C 
ATOM      3  C   UNL     1      -1.810  -2.346  -1.352  0.00  0.00    +0.111 C 
ATOM      4  C   UNL     1      -1.608  -1.098  -2.237  0.00  0.00    +0.098 C 
ATOM      5  N   UNL     1      -1.935   0.049  -1.341  0.00  0.00    -0.293 NA
ATOM      6  C   UNL     1      -3.263  -2.764  -1.383  0.00  0.00    +0.227 C 
ATOM      7  O   UNL     1      -3.839  -3.226  -2.344  0.00  0.00    -0.275 OA
ATOM      8  N   UNL     1      -3.813  -2.547  -0.182  0.00  0.00    -0.245 N 
ATOM      9  C   UNL     1      -2.971  -2.030   0.741  0.00  0.00    +0.228 C 
ATOM     10  O   UNL     1      -3.248  -1.759   1.890  0.00  0.00    -0.275 OA
ATOM     11  C   UNL     1      -5.216  -2.849   0.113  0.00  0.00    +0.141 C 
ATOM     12  H   UNL     1      -2.932   0.176  -1.250  0.00  0.00    +0.124 HD
ENDROOT
BRANCH   4  13
ATOM     13  C   UNL     1      -2.559  -1.123  -3.405  0.00  0.00    -0.019 A 
ATOM     14  C   UNL     1      -3.756  -0.466  -3.350  0.00  0.00    +0.023 A 
ATOM     15  C   UNL     1      -4.620  -0.502  -4.442  0.00  0.00    +0.083 A 
ATOM     16  N   UNL     1      -4.319  -1.156  -5.538  0.00  0.00    -0.361 N 
ATOM     17  C   UNL     1      -3.164  -1.819  -5.657  0.00  0.00    +0.047 A 
ATOM     18  C   UNL     1      -2.237  -1.818  -4.585  0.00  0.00    +0.003 A 
ATOM     19  C   UNL     1      -1.023  -2.512  -4.717  0.00  0.00    +0.010 A 
ATOM     20  C   UNL     1      -0.749  -3.173  -5.875  0.00  0.00    +0.001 A 
ATOM     21  C   UNL     1      -1.657  -3.171  -6.933  0.00  0.00    +0.002 A 
ATOM     22  C   UNL     1      -2.847  -2.519  -6.834  0.00  0.00    +0.026 A 
ATOM     23  H   UNL     1      -4.947  -1.159  -6.278  0.00  0.00    +0.165 HD
ENDBRANCH   4  13
BRANCH   1  25
ATOM     24  C   UNL     1       0.442   1.431  -0.160  0.00  0.00    +0.009 C 
ATOM     25  C   UNL     1       0.182  -0.074  -0.062  0.00  0.00    +0.015 C 
ATOM     26  C   UNL     1       0.811  -0.618   1.222  0.00  0.00    +0.009 C 
ENDBRANCH   1  25
BRANCH   1  27
ATOM     27  C   UNL     1      -1.972   0.438   1.085  0.00  0.00    +0.328 C 
ATOM     28  O   UNL     1      -1.330   0.719   2.070  0.00  0.00    -0.249 OA
BRANCH  27  29
ATOM     29  O   UNL     1      -3.258   0.809   0.993  0.00  0.00    -0.467 OA
ATOM     30  C   UNL     1      -3.805   1.534   2.097  0.00  0.00    +0.280 C 
ENDBRANCH  27  29
ENDBRANCH   1  27
TORSDOF 4
