REMARK  Name = ZINC38872960
REMARK  7 active torsions:
REMARK  status: ('A' for Active; 'I' for Inactive)
REMARK    1  A    between atoms: C_1  and  C_2
REMARK    2  A    between atoms: C_2  and  C_33
REMARK    3  A    between atoms: C_4  and  N_13
REMARK    4  A    between atoms: C_14  and  C_16
REMARK    5  A    between atoms: N_19  and  C_22
REMARK    6  A    between atoms: C_22  and  C_23
REMARK    7  A    between atoms: C_25  and  C_28
REMARK                            x       y       z     vdW  Elec       q    Type
REMARK                         _______ _______ _______ _____ _____    ______ ____
ROOT
ATOM      1  C   UNL     1      -5.722  -0.730   2.352  0.00  0.00    +0.071 C 
ATOM      2  C   UNL     1      -6.338  -1.121   1.005  0.00  0.00    -0.006 C 
ATOM      3  C   UNL     1      -7.698  -1.779   1.243  0.00  0.00    -0.077 C 
ATOM      4  N   UNL     1      -8.587  -0.837   1.934  0.00  0.00    +0.386 N 
ATOM      5  C   UNL     1      -8.039  -0.514   3.257  0.00  0.00    -0.077 C 
ATOM      6  C   UNL     1      -6.692   0.193   3.096  0.00  0.00    -0.006 C 
ATOM      7  H   UNL     1      -8.669   0.008   1.389  0.00  0.00    -0.081 HD
ENDROOT
BRANCH   1   9
ATOM      8  N   UNL     1      -3.410  -0.634   1.479  0.00  0.00    -0.308 N 
ATOM      9  C   UNL     1      -4.418  -0.011   2.120  0.00  0.00    +0.216 C 
ATOM     10  O   UNL     1      -4.277   1.128   2.512  0.00  0.00    -0.276 OA
ATOM     11  H   UNL     1      -3.523  -1.545   1.166  0.00  0.00    +0.149 HD
BRANCH   8  15
ATOM     12  C   UNL     1      -0.019   1.526   0.010  0.00  0.00    +0.055 C 
ATOM     13  C   UNL     1       0.002  -0.004   0.002  0.00  0.00    +0.107 C 
ATOM     14  C   UNL     1      -1.435  -0.540   0.040  0.00  0.00    +0.074 C 
ATOM     15  C   UNL     1      -2.142   0.066   1.254  0.00  0.00    +0.110 C 
ATOM     16  C   UNL     1      -1.268  -0.077   2.474  0.00  0.00    +0.015 A 
ATOM     17  C   UNL     1      -1.846   0.054   3.727  0.00  0.00    +0.009 A 
ATOM     18  C   UNL     1      -1.075  -0.067   4.866  0.00  0.00    +0.001 A 
ATOM     19  C   UNL     1       0.281  -0.320   4.759  0.00  0.00    +0.004 A 
ATOM     20  C   UNL     1       0.861  -0.454   3.515  0.00  0.00    +0.046 A 
ATOM     21  C   UNL     1       0.087  -0.334   2.365  0.00  0.00    +0.126 A 
ATOM     22  O   UNL     1       0.692  -0.482   1.158  0.00  0.00    -0.486 OA
ATOM     23  C   UNL     1       0.706  -0.503  -1.262  0.00  0.00    +0.055 C 
ENDBRANCH   8  15
ENDBRANCH   1   9
BRANCH   4  24
ATOM     24  C   UNL     1      -9.915  -1.445   2.091  0.00  0.00    +0.022 C 
BRANCH  24  25
ATOM     25  C   UNL     1     -10.862  -0.437   2.689  0.00  0.00    +0.211 A 
ATOM     26  N   UNL     1     -11.608   0.395   2.020  0.00  0.00    -0.192 NA
ATOM     27  C   UNL     1     -12.330   1.152   2.869  0.00  0.00    +0.209 A 
ATOM     28  N   UNL     1     -12.038   0.795   4.098  0.00  0.00    -0.056 NA
ATOM     29  O   UNL     1     -11.082  -0.250   3.997  0.00  0.00    -0.340 OA
BRANCH  27  30
ATOM     30  C   UNL     1     -13.289   2.206   2.482  0.00  0.00    +0.060 A 
ATOM     31  C   UNL     1     -14.051   3.016   3.282  0.00  0.00    +0.019 A 
ATOM     32  C   UNL     1     -14.883   3.938   2.689  0.00  0.00    +0.008 A 
ATOM     33  C   UNL     1     -14.924   4.018   1.333  0.00  0.00    +0.046 A 
ATOM     34  S   UNL     1     -13.751   2.762   0.849  0.00  0.00    -0.093 S 
ENDBRANCH  27  30
ENDBRANCH  24  25
ENDBRANCH   4  24
TORSDOF 5
