REMARK  Name = ZINC16916847
REMARK  3 active torsions:
REMARK  status: ('A' for Active; 'I' for Inactive)
REMARK    1  A    between atoms: C_4  and  N_7
REMARK    2  A    between atoms: C_9  and  C_10
REMARK    3  A    between atoms: C_13  and  N_16
REMARK                            x       y       z     vdW  Elec       q    Type
REMARK                         _______ _______ _______ _____ _____    ______ ____
ROOT
ATOM      1  N   UNL     1       2.507   5.628   0.222  0.00  0.00    -0.246 N 
ATOM      2  C   UNL     1       2.354   4.244   0.364  0.00  0.00    +0.103 C 
ATOM      3  C   UNL     1       1.202   3.559   0.567  0.00  0.00    +0.037 C 
ATOM      4  C   UNL     1       3.715   3.692   0.251  0.00  0.00    +0.264 C 
ATOM      5  O   UNL     1       4.037   2.520   0.321  0.00  0.00    -0.268 OA
ATOM      6  N   UNL     1       4.532   4.746   0.050  0.00  0.00    -0.262 N 
ATOM      7  C   UNL     1       3.815   5.880   0.038  0.00  0.00    +0.148 C 
ATOM      8  S   UNL     1       4.479   7.443  -0.183  0.00  0.00    -0.018 S 
ATOM      9  H   UNL     1       5.493   4.692  -0.065  0.00  0.00    +0.157 HD
ENDROOT
BRANCH   1  13
ATOM     10  C   UNL     1      -0.546   8.462   0.347  0.00  0.00    +0.000 A 
ATOM     11  C   UNL     1      -0.474   7.571  -0.708  0.00  0.00    +0.002 A 
ATOM     12  C   UNL     1       0.537   6.631  -0.752  0.00  0.00    +0.024 A 
ATOM     13  C   UNL     1       1.482   6.580   0.264  0.00  0.00    +0.041 A 
ATOM     14  C   UNL     1       1.403   7.473   1.326  0.00  0.00    +0.024 A 
ATOM     15  C   UNL     1       0.394   8.414   1.361  0.00  0.00    +0.002 A 
ENDBRANCH   1  13
BRANCH   3  16
ATOM     16  C   UNL     1       1.200   2.090   0.508  0.00  0.00    -0.023 A 
ATOM     17  C   UNL     1       0.451   1.350   1.431  0.00  0.00    +0.010 A 
ATOM     18  C   UNL     1       0.454  -0.027   1.369  0.00  0.00    +0.033 A 
ATOM     19  C   UNL     1       1.194  -0.678   0.397  0.00  0.00    +0.126 A 
ATOM     20  C   UNL     1       1.937   0.046  -0.519  0.00  0.00    +0.033 A 
ATOM     21  C   UNL     1       1.946   1.424  -0.470  0.00  0.00    +0.010 A 
BRANCH  19  22
ATOM     22  N   UNL     1       1.191  -2.157   0.337  0.00  0.00    +0.056 N 
ATOM     23  O   UNL     1       0.538  -2.798   1.141  0.00  0.00    -0.126 OA
ATOM     24  O   UNL     1       1.841  -2.734  -0.517  0.00  0.00    -0.126 OA
ENDBRANCH  19  22
ENDBRANCH   3  16
TORSDOF 3
