REMARK  Name = ZINC63847679
REMARK  7 active torsions:
REMARK  status: ('A' for Active; 'I' for Inactive)
REMARK    1  A    between atoms: C_1  and  C_2
REMARK    2  A    between atoms: C_2  and  C_3
REMARK    3  A    between atoms: C_2  and  C_4
REMARK    4  A    between atoms: C_19  and  C_21
REMARK    5  A    between atoms: C_21  and  N_22
REMARK    6  A    between atoms: C_28  and  C_29
REMARK    7  A    between atoms: C_28  and  C_30
REMARK                            x       y       z     vdW  Elec       q    Type
REMARK                         _______ _______ _______ _____ _____    ______ ____
ROOT
ATOM      1  C   UNL     1      -1.359  -0.196  -0.207  0.00  0.00    +0.105 C 
ATOM      2  C   UNL     1      -1.559  -1.703  -0.408  0.00  0.00    +0.127 C 
ATOM      3  C   UNL     1      -3.061  -1.950  -0.375  0.00  0.00    -0.035 C 
ATOM      4  C   UNL     1      -3.365  -2.562  -1.513  0.00  0.00    -0.001 A 
ATOM      5  C   UNL     1      -4.633  -3.111  -2.022  0.00  0.00    +0.010 A 
ATOM      6  C   UNL     1      -4.589  -3.672  -3.259  0.00  0.00    +0.001 A 
ATOM      7  C   UNL     1      -3.426  -3.742  -4.032  0.00  0.00    +0.002 A 
ATOM      8  C   UNL     1      -2.216  -3.268  -3.641  0.00  0.00    +0.026 A 
ATOM      9  C   UNL     1      -2.134  -2.658  -2.355  0.00  0.00    +0.043 A 
ATOM     10  N   UNL     1      -1.094  -2.143  -1.724  0.00  0.00    -0.376 N 
ATOM     11  C   UNL     1      -3.938  -1.470   0.756  0.00  0.00    +0.052 C 
ATOM     12  C   UNL     1      -3.619   0.023   0.959  0.00  0.00    +0.112 C 
ATOM     13  N   UNL     1      -2.165   0.216   0.952  0.00  0.00    -0.294 N 
ATOM     14  C   UNL     1      -1.561   0.776   2.019  0.00  0.00    +0.233 C 
ATOM     15  O   UNL     1      -0.352   0.850   2.062  0.00  0.00    -0.274 OA
ATOM     16  H   UNL     1      -0.188  -2.061  -2.063  0.00  0.00    +0.160 HD
ENDROOT
BRANCH   1  18
ATOM     17  C   UNL     1       0.655  -0.879   1.103  0.00  0.00    +0.009 C 
ATOM     18  C   UNL     1       0.118   0.100   0.057  0.00  0.00    +0.006 C 
ATOM     19  C   UNL     1       0.910  -0.058  -1.242  0.00  0.00    +0.009 C 
ENDBRANCH   1  18
BRANCH  14  20
ATOM     20  C   UNL     1      -2.390   1.310   3.160  0.00  0.00    +0.206 C 
BRANCH  20  21
ATOM     21  N   UNL     1      -1.505   1.862   4.189  0.00  0.00    -0.263 N 
ATOM     22  C   UNL     1      -0.973   1.200   5.232  0.00  0.00    +0.310 C 
ATOM     23  O   UNL     1      -1.169   0.021   5.455  0.00  0.00    -0.252 OA
ATOM     24  N   UNL     1      -0.204   1.984   5.996  0.00  0.00    -0.238 N 
ATOM     25  C   UNL     1      -0.157   3.245   5.525  0.00  0.00    +0.244 C 
ATOM     26  O   UNL     1       0.454   4.181   5.997  0.00  0.00    -0.273 OA
ATOM     27  C   UNL     1      -1.020   3.250   4.279  0.00  0.00    +0.110 C 
ATOM     28  C   UNL     1      -0.189   3.611   3.047  0.00  0.00    +0.041 C 
ATOM     29  C   UNL     1      -2.192   4.221   4.443  0.00  0.00    +0.041 C 
ATOM     30  H   UNL     1       0.262   1.681   6.792  0.00  0.00    +0.159 HD
ENDBRANCH  20  21
ENDBRANCH  14  20
TORSDOF 3
