REMARK  Name = ZINC64792958
REMARK  6 active torsions:
REMARK  status: ('A' for Active; 'I' for Inactive)
REMARK    1  A    between atoms: C_4  and  C_7
REMARK    2  A    between atoms: C_10  and  C_28
REMARK    3  A    between atoms: N_11  and  C_17
REMARK    4  A    between atoms: C_17  and  C_18
REMARK    5  A    between atoms: N_20  and  C_21
REMARK    6  A    between atoms: C_21  and  C_22
REMARK                            x       y       z     vdW  Elec       q    Type
REMARK                         _______ _______ _______ _____ _____    ______ ____
ROOT
ATOM      1  C   UNL     1       4.037  -0.767  -0.166  0.00  0.00    +0.167 C 
ATOM      2  C   UNL     1       4.107  -1.580   1.099  0.00  0.00    +0.028 C 
ATOM      3  C   UNL     1       3.719  -2.845   1.175  0.00  0.00    +0.043 C 
ATOM      4  N   UNL     1       3.212  -3.536   0.065  0.00  0.00    -0.259 N 
ATOM      5  C   UNL     1       3.371  -2.939  -1.175  0.00  0.00    +0.243 A 
ATOM      6  N   UNL     1       3.762  -1.644  -1.298  0.00  0.00    -0.202 N 
ATOM      7  N   UNL     1       3.821  -1.402  -2.669  0.00  0.00    -0.042 NA
ATOM      8  N   UNL     1       3.474  -2.503  -3.253  0.00  0.00    -0.021 NA
ATOM      9  N   UNL     1       3.207  -3.410  -2.378  0.00  0.00    -0.092 NA
ENDROOT
BRANCH   3  10
ATOM     10  C   UNL     1       3.823  -3.551   2.473  0.00  0.00    -0.004 A 
ATOM     11  C   UNL     1       4.456  -4.791   2.546  0.00  0.00    +0.011 A 
ATOM     12  C   UNL     1       4.551  -5.444   3.757  0.00  0.00    +0.020 A 
ATOM     13  C   UNL     1       4.020  -4.870   4.900  0.00  0.00    +0.041 A 
ATOM     14  C   UNL     1       3.390  -3.638   4.833  0.00  0.00    +0.020 A 
ATOM     15  C   UNL     1       3.294  -2.974   3.627  0.00  0.00    +0.011 A 
ATOM     16 CL   UNL     1       4.142  -5.697   6.421  0.00  0.00    -0.084 Cl
ENDBRANCH   3  10
BRANCH   1  20
ATOM     17  C   UNL     1       0.918   2.131   0.174  0.00  0.00    +0.000 A 
ATOM     18  C   UNL     1       2.222   2.541  -0.029  0.00  0.00    +0.000 A 
ATOM     19  C   UNL     1       3.232   1.603  -0.140  0.00  0.00    +0.006 A 
ATOM     20  C   UNL     1       2.937   0.256  -0.045  0.00  0.00    -0.019 A 
ATOM     21  C   UNL     1       1.632  -0.154   0.159  0.00  0.00    +0.006 A 
ATOM     22  C   UNL     1       0.623   0.784   0.268  0.00  0.00    +0.000 A 
ENDBRANCH   1  20
BRANCH   4  23
ATOM     23  C   UNL     1       2.545  -4.832   0.211  0.00  0.00    +0.209 C 
BRANCH  23  24
ATOM     24  C   UNL     1       1.058  -4.621   0.335  0.00  0.00    +0.231 C 
ATOM     25  O   UNL     1       0.601  -3.498   0.305  0.00  0.00    -0.274 OA
ATOM     26  N   UNL     1       0.237  -5.680   0.479  0.00  0.00    -0.312 N 
ATOM     27  H   UNL     1       0.603  -6.578   0.503  0.00  0.00    +0.149 HD
BRANCH  26  28
ATOM     28  C   UNL     1      -1.208  -5.474   0.600  0.00  0.00    +0.135 C 
BRANCH  28  29
ATOM     29  C   UNL     1      -1.905  -6.828   0.752  0.00  0.00    +0.135 C 
ATOM     30  C   UNL     1      -3.436  -6.631   0.758  0.00  0.00    +0.035 C 
ATOM     31  C   UNL     1      -3.895  -7.652   1.835  0.00  0.00    +0.031 C 
ATOM     32  C   UNL     1      -2.705  -7.591   2.825  0.00  0.00    +0.160 C 
ATOM     33  O   UNL     1      -1.538  -7.426   2.001  0.00  0.00    -0.375 OA
ENDBRANCH  28  29
ENDBRANCH  26  28
ENDBRANCH  23  24
ENDBRANCH   4  23
TORSDOF 6
