REMARK  Name = ZINC39690569
REMARK  7 active torsions:
REMARK  status: ('A' for Active; 'I' for Inactive)
REMARK    1  A    between atoms: C_1  and  C_2
REMARK    2  A    between atoms: C_4  and  C_34
REMARK    3  A    between atoms: C_10  and  C_14
REMARK    4  A    between atoms: C_14  and  S_15
REMARK    5  A    between atoms: S_15  and  C_16
REMARK    6  A    between atoms: C_19  and  C_27
REMARK    7  A    between atoms: N_20  and  C_21
REMARK                            x       y       z     vdW  Elec       q    Type
REMARK                         _______ _______ _______ _____ _____    ______ ____
ROOT
ATOM      1  S   UNL     1       5.006  -0.929  -3.611  0.00  0.00    -0.078 S 
ENDROOT
BRANCH   1   2
ATOM      2  C   UNL     1       6.502  -1.089  -4.527  0.00  0.00    +0.197 A 
ATOM      3  N   UNL     1       7.705  -1.272  -4.030  0.00  0.00    -0.122 NA
ATOM      4  N   UNL     1       8.569  -1.345  -4.978  0.00  0.00    -0.128 NA
ATOM      5  C   UNL     1       7.973  -1.214  -6.141  0.00  0.00    +0.169 A 
ATOM      6  N   UNL     1       6.628  -1.051  -5.889  0.00  0.00    -0.270 N 
BRANCH   6   7
ATOM      7  C   UNL     1       5.604  -0.879  -6.831  0.00  0.00    +0.051 A 
ATOM      8  C   UNL     1       5.291  -1.905  -7.713  0.00  0.00    +0.026 A 
ATOM      9  C   UNL     1       4.282  -1.733  -8.639  0.00  0.00    +0.002 A 
ATOM     10  C   UNL     1       3.583  -0.540  -8.690  0.00  0.00    +0.000 A 
ATOM     11  C   UNL     1       3.893   0.483  -7.813  0.00  0.00    +0.002 A 
ATOM     12  C   UNL     1       4.898   0.315  -6.880  0.00  0.00    +0.026 A 
ENDBRANCH   6   7
BRANCH   5  13
ATOM     13  C   UNL     1       8.622  -1.240  -7.469  0.00  0.00    +0.020 A 
ATOM     14  C   UNL     1       7.936  -0.777  -8.593  0.00  0.00    +0.011 A 
ATOM     15  C   UNL     1       8.547  -0.804  -9.829  0.00  0.00    +0.001 A 
ATOM     16  C   UNL     1       9.837  -1.290  -9.957  0.00  0.00    +0.000 A 
ATOM     17  C   UNL     1      10.522  -1.752  -8.847  0.00  0.00    +0.001 A 
ATOM     18  C   UNL     1       9.924  -1.724  -7.603  0.00  0.00    +0.011 A 
ENDBRANCH   5  13
ENDBRANCH   1   2
BRANCH   1  19
ATOM     19  C   UNL     1       5.533  -1.068  -1.881  0.00  0.00    +0.151 C 
BRANCH  19  27
ATOM     20  C   UNL     1      -0.019   1.526   0.010  0.00  0.00    +0.053 C 
ATOM     21  C   UNL     1       0.002  -0.004   0.002  0.00  0.00    +0.191 C 
ATOM     22  C   UNL     1       0.800  -0.549   1.211  0.00  0.00    +0.183 C 
ATOM     23  C   UNL     1       2.182  -0.719   0.617  0.00  0.00    +0.096 A 
ATOM     24  H   UNL     1       5.397  -1.160   0.721  0.00  0.00    +0.170 HD
ATOM     25  C   UNL     1       2.049  -0.658  -0.757  0.00  0.00    +0.226 A 
ATOM     26  N   UNL     1       3.157  -0.771  -1.513  0.00  0.00    -0.199 NA
ATOM     27  C   UNL     1       4.333  -0.946  -0.979  0.00  0.00    +0.124 A 
ATOM     28  N   UNL     1       4.509  -1.023   0.355  0.00  0.00    -0.310 N 
ATOM     29  C   UNL     1       3.446  -0.910   1.182  0.00  0.00    +0.259 A 
ATOM     30  O   UNL     1       3.586  -0.972   2.393  0.00  0.00    -0.267 OA
ATOM     31  O   UNL     1       0.750  -0.498  -1.123  0.00  0.00    -0.472 OA
BRANCH  22  32
ATOM     32  C   UNL     1       0.817   0.449   2.340  0.00  0.00    +0.367 C 
ATOM     33  O   UNL     1       0.699   0.068   3.492  0.00  0.00    -0.246 OA
ATOM     34  O   UNL     1       0.948   1.637   2.102  0.00  0.00    -0.246 OA
ENDBRANCH  22  32
ENDBRANCH  19  27
ENDBRANCH   1  19
TORSDOF 6
