REMARK  Name = ZINC12833510
REMARK  12 active torsions:
REMARK  status: ('A' for Active; 'I' for Inactive)
REMARK    1  A    between atoms: C_1  and  C_2
REMARK    2  A    between atoms: C_2  and  O_3
REMARK    3  A    between atoms: O_3  and  C_4
REMARK    4  A    between atoms: C_11  and  C_16
REMARK    5  A    between atoms: C_16  and  N_68
REMARK    6  A    between atoms: C_17  and  C_18
REMARK    7  A    between atoms: C_17  and  N_68
REMARK    8  A    between atoms: C_23  and  O_24
REMARK    9  A    between atoms: O_24  and  C_25
REMARK   10  A    between atoms: C_26  and  C_27
REMARK   11  A    between atoms: C_26  and  N_68
REMARK   12  A    between atoms: N_31  and  C_32
REMARK                            x       y       z     vdW  Elec       q    Type
REMARK                         _______ _______ _______ _____ _____    ______ ____
ROOT
ATOM      1  N   UNL     1       2.501  -0.886  -1.468  0.00  0.00    +0.390 N 
ATOM      2  H   UNL     1       1.834  -0.390  -2.071  0.00  0.00    -0.080 HD
ENDROOT
BRANCH   1   3
ATOM      3  C   UNL     1       2.067  -2.292  -1.326  0.00  0.00    -0.036 C 
BRANCH   3  11
ATOM      4  C   UNL     1      -3.938  -2.642  -2.824  0.00  0.00    +0.121 A 
ATOM      5  C   UNL     1      -4.424  -2.519  -1.524  0.00  0.00    +0.047 A 
ATOM      6  C   UNL     1      -3.559  -2.379  -0.462  0.00  0.00    +0.030 A 
ATOM      7  C   UNL     1      -2.185  -2.358  -0.682  0.00  0.00    +0.049 A 
ATOM      8  C   UNL     1      -1.690  -2.482  -1.994  0.00  0.00    +0.002 A 
ATOM      9  C   UNL     1      -2.579  -2.624  -3.064  0.00  0.00    +0.055 A 
ATOM     10  C   UNL     1      -0.242  -2.459  -2.211  0.00  0.00    +0.017 A 
ATOM     11  C   UNL     1       0.573  -2.319  -1.136  0.00  0.00    +0.001 A 
ATOM     12  C   UNL     1       0.026  -2.204   0.160  0.00  0.00    +0.251 A 
ATOM     13  O   UNL     1       0.777  -2.084   1.113  0.00  0.00    -0.268 OA
ATOM     14  N   UNL     1      -1.302  -2.218   0.369  0.00  0.00    -0.322 N 
ATOM     15  H   UNL     1      -1.644  -2.132   1.273  0.00  0.00    +0.169 HD
BRANCH   4  16
ATOM     16  O   UNL     1      -4.807  -2.780  -3.861  0.00  0.00    -0.492 OA
BRANCH  16  18
ATOM     17  C   UNL     1      -7.015  -2.954  -4.827  0.00  0.00    +0.048 C 
ATOM     18  C   UNL     1      -6.200  -2.791  -3.542  0.00  0.00    +0.225 C 
ENDBRANCH  16  18
ENDBRANCH   4  16
ENDBRANCH   3  11
ENDBRANCH   1   3
BRANCH   1  19
ATOM     19  C   UNL     1       3.841  -0.831  -2.089  0.00  0.00    -0.038 C 
BRANCH  19  20
ATOM     20  C   UNL     1       3.711  -1.165  -3.553  0.00  0.00    -0.022 A 
ATOM     21  C   UNL     1       4.132  -2.395  -4.021  0.00  0.00    +0.005 A 
ATOM     22  C   UNL     1       4.009  -2.704  -5.363  0.00  0.00    +0.000 A 
ATOM     23  C   UNL     1       3.473  -1.780  -6.242  0.00  0.00    +0.004 A 
ATOM     24  C   UNL     1       3.055  -0.547  -5.779  0.00  0.00    +0.046 A 
ATOM     25  C   UNL     1       3.173  -0.237  -4.432  0.00  0.00    +0.121 A 
BRANCH  25  26
ATOM     26  O   UNL     1       2.763   0.976  -3.974  0.00  0.00    -0.495 OA
ATOM     27  C   UNL     1       2.219   1.882  -4.936  0.00  0.00    +0.277 C 
ENDBRANCH  25  26
ENDBRANCH  19  20
ENDBRANCH   1  19
BRANCH   1  28
ATOM     28  C   UNL     1       2.530  -0.230  -0.144  0.00  0.00    +0.001 C 
BRANCH  28  29
ATOM     29  C   UNL     1       2.759   1.247  -0.339  0.00  0.00    +0.135 A 
ATOM     30  N   UNL     1       3.916   1.862  -0.374  0.00  0.00    -0.115 NA
ATOM     31  N   UNL     1       3.693   3.119  -0.552  0.00  0.00    -0.023 NA
ATOM     32  N   UNL     1       2.424   3.320  -0.636  0.00  0.00    -0.044 NA
ATOM     33  N   UNL     1       1.814   2.190  -0.513  0.00  0.00    -0.228 N 
BRANCH  33  34
ATOM     34  C   UNL     1       0.366   1.975  -0.550  0.00  0.00    +0.111 C 
ATOM     35  C   UNL     1      -0.322   2.814   0.547  0.00  0.00    +0.027 C 
ATOM     36  C   UNL     1      -0.769   4.103  -0.188  0.00  0.00    +0.002 C 
ATOM     37  C   UNL     1      -1.220   3.571  -1.571  0.00  0.00    +0.002 C 
ATOM     38  C   UNL     1      -0.205   2.455  -1.896  0.00  0.00    +0.027 C 
ENDBRANCH  33  34
ENDBRANCH  28  29
ENDBRANCH   1  28
TORSDOF 10
