REMARK  Name = ZINC41090597
REMARK  9 active torsions:
REMARK  status: ('A' for Active; 'I' for Inactive)
REMARK    1  A    between atoms: C_1  and  C_2
REMARK    2  A    between atoms: C_2  and  C_3
REMARK    3  A    between atoms: C_9  and  C_27
REMARK    4  A    between atoms: C_11  and  S_13
REMARK    5  A    between atoms: S_13  and  C_14
REMARK    6  A    between atoms: C_14  and  C_15
REMARK    7  A    between atoms: N_17  and  C_18
REMARK    8  A    between atoms: C_23  and  N_24
REMARK    9  A    between atoms: C_27  and  C_28
REMARK                            x       y       z     vdW  Elec       q    Type
REMARK                         _______ _______ _______ _____ _____    ______ ____
ROOT
ATOM      1  C   UNL     1      -1.472  -0.406  -0.013  0.00  0.00    -0.008 A 
ATOM      2  C   UNL     1      -2.272  -0.721  -1.063  0.00  0.00    +0.019 A 
ATOM      3  C   UNL     1      -3.548  -1.203  -0.836  0.00  0.00    +0.014 A 
ATOM      4  C   UNL     1      -3.939  -1.330   0.484  0.00  0.00    +0.085 A 
ATOM      5  S   UNL     1      -2.515  -0.795   1.386  0.00  0.00    -0.076 S 
ATOM      6  N   UNL     1      -5.147  -1.765   0.899  0.00  0.00    -0.341 N 
ATOM      7  C   UNL     1      -6.096  -1.892   0.002  0.00  0.00    +0.073 C 
ATOM      8  N   UNL     1      -5.887  -1.518  -1.300  0.00  0.00    -0.318 N 
ATOM      9  C   UNL     1      -4.552  -1.615  -1.912  0.00  0.00    +0.163 C 
ATOM     10  H   UNL     1      -6.630  -1.184  -1.826  0.00  0.00    +0.148 HD
ATOM     11  H   UNL     1      -5.308  -1.978   1.831  0.00  0.00    +0.167 HD
ENDROOT
BRANCH   1  13
ATOM     12  C   UNL     1      -0.099   1.659  -0.034  0.00  0.00    +0.009 C 
ATOM     13  C   UNL     1      -0.063   0.130  -0.024  0.00  0.00    +0.039 C 
ENDBRANCH   1  13
BRANCH   7  14
ATOM     14  C   UNL     1      -7.433  -2.456   0.409  0.00  0.00    +0.066 C 
ATOM     15  C   UNL     1      -7.460  -3.959   0.123  0.00  0.00    +0.011 C 
ENDBRANCH   7  14
BRANCH   9  16
ATOM     16  S   UNL     1      -4.233  -3.320  -2.440  0.00  0.00    -0.124 S 
BRANCH  16  17
ATOM     17  C   UNL     1      -2.672  -3.211  -3.357  0.00  0.00    +0.167 C 
BRANCH  17  18
ATOM     18  C   UNL     1      -2.351  -4.553  -3.963  0.00  0.00    +0.227 C 
ATOM     19  O   UNL     1      -3.100  -5.491  -3.792  0.00  0.00    -0.275 OA
ATOM     20  N   UNL     1      -1.230  -4.711  -4.694  0.00  0.00    -0.283 N 
ATOM     21  H   UNL     1      -0.663  -3.947  -4.885  0.00  0.00    +0.155 HD
BRANCH  20  22
ATOM     22  C   UNL     1      -0.883  -5.977  -5.179  0.00  0.00    +0.064 A 
ATOM     23  C   UNL     1      -1.873  -6.864  -5.581  0.00  0.00    +0.025 A 
ATOM     24  C   UNL     1      -1.528  -8.112  -6.058  0.00  0.00    +0.002 A 
ATOM     25  C   UNL     1      -0.197  -8.480  -6.136  0.00  0.00    +0.002 A 
ATOM     26  C   UNL     1       0.791  -7.600  -5.737  0.00  0.00    +0.034 A 
ATOM     27  C   UNL     1       0.453  -6.347  -5.264  0.00  0.00    +0.147 A 
BRANCH  27  28
ATOM     28  N   UNL     1       1.512  -5.403  -4.843  0.00  0.00    +0.058 N 
ATOM     29  O   UNL     1       2.675  -5.687  -5.007  0.00  0.00    -0.126 OA
ATOM     30  O   UNL     1       1.213  -4.348  -4.333  0.00  0.00    -0.126 OA
ENDBRANCH  27  28
ENDBRANCH  20  22
ENDBRANCH  17  18
ENDBRANCH  16  17
ENDBRANCH   9  16
TORSDOF 7
