REMARK  Name = ZINC17176610
REMARK  18 active torsions:
REMARK  status: ('A' for Active; 'I' for Inactive)
REMARK    1  A    between atoms: C_1  and  C_2
REMARK    2  A    between atoms: C_2  and  C_3
REMARK    3  A    between atoms: C_2  and  C_4
REMARK    4  A    between atoms: C_2  and  C_8
REMARK    5  A    between atoms: C_4  and  N_5
REMARK    6  A    between atoms: N_5  and  C_6
REMARK    7  A    between atoms: N_5  and  C_7
REMARK    8  A    between atoms: C_8  and  C_10
REMARK    9  A    between atoms: C_11  and  C_12
REMARK   10  A    between atoms: C_15  and  C_18
REMARK   11  A    between atoms: C_19  and  C_20
REMARK   12  A    between atoms: C_20  and  C_22
REMARK   13  A    between atoms: C_22  and  C_23
REMARK   14  A    between atoms: C_22  and  C_24
REMARK   15  A    between atoms: C_22  and  C_25
REMARK   16  A    between atoms: C_25  and  N_26
REMARK   17  A    between atoms: N_26  and  C_27
REMARK   18  A    between atoms: N_26  and  C_28
REMARK                            x       y       z     vdW  Elec       q    Type
REMARK                         _______ _______ _______ _____ _____    ______ ____
ROOT
ATOM      1  C   UNL     1      -3.829  -1.991   1.272  0.00  0.00    -0.025 A 
ATOM      2  C   UNL     1      -4.433  -0.734   1.138  0.00  0.00    +0.008 A 
ATOM      3  C   UNL     1      -3.703   0.329   0.691  0.00  0.00    +0.008 A 
ATOM      4  C   UNL     1      -2.350   0.164   0.366  0.00  0.00    -0.025 A 
ATOM      5  C   UNL     1      -1.748  -1.095   0.495  0.00  0.00    +0.008 A 
ATOM      6  C   UNL     1      -2.477  -2.157   0.947  0.00  0.00    +0.008 A 
ENDROOT
BRANCH   1   8
ATOM      7  C   UNL     1      -4.032  -4.351   1.883  0.00  0.00    +0.047 C 
ATOM      8  C   UNL     1      -4.615  -3.136   1.754  0.00  0.00    +0.011 C 
BRANCH   7   9
ATOM      9  C   UNL     1      -4.786  -5.451   2.346  0.00  0.00    +0.160 C 
ATOM     10  O   UNL     1      -5.958  -5.307   2.627  0.00  0.00    -0.292 OA
BRANCH   9  12
ATOM     11  C   UNL     1      -3.609  -7.263   1.129  0.00  0.00    +0.017 C 
ATOM     12  C   UNL     1      -4.137  -6.803   2.490  0.00  0.00    +0.013 C 
ATOM     13  C   UNL     1      -2.976  -6.708   3.482  0.00  0.00    +0.017 C 
BRANCH  12  14
ATOM     14  C   UNL     1      -5.166  -7.811   3.005  0.00  0.00    -0.065 C 
BRANCH  14  15
ATOM     15  N   UNL     1      -4.494  -9.077   3.325  0.00  0.00    +0.377 N 
ATOM     16  C   UNL     1      -3.975  -9.064   4.700  0.00  0.00    -0.097 C 
ATOM     17  C   UNL     1      -5.393 -10.219   3.113  0.00  0.00    -0.097 C 
ATOM     18  H   UNL     1      -3.639  -9.188   2.642  0.00  0.00    -0.083 HD
ENDBRANCH  14  15
ENDBRANCH  12  14
ENDBRANCH   9  12
ENDBRANCH   7   9
ENDBRANCH   1   8
BRANCH   4  19
ATOM     19  C   UNL     1      -1.565   1.309  -0.115  0.00  0.00    +0.011 C 
ATOM     20  C   UNL     1      -1.671   2.509   0.501  0.00  0.00    +0.047 C 
BRANCH  20  21
ATOM     21  C   UNL     1      -2.514   2.654   1.625  0.00  0.00    +0.160 C 
ATOM     22  O   UNL     1      -3.050   1.679   2.111  0.00  0.00    -0.292 OA
BRANCH  21  23
ATOM     23  C   UNL     1      -2.742   4.018   2.225  0.00  0.00    +0.013 C 
ATOM     24  C   UNL     1      -1.394   4.692   2.486  0.00  0.00    +0.017 C 
ATOM     25  C   UNL     1      -3.560   4.871   1.254  0.00  0.00    +0.017 C 
BRANCH  23  26
ATOM     26  C   UNL     1      -3.505   3.873   3.543  0.00  0.00    -0.065 C 
BRANCH  26  27
ATOM     27  N   UNL     1      -2.584   3.420   4.594  0.00  0.00    +0.377 N 
ATOM     28  C   UNL     1      -3.183   3.583   5.926  0.00  0.00    -0.097 C 
ATOM     29  C   UNL     1      -2.172   2.028   4.369  0.00  0.00    -0.097 C 
ATOM     30  H   UNL     1      -1.683   4.051   4.549  0.00  0.00    -0.083 HD
ENDBRANCH  26  27
ENDBRANCH  23  26
ENDBRANCH  21  23
ENDBRANCH  20  21
ENDBRANCH   4  19
TORSDOF 10
