REMARK  Name = ZINC44837042
REMARK  9 active torsions:
REMARK  status: ('A' for Active; 'I' for Inactive)
REMARK    1  A    between atoms: C_1  and  C_2
REMARK    2  A    between atoms: C_4  and  C_34
REMARK    3  A    between atoms: C_5  and  N_9
REMARK    4  A    between atoms: C_6  and  C_8
REMARK    5  A    between atoms: C_10  and  C_12
REMARK    6  A    between atoms: C_12  and  N_13
REMARK    7  A    between atoms: N_22  and  C_23
REMARK    8  A    between atoms: C_23  and  C_24
REMARK    9  A    between atoms: C_28  and  C_30
REMARK                            x       y       z     vdW  Elec       q    Type
REMARK                         _______ _______ _______ _____ _____    ______ ____
ROOT
ATOM      1  N   UNL     1      -0.439  -6.994   2.064  0.00  0.00    -0.288 N 
ATOM      2  C   UNL     1       0.753  -7.455   2.519  0.00  0.00    +0.205 A 
ATOM      3  N   UNL     1       0.899  -8.002   3.691  0.00  0.00    -0.216 NA
ATOM      4  C   UNL     1      -0.131  -8.147   4.537  0.00  0.00    +0.186 A 
ATOM      5  C   UNL     1      -1.404  -7.701   4.158  0.00  0.00    +0.196 A 
ATOM      6  C   UNL     1      -1.546  -7.084   2.837  0.00  0.00    +0.284 A 
ATOM      7  O   UNL     1      -2.623  -6.670   2.446  0.00  0.00    -0.265 OA
ATOM      8  N   UNL     1      -2.251  -7.956   5.165  0.00  0.00    -0.122 NA
ATOM      9  N   UNL     1      -1.622  -8.521   6.136  0.00  0.00    -0.063 NA
ATOM     10  N   UNL     1      -0.271  -8.666   5.789  0.00  0.00    -0.222 N 
ENDROOT
BRANCH   1  11
ATOM     11  C   UNL     1      -0.526  -6.390   0.733  0.00  0.00    +0.222 C 
BRANCH  11  13
ATOM     12  N   UNL     1      -0.299  -4.141  -0.272  0.00  0.00    -0.284 N 
ATOM     13  C   UNL     1      -0.270  -4.908   0.836  0.00  0.00    +0.237 C 
ATOM     14  O   UNL     1      -0.036  -4.407   1.915  0.00  0.00    -0.274 OA
ATOM     15  H   UNL     1      -0.420  -4.551  -1.143  0.00  0.00    +0.155 HD
BRANCH  12  20
ATOM     16  C   UNL     1       0.286   1.486   0.158  0.00  0.00    +0.044 C 
ATOM     17  C   UNL     1       0.130  -0.009   0.043  0.00  0.00    -0.050 A 
ATOM     18  C   UNL     1       1.121  -0.844   0.526  0.00  0.00    +0.008 A 
ATOM     19  C   UNL     1       0.981  -2.215   0.423  0.00  0.00    -0.029 A 
ATOM     20  C   UNL     1      -0.155  -2.753  -0.166  0.00  0.00    +0.039 A 
ATOM     21  C   UNL     1      -1.148  -1.911  -0.649  0.00  0.00    -0.029 A 
ATOM     22  C   UNL     1      -1.005  -0.542  -0.539  0.00  0.00    +0.008 A 
ATOM     23  C   UNL     1      -2.383  -2.491  -1.289  0.00  0.00    +0.045 C 
ATOM     24  C   UNL     1       2.062  -3.124   0.949  0.00  0.00    +0.045 C 
ENDBRANCH  12  20
ENDBRANCH  11  13
ENDBRANCH   1  11
BRANCH  10  25
ATOM     25  C   UNL     1       0.786  -9.259   6.612  0.00  0.00    +0.182 C 
BRANCH  25  26
ATOM     26  C   UNL     1       1.428  -8.187   7.455  0.00  0.00    -0.025 A 
ATOM     27  C   UNL     1       2.515  -7.485   6.968  0.00  0.00    +0.005 A 
ATOM     28  C   UNL     1       3.104  -6.502   7.740  0.00  0.00    +0.001 A 
ATOM     29  C   UNL     1       2.607  -6.221   8.999  0.00  0.00    +0.012 A 
ATOM     30  C   UNL     1       1.520  -6.923   9.486  0.00  0.00    +0.055 A 
ATOM     31  C   UNL     1       0.928  -7.903   8.711  0.00  0.00    +0.017 A 
BRANCH  30  32
ATOM     32  C   UNL     1       0.978  -6.617  10.858  0.00  0.00    +0.417 C 
ATOM     33  F   UNL     1       1.734  -5.594  11.441  0.00  0.00    -0.166 F 
ATOM     34  F   UNL     1      -0.356  -6.208  10.753  0.00  0.00    -0.166 F 
ATOM     35  F   UNL     1       1.053  -7.764  11.655  0.00  0.00    -0.166 F 
ENDBRANCH  30  32
ENDBRANCH  25  26
ENDBRANCH  10  25
TORSDOF 6
