REMARK  Name = ZINC07680619
REMARK  12 active torsions:
REMARK  status: ('A' for Active; 'I' for Inactive)
REMARK    1  A    between atoms: C_1  and  C_2
REMARK    2  A    between atoms: C_2  and  C_3
REMARK    3  A    between atoms: C_3  and  C_4
REMARK    4  A    between atoms: C_3  and  C_5
REMARK    5  A    between atoms: C_3  and  N_6
REMARK    6  A    between atoms: C_7  and  C_9
REMARK    7  A    between atoms: C_9  and  N_10
REMARK    8  A    between atoms: N_10  and  C_11
REMARK    9  A    between atoms: N_10  and  C_12
REMARK   10  A    between atoms: C_12  and  C_13
REMARK   11  A    between atoms: N_15  and  C_16
REMARK   12  A    between atoms: C_21  and  C_22
REMARK                            x       y       z     vdW  Elec       q    Type
REMARK                         _______ _______ _______ _____ _____    ______ ____
ROOT
ATOM      1  N   UNL     1      -3.927  -4.703   0.031  0.00  0.00    +0.389 N 
ATOM      2  C   UNL     1      -4.591  -4.315  -1.221  0.00  0.00    -0.095 C 
ATOM      3  H   UNL     1      -4.431  -4.312   0.813  0.00  0.00    -0.081 HD
ENDROOT
BRANCH   1   4
ATOM      4  C   UNL     1      -2.549  -4.194   0.032  0.00  0.00    +0.019 C 
BRANCH   4   6
ATOM      5  N   UNL     1      -1.413  -1.997   0.044  0.00  0.00    -0.312 N 
ATOM      6  C   UNL     1      -2.570  -2.687   0.042  0.00  0.00    +0.197 C 
ATOM      7  O   UNL     1      -3.629  -2.095   0.047  0.00  0.00    -0.278 OA
ATOM      8  H   UNL     1      -0.566  -2.470   0.040  0.00  0.00    +0.149 HD
BRANCH   5   9
ATOM      9  C   UNL     1      -1.433  -0.532   0.054  0.00  0.00    +0.029 C 
ATOM     10  C   UNL     1      -2.159  -0.040   1.307  0.00  0.00    +0.031 C 
ATOM     11  C   UNL     1      -2.163  -0.024  -1.191  0.00  0.00    +0.031 C 
BRANCH   9  13
ATOM     12  C   UNL     1      -0.019   1.528   0.065  0.00  0.00    +0.006 C 
ATOM     13  C   UNL     1       0.002  -0.002   0.055  0.00  0.00    +0.022 C 
ENDBRANCH   9  13
ENDBRANCH   5   9
ENDBRANCH   4   6
ENDBRANCH   1   4
BRANCH   1  14
ATOM     14  C   UNL     1      -3.909  -6.167   0.142  0.00  0.00    +0.019 C 
BRANCH  14  15
ATOM     15  C   UNL     1      -5.320  -6.680   0.265  0.00  0.00    +0.201 C 
ATOM     16  O   UNL     1      -6.251  -5.902   0.260  0.00  0.00    -0.278 OA
ATOM     17  N   UNL     1      -5.549  -8.003   0.380  0.00  0.00    -0.287 N 
ATOM     18  H   UNL     1      -4.814  -8.631   0.303  0.00  0.00    +0.155 HD
BRANCH  17  19
ATOM     19  C   UNL     1      -6.848  -8.471   0.609  0.00  0.00    +0.036 A 
ATOM     20  C   UNL     1      -7.787  -7.648   1.217  0.00  0.00    +0.024 A 
ATOM     21  C   UNL     1      -9.068  -8.113   1.442  0.00  0.00    +0.017 A 
ATOM     22  C   UNL     1      -9.416  -9.397   1.062  0.00  0.00    +0.018 A 
ATOM     23  C   UNL     1      -8.483 -10.219   0.457  0.00  0.00    +0.020 A 
ATOM     24  C   UNL     1      -7.202  -9.758   0.224  0.00  0.00    -0.028 A 
ATOM     25  C   UNL     1      -6.187 -10.652  -0.442  0.00  0.00    +0.046 C 
ATOM     26 BR   UNL     1     -11.171 -10.030   1.373  0.00  0.00    -0.050 Br
ENDBRANCH  17  19
ENDBRANCH  14  15
ENDBRANCH   1  14
TORSDOF 7
