REMARK  Name = ZINC36029909
REMARK  8 active torsions:
REMARK  status: ('A' for Active; 'I' for Inactive)
REMARK    1  A    between atoms: C_1  and  C_2
REMARK    2  A    between atoms: C_2  and  C_3
REMARK    3  A    between atoms: C_2  and  C_4
REMARK    4  A    between atoms: C_4  and  C_5
REMARK    5  A    between atoms: N_9  and  C_27
REMARK    6  A    between atoms: N_14  and  S_17
REMARK    7  A    between atoms: S_17  and  C_20
REMARK    8  A    between atoms: C_27  and  C_28
REMARK                            x       y       z     vdW  Elec       q    Type
REMARK                         _______ _______ _______ _____ _____    ______ ____
ROOT
ATOM      1  C   UNL     1       3.128  -1.764  -0.986  0.00  0.00    +0.019 C 
ATOM      2  C   UNL     1       3.965  -1.720  -2.245  0.00  0.00    +0.201 C 
ATOM      3  O   UNL     1       4.502  -2.670  -2.773  0.00  0.00    -0.277 OA
ATOM      4  N   UNL     1       4.012  -0.444  -2.683  0.00  0.00    -0.309 N 
ATOM      5  C   UNL     1       3.244   0.413  -1.776  0.00  0.00    +0.006 C 
ATOM      6  N   UNL     1       2.377  -0.485  -0.982  0.00  0.00    +0.401 N 
ATOM      7  C   UNL     1       4.187   1.172  -0.844  0.00  0.00    +0.023 C 
ATOM      8  C   UNL     1       5.109   2.070  -1.675  0.00  0.00    +0.109 C 
ATOM      9  N   UNL     1       4.283   2.924  -2.540  0.00  0.00    -0.177 NA
ATOM     10  C   UNL     1       3.291   2.291  -3.420  0.00  0.00    +0.109 C 
ATOM     11  C   UNL     1       2.384   1.391  -2.574  0.00  0.00    +0.023 C 
ATOM     12  H   UNL     1       1.479  -0.598  -1.428  0.00  0.00    -0.082 HD
ATOM     13  H   UNL     1       2.268  -0.139  -0.041  0.00  0.00    -0.082 HD
ENDROOT
BRANCH   9  14
ATOM     14  S   UNL     1       4.466   4.570  -2.522  0.00  0.00    +0.061 S 
ATOM     15  O   UNL     1       3.237   5.120  -2.978  0.00  0.00    -0.153 OA
ATOM     16  O   UNL     1       5.027   4.902  -1.260  0.00  0.00    -0.153 OA
BRANCH  14  17
ATOM     17  C   UNL     1       5.679   4.972  -3.735  0.00  0.00    +0.107 A 
ATOM     18  C   UNL     1       7.016   5.020  -3.386  0.00  0.00    +0.028 A 
ATOM     19  C   UNL     1       7.968   5.335  -4.337  0.00  0.00    +0.003 A 
ATOM     20  C   UNL     1       7.584   5.604  -5.637  0.00  0.00    +0.020 A 
ATOM     21  C   UNL     1       6.247   5.556  -5.987  0.00  0.00    +0.043 A 
ATOM     22  C   UNL     1       5.295   5.234  -5.036  0.00  0.00    +0.048 A 
ATOM     23 CL   UNL     1       5.764   5.893  -7.620  0.00  0.00    -0.083 Cl
ENDBRANCH  14  17
ENDBRANCH   9  14
BRANCH   1  24
ATOM     24  C   UNL     1       2.161  -2.950  -1.030  0.00  0.00    -0.004 C 
BRANCH  24  26
ATOM     25  C   UNL     1       0.377  -4.168   0.226  0.00  0.00    +0.007 C 
ATOM     26  C   UNL     1       1.437  -3.067   0.313  0.00  0.00    -0.018 C 
ATOM     27  C   UNL     1       2.446  -3.416   1.408  0.00  0.00    +0.007 C 
ENDBRANCH  24  26
ENDBRANCH   1  24
BRANCH   4  28
ATOM     28  C   UNL     1       4.721   0.013  -3.881  0.00  0.00    +0.141 C 
BRANCH  28  29
ATOM     29  C   UNL     1       3.916  -0.337  -5.106  0.00  0.00    -0.026 A 
ATOM     30  C   UNL     1       3.601  -1.657  -5.371  0.00  0.00    +0.009 A 
ATOM     31  C   UNL     1       2.862  -1.982  -6.493  0.00  0.00    +0.050 A 
ATOM     32  C   UNL     1       2.436  -0.986  -7.355  0.00  0.00    +0.166 A 
ATOM     33  C   UNL     1       2.752   0.344  -7.088  0.00  0.00    +0.167 A 
ATOM     34  C   UNL     1       3.488   0.663  -5.959  0.00  0.00    +0.054 A 
ATOM     35  O   UNL     1       2.224   1.125  -8.075  0.00  0.00    -0.453 OA
ATOM     36  C   UNL     1       1.931   0.226  -9.162  0.00  0.00    +0.466 C 
ATOM     37  O   UNL     1       1.708  -1.038  -8.509  0.00  0.00    -0.453 OA
ENDBRANCH  28  29
ENDBRANCH   4  28
TORSDOF 6
