REMARK  Name = ZINC01128025
REMARK  9 active torsions:
REMARK  status: ('A' for Active; 'I' for Inactive)
REMARK    1  A    between atoms: C_1  and  C_2
REMARK    2  A    between atoms: C_2  and  C_3
REMARK    3  A    between atoms: C_3  and  C_5
REMARK    4  A    between atoms: C_3  and  N_6
REMARK    5  A    between atoms: C_7  and  C_9
REMARK    6  A    between atoms: C_14  and  N_15
REMARK    7  A    between atoms: N_15  and  S_16
REMARK    8  A    between atoms: S_16  and  C_19
REMARK    9  A    between atoms: C_22  and  N_25
REMARK                            x       y       z     vdW  Elec       q    Type
REMARK                         _______ _______ _______ _____ _____    ______ ____
ROOT
ATOM      1  C   UNL     1      -3.139  -1.348   1.234  0.00  0.00    +0.059 A 
ATOM      2  C   UNL     1      -3.621  -1.810   0.006  0.00  0.00    +0.015 A 
ATOM      3  C   UNL     1      -4.884  -2.355  -0.074  0.00  0.00    +0.001 A 
ATOM      4  C   UNL     1      -5.680  -2.448   1.056  0.00  0.00    +0.002 A 
ATOM      5  C   UNL     1      -5.219  -1.996   2.275  0.00  0.00    +0.025 A 
ATOM      6  C   UNL     1      -3.946  -1.449   2.378  0.00  0.00    +0.060 A 
ENDROOT
BRANCH   1   8
ATOM      7  N   UNL     1      -1.015  -0.674   0.227  0.00  0.00    -0.309 N 
ATOM      8  C   UNL     1      -1.788  -0.764   1.327  0.00  0.00    +0.246 C 
ATOM      9  O   UNL     1      -1.373  -0.363   2.397  0.00  0.00    -0.270 OA
ATOM     10  H   UNL     1      -1.347  -0.994  -0.626  0.00  0.00    +0.149 HD
BRANCH   7  11
ATOM     11  C   UNL     1       0.327  -0.094   0.321  0.00  0.00    +0.070 C 
ATOM     12  C   UNL     1       0.233   1.429   0.200  0.00  0.00    +0.028 C 
BRANCH  11  14
ATOM     13  C   UNL     1       1.395  -2.148  -0.619  0.00  0.00    +0.005 C 
ATOM     14  C   UNL     1       1.199  -0.642  -0.810  0.00  0.00    +0.018 C 
ENDBRANCH  11  14
ENDBRANCH   7  11
ENDBRANCH   1   8
BRANCH   6  15
ATOM     15  N   UNL     1      -3.476  -0.999   3.605  0.00  0.00    -0.216 N 
ATOM     16  H   UNL     1      -2.908  -0.214   3.648  0.00  0.00    +0.174 HD
BRANCH  15  17
ATOM     17  S   UNL     1      -3.887  -1.802   4.994  0.00  0.00    +0.072 S 
ATOM     18  O   UNL     1      -3.156  -1.190   6.048  0.00  0.00    -0.150 OA
ATOM     19  O   UNL     1      -5.305  -1.896   5.004  0.00  0.00    -0.150 OA
BRANCH  17  20
ATOM     20  C   UNL     1      -3.274  -3.447   4.845  0.00  0.00    +0.109 A 
ATOM     21  C   UNL     1      -4.068  -4.433   4.290  0.00  0.00    +0.031 A 
ATOM     22  C   UNL     1      -3.586  -5.723   4.169  0.00  0.00    +0.034 A 
ATOM     23  C   UNL     1      -2.312  -6.029   4.612  0.00  0.00    +0.126 A 
ATOM     24  C   UNL     1      -1.520  -5.044   5.171  0.00  0.00    +0.034 A 
ATOM     25  C   UNL     1      -2.001  -3.753   5.288  0.00  0.00    +0.031 A 
BRANCH  23  26
ATOM     26  N   UNL     1      -1.797  -7.411   4.487  0.00  0.00    +0.056 N 
ATOM     27  O   UNL     1      -0.675  -7.680   4.877  0.00  0.00    -0.126 OA
ATOM     28  O   UNL     1      -2.496  -8.279   3.994  0.00  0.00    -0.126 OA
ENDBRANCH  23  26
ENDBRANCH  17  20
ENDBRANCH  15  17
ENDBRANCH   6  15
TORSDOF 7
