REMARK  Name = ZINC38729124
REMARK  6 active torsions:
REMARK  status: ('A' for Active; 'I' for Inactive)
REMARK    1  A    between atoms: C_11  and  C_13
REMARK    2  A    between atoms: C_19  and  C_21
REMARK    3  A    between atoms: N_23  and  C_24
REMARK    4  A    between atoms: C_24  and  C_25
REMARK    5  A    between atoms: C_25  and  N_26
REMARK    6  A    between atoms: C_30  and  N_33
REMARK                            x       y       z     vdW  Elec       q    Type
REMARK                         _______ _______ _______ _____ _____    ______ ____
ROOT
ATOM      1  C   UNL     1       5.510  -2.026   1.732  0.00  0.00    +0.091 C 
ATOM      2  C   UNL     1       6.460  -1.442   0.685  0.00  0.00    +0.040 C 
ATOM      3  C   UNL     1       7.710  -0.937   1.345  0.00  0.00    -0.030 C 
ATOM      4  C   UNL     1       8.082  -1.266   2.540  0.00  0.00    -0.030 C 
ATOM      5  C   UNL     1       7.313  -2.193   3.435  0.00  0.00    +0.040 C 
ATOM      6  C   UNL     1       6.298  -2.997   2.621  0.00  0.00    +0.091 C 
ENDROOT
BRANCH   1  17
ATOM      7  C   UNL     1      -0.017   1.375   0.010  0.00  0.00    +0.000 A 
ATOM      8  C   UNL     1       1.173   2.079   0.002  0.00  0.00    +0.000 A 
ATOM      9  C   UNL     1       2.372   1.396  -0.019  0.00  0.00    +0.005 A 
ATOM     10  C   UNL     1       2.392   0.008  -0.029  0.00  0.00    -0.027 A 
ATOM     11  C   UNL     1       1.208  -0.695  -0.011  0.00  0.00    -0.041 A 
ATOM     12  C   UNL     1       0.002  -0.004   0.002  0.00  0.00    +0.004 A 
ATOM     13  C   UNL     1       1.151  -2.200   0.010  0.00  0.00    +0.054 C 
ATOM     14  C   UNL     1       2.465  -2.801  -0.485  0.00  0.00    +0.113 C 
ATOM     15  N   UNL     1       3.568  -2.109   0.202  0.00  0.00    -0.297 N 
ATOM     16  C   UNL     1       3.735  -0.676  -0.066  0.00  0.00    +0.143 C 
ATOM     17  C   UNL     1       4.391  -2.765   1.044  0.00  0.00    +0.220 C 
ATOM     18  O   UNL     1       4.230  -3.950   1.248  0.00  0.00    -0.275 OA
ENDBRANCH   1  17
BRANCH   6  19
ATOM     19  C   UNL     1       5.353  -3.715   3.549  0.00  0.00    +0.217 C 
ATOM     20  O   UNL     1       4.165  -3.478   3.507  0.00  0.00    -0.275 OA
ATOM     21  N   UNL     1       5.829  -4.622   4.425  0.00  0.00    -0.314 N 
ATOM     22  H   UNL     1       6.779  -4.812   4.459  0.00  0.00    +0.149 HD
BRANCH  21  23
ATOM     23  C   UNL     1       4.910  -5.320   5.328  0.00  0.00    +0.123 C 
BRANCH  23  24
ATOM     24  C   UNL     1       5.700  -6.287   6.212  0.00  0.00    +0.121 C 
BRANCH  24  25
ATOM     25  N   UNL     1       4.781  -6.986   7.114  0.00  0.00    -0.328 N 
ATOM     26  C   UNL     1       5.271  -7.921   8.018  0.00  0.00    +0.119 A 
ATOM     27  C   UNL     1       6.637  -8.184   8.065  0.00  0.00    +0.046 A 
ATOM     28  C   UNL     1       7.111  -9.117   8.970  0.00  0.00    +0.037 A 
ATOM     29  C   UNL     1       6.201  -9.757   9.801  0.00  0.00    +0.144 A 
ATOM     30  C   UNL     1       4.859  -9.446   9.700  0.00  0.00    +0.145 A 
ATOM     31  N   UNL     1       4.436  -8.548   8.831  0.00  0.00    -0.238 NA
ATOM     32  H   UNL     1       3.830  -6.795   7.081  0.00  0.00    +0.148 HD
BRANCH  29  33
ATOM     33  N   UNL     1       6.664 -10.762  10.783  0.00  0.00    +0.058 N 
ATOM     34  O   UNL     1       7.840 -11.030  10.866  0.00  0.00    -0.126 OA
ATOM     35  O   UNL     1       5.866 -11.316  11.504  0.00  0.00    -0.126 OA
ENDBRANCH  29  33
ENDBRANCH  24  25
ENDBRANCH  23  24
ENDBRANCH  21  23
ENDBRANCH   6  19
TORSDOF 6
