REMARK  Name = ZINC54144315
REMARK  8 active torsions:
REMARK  status: ('A' for Active; 'I' for Inactive)
REMARK    1  A    between atoms: C_1  and  C_2
REMARK    2  A    between atoms: C_3  and  C_12
REMARK    3  A    between atoms: C_12  and  C_14
REMARK    4  A    between atoms: N_16  and  N_17
REMARK    5  A    between atoms: C_18  and  C_20
REMARK    6  A    between atoms: C_24  and  O_27
REMARK    7  A    between atoms: C_25  and  O_26
REMARK    8  A    between atoms: O_27  and  C_28
REMARK                            x       y       z     vdW  Elec       q    Type
REMARK                         _______ _______ _______ _____ _____    ______ ____
ROOT
ATOM      1  C   UNL     1       0.118   0.873  -3.009  0.00  0.00    +0.301 C 
ATOM      2  O   UNL     1       0.321   1.740  -2.184  0.00  0.00    -0.265 OA
ATOM      3  N   UNL     1       0.004   1.196  -4.313  0.00  0.00    -0.227 N 
ATOM      4  H   UNL     1      -0.158   0.504  -4.972  0.00  0.00    +0.173 HD
ENDROOT
BRANCH   3   5
ATOM      5  N   UNL     1       0.121   2.533  -4.715  0.00  0.00    -0.230 N 
ATOM      6  C   UNL     1       0.008   2.857  -6.019  0.00  0.00    +0.264 C 
ATOM      7  O   UNL     1      -0.196   1.989  -6.845  0.00  0.00    -0.269 OA
ATOM      8  H   UNL     1       0.284   3.226  -4.056  0.00  0.00    +0.173 HD
BRANCH   6   9
ATOM      9  C   UNL     1       0.131   4.265  -6.443  0.00  0.00    +0.083 A 
ATOM     10  C   UNL     1       0.370   5.265  -5.496  0.00  0.00    +0.017 A 
ATOM     11  C   UNL     1       0.484   6.579  -5.896  0.00  0.00    +0.005 A 
ATOM     12  C   UNL     1       0.362   6.916  -7.234  0.00  0.00    +0.049 A 
ATOM     13  C   UNL     1       0.125   5.937  -8.183  0.00  0.00    +0.162 A 
ATOM     14  C   UNL     1       0.013   4.605  -7.795  0.00  0.00    +0.171 A 
BRANCH  14  15
ATOM     15  O   UNL     1      -0.214   3.641  -8.724  0.00  0.00    -0.503 OA
ATOM     16  H   UNL     1      -1.151   3.469  -8.890  0.00  0.00    +0.292 HD
ENDBRANCH  14  15
BRANCH  13  17
ATOM     17  O   UNL     1       0.006   6.276  -9.495  0.00  0.00    -0.491 OA
ATOM     18  C   UNL     1       0.137   7.661  -9.821  0.00  0.00    +0.277 C 
ENDBRANCH  13  17
ENDBRANCH   6   9
ENDBRANCH   3   5
BRANCH   1  19
ATOM     19  C   UNL     1      -0.006  -0.551  -2.581  0.00  0.00    +0.251 C 
ATOM     20  O   UNL     1      -0.114  -1.429  -3.414  0.00  0.00    -0.282 OA
BRANCH  19  23
ATOM     21  C   UNL     1      -2.536  -0.927  -0.776  0.00  0.00    +0.064 C 
ATOM     22  C   UNL     1      -1.099  -1.061  -0.340  0.00  0.00    +0.025 A 
ATOM     23  C   UNL     1       0.001  -0.889  -1.158  0.00  0.00    +0.055 A 
ATOM     24  C   UNL     1       1.185  -1.116  -0.307  0.00  0.00    +0.011 A 
ATOM     25  C   UNL     1       2.558  -1.091  -0.534  0.00  0.00    +0.011 A 
ATOM     26  C   UNL     1       3.426  -1.356   0.503  0.00  0.00    +0.001 A 
ATOM     27  C   UNL     1       2.936  -1.647   1.768  0.00  0.00    +0.002 A 
ATOM     28  C   UNL     1       1.579  -1.676   2.005  0.00  0.00    +0.026 A 
ATOM     29  C   UNL     1       0.687  -1.411   0.972  0.00  0.00    +0.047 A 
ATOM     30  N   UNL     1      -0.692  -1.361   0.906  0.00  0.00    -0.358 N 
ATOM     31  H   UNL     1      -1.285  -1.522   1.657  0.00  0.00    +0.166 HD
ENDBRANCH  19  23
ENDBRANCH   1  19
TORSDOF 6
