REMARK  Name = ZINC36242982
REMARK  5 active torsions:
REMARK  status: ('A' for Active; 'I' for Inactive)
REMARK    1  A    between atoms: C_1  and  C_2
REMARK    2  A    between atoms: C_5  and  N_20
REMARK    3  A    between atoms: C_6  and  N_8
REMARK    4  A    between atoms: N_8  and  C_9
REMARK    5  A    between atoms: C_14  and  C_15
REMARK                            x       y       z     vdW  Elec       q    Type
REMARK                         _______ _______ _______ _____ _____    ______ ____
ROOT
ATOM      1  N   UNL     1       0.049  -2.634   2.423  0.00  0.00    -0.298 N 
ATOM      2  H   UNL     1       0.084  -3.602   2.453  0.00  0.00    +0.154 HD
ENDROOT
BRANCH   1   8
ATOM      3  C   UNL     1      -0.059   1.501   0.009  0.00  0.00    +0.065 C 
ATOM      4  C   UNL     1      -0.158  -0.003   0.012  0.00  0.00    +0.040 A 
ATOM      5  C   UNL     1      -0.391  -0.671  -1.173  0.00  0.00    +0.025 A 
ATOM      6  C   UNL     1      -0.481  -2.056  -1.167  0.00  0.00    +0.028 A 
ATOM      7  C   UNL     1      -0.334  -2.724   0.041  0.00  0.00    +0.065 A 
ATOM      8  C   UNL     1      -0.101  -1.980   1.201  0.00  0.00    +0.144 A 
ATOM      9  N   UNL     1      -0.017  -0.661   1.147  0.00  0.00    -0.235 NA
BRANCH   7  10
ATOM     10  N   UNL     1      -0.418  -4.120   0.097  0.00  0.00    -0.355 N 
ATOM     11  H   UNL     1      -0.580  -4.629  -0.713  0.00  0.00    +0.142 HD
ATOM     12  H   UNL     1      -0.314  -4.579   0.946  0.00  0.00    +0.142 HD
ENDBRANCH   7  10
ENDBRANCH   1   8
BRANCH   1  13
ATOM     13  C   UNL     1       0.150  -1.893   3.604  0.00  0.00    +0.044 A 
ATOM     14  C   UNL     1      -0.458  -0.647   3.698  0.00  0.00    +0.025 A 
ATOM     15  C   UNL     1      -0.357   0.082   4.866  0.00  0.00    +0.022 A 
ATOM     16  C   UNL     1       0.350  -0.426   5.942  0.00  0.00    +0.042 A 
ATOM     17  C   UNL     1       0.956  -1.666   5.851  0.00  0.00    +0.034 A 
ATOM     18  C   UNL     1       0.854  -2.403   4.687  0.00  0.00    +0.077 A 
ATOM     19 CL   UNL     1       0.475   0.494   7.409  0.00  0.00    -0.084 Cl
BRANCH  18  20
ATOM     20  C   UNL     1       1.510  -3.756   4.590  0.00  0.00    +0.419 C 
ATOM     21  F   UNL     1       2.153  -4.050   5.798  0.00  0.00    -0.166 F 
ATOM     22  F   UNL     1       0.538  -4.728   4.331  0.00  0.00    -0.166 F 
ATOM     23  F   UNL     1       2.449  -3.746   3.553  0.00  0.00    -0.166 F 
ENDBRANCH  18  20
ENDBRANCH   1  13
TORSDOF 4
