REMARK  Name = ZINC06818728
REMARK  10 active torsions:
REMARK  status: ('A' for Active; 'I' for Inactive)
REMARK    1  A    between atoms: C_1  and  C_2
REMARK    2  A    between atoms: C_8  and  N_10
REMARK    3  A    between atoms: C_11  and  C_13
REMARK    4  A    between atoms: C_13  and  N_14
REMARK    5  A    between atoms: N_14  and  C_15
REMARK    6  A    between atoms: N_14  and  S_16
REMARK    7  A    between atoms: S_16  and  C_19
REMARK    8  A    between atoms: C_25  and  C_30
REMARK    9  A    between atoms: C_25  and  C_31
REMARK   10  A    between atoms: N_28  and  C_29
REMARK                            x       y       z     vdW  Elec       q    Type
REMARK                         _______ _______ _______ _____ _____    ______ ____
ROOT
ATOM      1  S   UNL     1      -4.557  -0.633   4.691  0.00  0.00    +0.061 S 
ATOM      2  O   UNL     1      -5.553  -0.576   5.703  0.00  0.00    -0.153 OA
ATOM      3  O   UNL     1      -4.503  -1.681   3.733  0.00  0.00    -0.153 OA
ENDROOT
BRANCH   1   4
ATOM      4  C   UNL     1      -3.000  -0.625   5.517  0.00  0.00    +0.106 A 
ATOM      5  C   UNL     1      -1.885  -1.159   4.897  0.00  0.00    +0.030 A 
ATOM      6  C   UNL     1      -0.662  -1.152   5.536  0.00  0.00    +0.026 A 
ATOM      7  C   UNL     1      -0.545  -0.616   6.817  0.00  0.00    +0.040 A 
ATOM      8  C   UNL     1      -1.674  -0.088   7.431  0.00  0.00    -0.010 A 
ATOM      9  C   UNL     1      -2.892  -0.091   6.789  0.00  0.00    +0.035 A 
ATOM     10  C   UNL     1      -1.229   0.406   8.788  0.00  0.00    +0.068 C 
ATOM     11  C   UNL     1       0.250   0.086   8.829  0.00  0.00    +0.230 C 
ATOM     12  O   UNL     1       1.011   0.315   9.745  0.00  0.00    -0.274 OA
ATOM     13  N   UNL     1       0.561  -0.498   7.660  0.00  0.00    -0.273 N 
ATOM     14  C   UNL     1       1.906  -0.960   7.310  0.00  0.00    +0.138 C 
ATOM     15  C   UNL     1      -1.455   1.915   8.910  0.00  0.00    +0.025 C 
ATOM     16  C   UNL     1      -1.970  -0.339   9.900  0.00  0.00    +0.025 C 
ENDBRANCH   1   4
BRANCH   1  17
ATOM     17  N   UNL     1      -4.666   0.783   3.839  0.00  0.00    -0.171 NA
ATOM     18  C   UNL     1      -5.249   1.972   4.465  0.00  0.00    +0.132 C 
BRANCH  17  19
ATOM     19  C   UNL     1      -4.179   0.846   2.459  0.00  0.00    +0.204 C 
BRANCH  19  21
ATOM     20  N   UNL     1      -2.109   1.512   1.280  0.00  0.00    -0.311 N 
ATOM     21  C   UNL     1      -2.765   1.368   2.448  0.00  0.00    +0.229 C 
ATOM     22  O   UNL     1      -2.218   1.658   3.491  0.00  0.00    -0.274 OA
ATOM     23  H   UNL     1      -2.547   1.280   0.446  0.00  0.00    +0.149 HD
BRANCH  20  30
ATOM     24  C   UNL     1       0.002  -0.004   0.002  0.00  0.00    +0.009 C 
ATOM     25  C   UNL     1      -0.019   1.526   0.010  0.00  0.00    +0.006 C 
ATOM     26  C   UNL     1       1.417   2.055  -0.000  0.00  0.00    +0.005 C 
ATOM     27  C   UNL     1       1.396   3.585   0.008  0.00  0.00    +0.000 C 
ATOM     28  C   UNL     1       0.680   4.079   1.267  0.00  0.00    +0.002 C 
ATOM     29  C   UNL     1      -0.756   3.549   1.278  0.00  0.00    +0.022 C 
ATOM     30  C   UNL     1      -0.735   2.019   1.269  0.00  0.00    +0.076 C 
ENDBRANCH  20  30
ENDBRANCH  19  21
ENDBRANCH  17  19
ENDBRANCH   1  17
TORSDOF 5
