REMARK  Name = ZINC58927577
REMARK  6 active torsions:
REMARK  status: ('A' for Active; 'I' for Inactive)
REMARK    1  A    between atoms: C_6  and  C_11
REMARK    2  A    between atoms: C_11  and  C_12
REMARK    3  A    between atoms: N_14  and  N_15
REMARK    4  A    between atoms: C_16  and  C_18
REMARK    5  A    between atoms: C_20  and  S_23
REMARK    6  A    between atoms: S_23  and  N_26
REMARK                            x       y       z     vdW  Elec       q    Type
REMARK                         _______ _______ _______ _____ _____    ______ ____
ROOT
ATOM      1  C   UNL     1       5.463  -2.949   1.355  0.00  0.00    +0.233 C 
ATOM      2  O   UNL     1       4.781  -2.575   2.285  0.00  0.00    -0.274 OA
ATOM      3  N   UNL     1       6.627  -3.587   1.586  0.00  0.00    -0.234 N 
ATOM      4  H   UNL     1       7.172  -3.886   0.842  0.00  0.00    +0.173 HD
ENDROOT
BRANCH   3   5
ATOM      5  N   UNL     1       7.050  -3.818   2.902  0.00  0.00    -0.230 N 
ATOM      6  C   UNL     1       8.214  -4.456   3.133  0.00  0.00    +0.261 C 
ATOM      7  O   UNL     1       8.898  -4.832   2.200  0.00  0.00    -0.269 OA
ATOM      8  H   UNL     1       6.504  -3.519   3.646  0.00  0.00    +0.173 HD
BRANCH   6   9
ATOM      9  C   UNL     1       8.658  -4.699   4.516  0.00  0.00    +0.047 A 
ATOM     10  C   UNL     1       9.901  -5.374   4.802  0.00  0.00    +0.049 A 
ATOM     11  C   UNL     1      10.193  -5.534   6.108  0.00  0.00    +0.143 A 
ATOM     12  S   UNL     1       8.804  -4.780   6.927  0.00  0.00    -0.076 S 
ATOM     13  C   UNL     1       7.910  -4.288   5.596  0.00  0.00    +0.060 A 
BRANCH  11  14
ATOM     14  S   UNL     1      11.606  -6.301   6.830  0.00  0.00    +0.062 S 
ATOM     15  O   UNL     1      11.220  -6.720   8.132  0.00  0.00    -0.153 OA
ATOM     16  O   UNL     1      12.117  -7.204   5.859  0.00  0.00    -0.153 OA
BRANCH  14  17
ATOM     17  N   UNL     1      12.753  -5.124   7.031  0.00  0.00    -0.203 NA
ATOM     18  H   UNL     1      12.564  -4.211   6.762  0.00  0.00    +0.144 HD
ATOM     19  H   UNL     1      13.614  -5.347   7.418  0.00  0.00    +0.144 HD
ENDBRANCH  14  17
ENDBRANCH  11  14
ENDBRANCH   6   9
ENDBRANCH   3   5
BRANCH   1  20
ATOM     20  C   UNL     1       5.008  -2.700  -0.060  0.00  0.00    +0.132 C 
BRANCH  20  26
ATOM     21  C   UNL     1      -0.016   1.357   0.009  0.00  0.00    +0.001 A 
ATOM     22  C   UNL     1       1.169   2.091   0.002  0.00  0.00    +0.001 A 
ATOM     23  C   UNL     1       2.378   1.468  -0.013  0.00  0.00    +0.008 A 
ATOM     24  C   UNL     1       2.438   0.063  -0.021  0.00  0.00    -0.018 A 
ATOM     25  C   UNL     1       3.668  -0.615  -0.036  0.00  0.00    +0.012 A 
ATOM     26  C   UNL     1       3.687  -1.976  -0.043  0.00  0.00    -0.038 A 
ATOM     27  C   UNL     1       2.502  -2.710  -0.036  0.00  0.00    +0.005 A 
ATOM     28  C   UNL     1       1.292  -2.087  -0.021  0.00  0.00    +0.009 A 
ATOM     29  C   UNL     1       1.233  -0.683  -0.013  0.00  0.00    -0.018 A 
ATOM     30  C   UNL     1       0.002  -0.004   0.002  0.00  0.00    +0.008 A 
ENDBRANCH  20  26
ENDBRANCH   1  20
TORSDOF 6
