REMARK  Name = ZINC17136330
REMARK  9 active torsions:
REMARK  status: ('A' for Active; 'I' for Inactive)
REMARK    1  A    between atoms: C_1  and  C_2
REMARK    2  A    between atoms: C_2  and  O_3
REMARK    3  A    between atoms: O_3  and  C_4
REMARK    4  A    between atoms: C_4  and  C_6
REMARK    5  A    between atoms: C_10  and  N_11
REMARK    6  A    between atoms: C_12  and  C_14
REMARK    7  A    between atoms: C_19  and  C_26
REMARK    8  A    between atoms: C_22  and  C_25
REMARK    9  A    between atoms: C_30  and  C_34
REMARK                            x       y       z     vdW  Elec       q    Type
REMARK                         _______ _______ _______ _____ _____    ______ ____
ROOT
ATOM      1  N   UNL     1       1.441  -3.204   5.288  0.00  0.00    -0.273 N 
ATOM      2  C   UNL     1       0.401  -3.369   4.447  0.00  0.00    +0.288 C 
ATOM      3  O   UNL     1      -0.148  -4.451   4.364  0.00  0.00    -0.266 OA
ATOM      4  H   UNL     1       1.879  -2.341   5.354  0.00  0.00    +0.156 HD
ENDROOT
BRANCH   2   5
ATOM      5  C   UNL     1      -0.074  -2.236   3.627  0.00  0.00    +0.238 A 
ATOM      6  N   UNL     1       0.449  -0.994   3.629  0.00  0.00    -0.189 NA
ATOM      7  C   UNL     1      -0.207  -0.245   2.789  0.00  0.00    +0.215 A 
ATOM      8  N   UNL     1      -1.184  -0.998   2.220  0.00  0.00    -0.224 N 
ATOM      9  N   UNL     1      -1.078  -2.275   2.772  0.00  0.00    -0.143 NA
ATOM     10  C   UNL     1      -2.132  -0.499   1.224  0.00  0.00    +0.178 C 
ATOM     11  C   UNL     1      -2.161   1.033   1.292  0.00  0.00    +0.054 C 
ATOM     12  C   UNL     1      -0.729   1.579   1.267  0.00  0.00    +0.072 C 
ATOM     13  N   UNL     1      -0.018   1.092   2.464  0.00  0.00    -0.311 N 
ATOM     14  C   UNL     1      -0.013   1.086   0.008  0.00  0.00    +0.028 C 
ATOM     15  H   UNL     1       0.550   1.673   2.995  0.00  0.00    +0.149 HD
BRANCH  10  16
ATOM     16  C   UNL     1      -3.526  -1.055   1.520  0.00  0.00    +0.365 C 
ATOM     17  F   UNL     1      -3.978  -0.551   2.745  0.00  0.00    -0.207 F 
ATOM     18  F   UNL     1      -4.408  -0.670   0.504  0.00  0.00    -0.207 F 
ENDBRANCH  10  16
ENDBRANCH   2   5
BRANCH   1  23
ATOM     19  C   UNL     1       2.932  -4.293   6.971  0.00  0.00    +0.091 A 
ATOM     20  C   UNL     1       3.195  -5.549   7.653  0.00  0.00    -0.021 A 
ATOM     21  C   UNL     1       2.378  -6.569   7.315  0.00  0.00    -0.004 A 
ATOM     22  S   UNL     1       1.268  -5.884   6.117  0.00  0.00    -0.077 S 
ATOM     23  C   UNL     1       1.886  -4.267   6.056  0.00  0.00    +0.087 A 
ATOM     24  C   UNL     1       2.411  -7.968   7.850  0.00  0.00    +0.046 C 
ATOM     25  C   UNL     1       3.274  -7.980   9.120  0.00  0.00    -0.009 C 
ATOM     26  C   UNL     1       4.582  -7.235   8.834  0.00  0.00    +0.008 C 
ATOM     27  C   UNL     1       4.304  -5.739   8.680  0.00  0.00    +0.037 C 
ATOM     28  C   UNL     1       3.583  -9.425   9.516  0.00  0.00    +0.008 C 
BRANCH  19  29
ATOM     29  C   UNL     1       3.738  -3.100   7.237  0.00  0.00    +0.342 C 
ATOM     30  O   UNL     1       3.409  -2.326   8.116  0.00  0.00    -0.245 OA
BRANCH  29  31
ATOM     31  O   UNL     1       4.846  -2.859   6.507  0.00  0.00    -0.461 OA
BRANCH  31  33
ATOM     32  C   UNL     1       6.811  -1.554   5.900  0.00  0.00    +0.048 C 
ATOM     33  C   UNL     1       5.597  -1.657   6.825  0.00  0.00    +0.229 C 
ENDBRANCH  31  33
ENDBRANCH  29  31
ENDBRANCH  19  29
ENDBRANCH   1  23
TORSDOF 6
