REMARK  Name = ZINC63303376
REMARK  8 active torsions:
REMARK  status: ('A' for Active; 'I' for Inactive)
REMARK    1  A    between atoms: C_1  and  O_2
REMARK    2  A    between atoms: O_2  and  C_3
REMARK    3  A    between atoms: C_8  and  S_13
REMARK    4  A    between atoms: S_13  and  C_14
REMARK    5  A    between atoms: C_14  and  C_15
REMARK    6  A    between atoms: C_21  and  S_23
REMARK    7  A    between atoms: S_23  and  C_24
REMARK    8  A    between atoms: C_24  and  C_25
REMARK                            x       y       z     vdW  Elec       q    Type
REMARK                         _______ _______ _______ _____ _____    ______ ____
ROOT
ATOM      1  C   UNL     1      -4.587  -4.544   4.199  0.00  0.00    +0.229 C 
ATOM      2  O   UNL     1      -5.254  -5.557   4.213  0.00  0.00    -0.275 OA
ATOM      3  N   UNL     1      -4.202  -3.974   5.358  0.00  0.00    -0.263 N 
ATOM      4  C   UNL     1      -4.570  -4.548   6.572  0.00  0.00    +0.189 A 
ATOM      5  N   UNL     1      -5.278  -5.638   6.817  0.00  0.00    -0.125 NA
ATOM      6  N   UNL     1      -5.523  -6.026   7.992  0.00  0.00    -0.133 NA
ATOM      7  C   UNL     1      -5.087  -5.364   9.054  0.00  0.00    +0.160 A 
ATOM      8  S   UNL     1      -4.212  -4.026   8.247  0.00  0.00    -0.024 S 
ATOM      9  H   UNL     1      -3.669  -3.163   5.346  0.00  0.00    +0.157 HD
ENDROOT
BRANCH   1  10
ATOM     10  C   UNL     1      -4.190  -3.922   2.885  0.00  0.00    +0.169 C 
BRANCH  10  11
ATOM     11  S   UNL     1      -4.855  -4.915   1.520  0.00  0.00    -0.106 S 
BRANCH  11  17
ATOM     12  C   UNL     1      -1.198  -0.636   0.010  0.00  0.00    +0.122 A 
ATOM     13  C   UNL     1      -2.418   0.160   0.020  0.00  0.00    +0.048 A 
ATOM     14  C   UNL     1      -3.638  -0.408   0.029  0.00  0.00    +0.031 A 
ATOM     15  C   UNL     1      -3.762  -1.873   0.028  0.00  0.00    +0.061 A 
ATOM     16  N   UNL     1      -4.795  -2.665   0.036  0.00  0.00    -0.355 N 
ATOM     17  C   UNL     1      -4.295  -4.045   0.030  0.00  0.00    +0.236 C 
ATOM     18  N   UNL     1      -2.830  -3.955   0.019  0.00  0.00    -0.355 N 
ATOM     19  C   UNL     1      -2.517  -2.688   0.017  0.00  0.00    +0.064 A 
ATOM     20  C   UNL     1      -1.229  -1.991   0.003  0.00  0.00    +0.073 A 
ATOM     21  H   UNL     1      -5.726  -2.393   0.044  0.00  0.00    +0.162 HD
ATOM     22  H   UNL     1      -2.209  -4.700   0.013  0.00  0.00    +0.162 HD
BRANCH  12  24
ATOM     23  C   UNL     1      -0.017   1.425   0.010  0.00  0.00    +0.277 C 
ATOM     24  O   UNL     1       0.002  -0.004   0.002  0.00  0.00    -0.495 OA
ENDBRANCH  12  24
ENDBRANCH  11  17
ENDBRANCH  10  11
ENDBRANCH   1  10
BRANCH   7  25
ATOM     25  S   UNL     1      -5.301  -5.706  10.769  0.00  0.00    -0.088 S 
BRANCH  25  26
ATOM     26  C   UNL     1      -6.290  -7.226  10.793  0.00  0.00    +0.171 C 
BRANCH  26  27
ATOM     27  C   UNL     1      -6.549  -7.634  12.221  0.00  0.00    +0.221 C 
ATOM     28  O   UNL     1      -6.109  -6.966  13.132  0.00  0.00    -0.275 OA
ATOM     29  N   UNL     1      -7.269  -8.743  12.485  0.00  0.00    -0.329 N 
ATOM     30  H   UNL     1      -7.620  -9.277  11.756  0.00  0.00    +0.145 HD
ATOM     31  H   UNL     1      -7.435  -9.005  13.404  0.00  0.00    +0.145 HD
ENDBRANCH  26  27
ENDBRANCH  25  26
ENDBRANCH   7  25
TORSDOF 7
