REMARK  Name = ZINC60098289
REMARK  9 active torsions:
REMARK  status: ('A' for Active; 'I' for Inactive)
REMARK    1  A    between atoms: C_1  and  C_2
REMARK    2  A    between atoms: C_4  and  C_32
REMARK    3  A    between atoms: N_5  and  C_7
REMARK    4  A    between atoms: C_7  and  C_9
REMARK    5  A    between atoms: C_7  and  C_10
REMARK    6  A    between atoms: N_12  and  C_13
REMARK    7  A    between atoms: C_16  and  N_20
REMARK    8  A    between atoms: C_21  and  C_23
REMARK    9  A    between atoms: C_27  and  N_29
REMARK                            x       y       z     vdW  Elec       q    Type
REMARK                         _______ _______ _______ _____ _____    ______ ____
ROOT
ATOM      1  C   UNL     1      -2.477  -4.232   4.091  0.00  0.00    +0.052 A 
ATOM      2  C   UNL     1      -3.381  -3.188   3.950  0.00  0.00    +0.026 A 
ATOM      3  C   UNL     1      -4.471  -3.099   4.794  0.00  0.00    +0.025 A 
ATOM      4  C   UNL     1      -4.663  -4.054   5.783  0.00  0.00    +0.035 A 
ATOM      5  C   UNL     1      -3.759  -5.099   5.925  0.00  0.00    +0.045 A 
ATOM      6  C   UNL     1      -2.672  -5.191   5.077  0.00  0.00    +0.064 A 
ATOM      7 CL   UNL     1      -1.546  -6.501   5.249  0.00  0.00    -0.082 Cl
ENDROOT
BRANCH   1  10
ATOM      8  C   UNL     1      -1.418  -3.755   2.013  0.00  0.00    +0.242 C 
ATOM      9  O   UNL     1      -2.449  -3.254   1.615  0.00  0.00    -0.273 OA
ATOM     10  N   UNL     1      -1.372  -4.322   3.234  0.00  0.00    -0.283 N 
ATOM     11  H   UNL     1      -0.574  -4.793   3.521  0.00  0.00    +0.155 HD
BRANCH   8  12
ATOM     12  C   UNL     1      -0.189  -3.742   1.141  0.00  0.00    +0.190 C 
ATOM     13  C   UNL     1       0.936  -2.990   1.855  0.00  0.00    +0.042 C 
BRANCH  12  18
ATOM     14  C   UNL     1      -1.562  -0.218  -2.159  0.00  0.00    +0.067 C 
ATOM     15  C   UNL     1      -1.100  -1.517  -1.552  0.00  0.00    +0.060 A 
ATOM     16  C   UNL     1      -0.775  -2.682  -2.255  0.00  0.00    +0.047 A 
ATOM     17  C   UNL     1      -0.407  -3.623  -1.355  0.00  0.00    +0.037 A 
ATOM     18  N   UNL     1      -0.495  -3.074  -0.126  0.00  0.00    -0.257 N 
ATOM     19  N   UNL     1      -0.928  -1.749  -0.275  0.00  0.00    -0.176 NA
ATOM     20  C   UNL     1       0.024  -5.032  -1.670  0.00  0.00    +0.065 C 
ENDBRANCH  12  18
ENDBRANCH   8  12
ENDBRANCH   1  10
BRANCH   4  21
ATOM     21  N   UNL     1      -5.767  -3.963   6.639  0.00  0.00    -0.281 N 
ATOM     22  C   UNL     1      -5.655  -4.344   7.927  0.00  0.00    +0.248 C 
ATOM     23  O   UNL     1      -4.622  -4.848   8.324  0.00  0.00    -0.270 OA
ATOM     24  H   UNL     1      -6.613  -3.626   6.305  0.00  0.00    +0.155 HD
BRANCH  22  25
ATOM     25  C   UNL     1      -6.788  -4.151   8.856  0.00  0.00    +0.039 A 
ATOM     26  C   UNL     1      -7.978  -3.578   8.402  0.00  0.00    +0.013 A 
ATOM     27  C   UNL     1      -9.031  -3.401   9.274  0.00  0.00    +0.003 A 
ATOM     28  C   UNL     1      -8.911  -3.788  10.597  0.00  0.00    +0.033 A 
ATOM     29  C   UNL     1      -7.735  -4.355  11.054  0.00  0.00    +0.127 A 
ATOM     30  C   UNL     1      -6.675  -4.544  10.191  0.00  0.00    +0.045 A 
BRANCH  29  31
ATOM     31  N   UNL     1      -7.614  -4.766  12.471  0.00  0.00    +0.056 N 
ATOM     32  O   UNL     1      -8.544  -4.606  13.228  0.00  0.00    -0.126 OA
ATOM     33  O   UNL     1      -6.587  -5.262  12.872  0.00  0.00    -0.126 OA
ENDBRANCH  29  31
ENDBRANCH  22  25
ENDBRANCH   4  21
TORSDOF 6
