REMARK  Name = ZINC38815196
REMARK  10 active torsions:
REMARK  status: ('A' for Active; 'I' for Inactive)
REMARK    1  A    between atoms: C_1  and  C_2
REMARK    2  A    between atoms: C_2  and  O_3
REMARK    3  A    between atoms: O_3  and  C_4
REMARK    4  A    between atoms: C_6  and  C_11
REMARK    5  A    between atoms: C_9  and  O_10
REMARK    6  A    between atoms: N_12  and  N_13
REMARK    7  A    between atoms: C_14  and  C_16
REMARK    8  A    between atoms: C_19  and  C_22
REMARK    9  A    between atoms: C_26  and  O_28
REMARK   10  A    between atoms: O_28  and  C_29
REMARK                            x       y       z     vdW  Elec       q    Type
REMARK                         _______ _______ _______ _____ _____    ______ ____
ROOT
ATOM      1  N   UNL     1      -0.639  -7.104  -1.322  0.00  0.00    -0.205 N 
ATOM      2  C   UNL     1      -0.528  -8.439  -1.173  0.00  0.00    +0.263 C 
ATOM      3  O   UNL     1       0.045  -8.896  -0.206  0.00  0.00    -0.271 OA
ATOM      4  H   UNL     1      -1.098  -6.739  -2.095  0.00  0.00    +0.177 HD
ENDROOT
BRANCH   2   5
ATOM      5  C   UNL     1      -1.116  -9.364  -2.207  0.00  0.00    +0.240 C 
ATOM      6  C   UNL     1      -2.602  -9.566  -1.964  0.00  0.00    +0.041 C 
ATOM      7  C   UNL     1      -2.714 -10.888  -1.731  0.00  0.00    +0.092 C 
ATOM      8  N   UNL     1      -1.497 -11.488  -1.805  0.00  0.00    -0.153 NA
ATOM      9  N   UNL     1      -0.562 -10.721  -2.065  0.00  0.00    -0.170 NA
BRANCH   7  10
ATOM     10  C   UNL     1      -3.988 -11.590  -1.436  0.00  0.00    +0.005 A 
ATOM     11  C   UNL     1      -5.184 -10.876  -1.389  0.00  0.00    +0.010 A 
ATOM     12  C   UNL     1      -6.368 -11.532  -1.114  0.00  0.00    +0.004 A 
ATOM     13  C   UNL     1      -6.370 -12.895  -0.884  0.00  0.00    +0.045 A 
ATOM     14  C   UNL     1      -5.183 -13.613  -0.930  0.00  0.00    +0.121 A 
ATOM     15  C   UNL     1      -3.991 -12.964  -1.210  0.00  0.00    +0.055 A 
BRANCH  14  16
ATOM     16  O   UNL     1      -5.190 -14.953  -0.703  0.00  0.00    -0.495 OA
ATOM     17  C   UNL     1      -6.455 -15.557  -0.425  0.00  0.00    +0.277 C 
ENDBRANCH  14  16
ENDBRANCH   7  10
ENDBRANCH   2   5
BRANCH   1  19
ATOM     18  C   UNL     1      -0.200  -4.959  -0.504  0.00  0.00    +0.138 C 
ATOM     19  N   UNL     1      -0.093  -6.244  -0.361  0.00  0.00    -0.188 NA
BRANCH  18  22
ATOM     20  C   UNL     1       0.802  -1.825   1.306  0.00  0.00    +0.162 A 
ATOM     21  C   UNL     1       0.261  -2.669   0.354  0.00  0.00    +0.059 A 
ATOM     22  C   UNL     1       0.375  -4.053   0.507  0.00  0.00    -0.002 A 
ATOM     23  C   UNL     1       1.036  -4.577   1.621  0.00  0.00    +0.013 A 
ATOM     24  C   UNL     1       1.572  -3.729   2.567  0.00  0.00    +0.050 A 
ATOM     25  C   UNL     1       1.464  -2.355   2.412  0.00  0.00    +0.158 A 
BRANCH  25  26
ATOM     26  O   UNL     1       2.000  -1.523   3.344  0.00  0.00    -0.503 OA
ATOM     27  H   UNL     1       1.394  -1.295   4.062  0.00  0.00    +0.292 HD
ENDBRANCH  25  26
BRANCH  20  28
ATOM     28  O   UNL     1       0.693  -0.477   1.160  0.00  0.00    -0.489 OA
BRANCH  28  30
ATOM     29  C   UNL     1      -0.019   1.526   0.010  0.00  0.00    +0.048 C 
ATOM     30  C   UNL     1       0.002  -0.004   0.002  0.00  0.00    +0.226 C 
ENDBRANCH  28  30
ENDBRANCH  20  28
ENDBRANCH  18  22
ENDBRANCH   1  19
TORSDOF 8
