REMARK  Name = ZINC42432068
REMARK  5 active torsions:
REMARK  status: ('A' for Active; 'I' for Inactive)
REMARK    1  A    between atoms: C_4  and  N_17
REMARK    2  A    between atoms: C_5  and  C_7
REMARK    3  A    between atoms: C_7  and  N_8
REMARK    4  A    between atoms: C_13  and  C_15
REMARK    5  A    between atoms: C_15  and  O_16
REMARK                            x       y       z     vdW  Elec       q    Type
REMARK                         _______ _______ _______ _____ _____    ______ ____
ROOT
ATOM      1  C   UNL     1       1.031  -2.277   0.269  0.00  0.00    -0.041 C 
ENDROOT
BRANCH   1   2
ATOM      2  N   UNL     1       1.434  -2.894   1.539  0.00  0.00    +0.386 N 
ATOM      3  C   UNL     1       2.735  -2.354   1.952  0.00  0.00    -0.078 C 
ATOM      4  C   UNL     1       3.122  -2.933   3.315  0.00  0.00    -0.019 C 
ATOM      5  C   UNL     1       3.211  -4.458   3.210  0.00  0.00    -0.003 C 
ATOM      6  C   UNL     1       1.871  -5.004   2.707  0.00  0.00    -0.013 C 
ATOM      7  C   UNL     1       1.530  -4.349   1.367  0.00  0.00    -0.042 C 
ATOM      8  H   UNL     1       0.746  -2.685   2.247  0.00  0.00    -0.081 HD
BRANCH   7   9
ATOM      9  C   UNL     1       0.193  -4.891   0.860  0.00  0.00    +0.140 C 
BRANCH   9  10
ATOM     10  O   UNL     1      -0.817  -4.665   1.846  0.00  0.00    -0.397 OA
ATOM     11  H   UNL     1      -1.694  -4.984   1.591  0.00  0.00    +0.209 HD
ENDBRANCH   9  10
ENDBRANCH   7   9
ENDBRANCH   1   2
BRANCH   1  16
ATOM     12  C   UNL     1      -0.658   1.028   0.958  0.00  0.00    +0.000 A 
ATOM     13  C   UNL     1       0.401   1.912   0.853  0.00  0.00    +0.002 A 
ATOM     14  C   UNL     1       1.666   1.444   0.559  0.00  0.00    +0.023 A 
ATOM     15  C   UNL     1       1.875   0.083   0.369  0.00  0.00    +0.026 A 
ATOM     16  C   UNL     1       0.809  -0.801   0.475  0.00  0.00    -0.043 A 
ATOM     17  C   UNL     1      -0.454  -0.326   0.769  0.00  0.00    +0.003 A 
BRANCH  15  18
ATOM     18  N   UNL     1       3.153  -0.393   0.071  0.00  0.00    -0.358 N 
ATOM     19  H   UNL     1       3.890   0.228  -0.037  0.00  0.00    +0.142 HD
ATOM     20  H   UNL     1       3.305  -1.346  -0.028  0.00  0.00    +0.142 HD
ENDBRANCH  15  18
ENDBRANCH   1  16
TORSDOF 5
