REMARK  Name = ZINC08945607
REMARK  9 active torsions:
REMARK  status: ('A' for Active; 'I' for Inactive)
REMARK    1  A    between atoms: C_1  and  C_2
REMARK    2  A    between atoms: C_3  and  C_35
REMARK    3  A    between atoms: N_4  and  C_28
REMARK    4  A    between atoms: C_5  and  N_9
REMARK    5  A    between atoms: C_6  and  C_7
REMARK    6  A    between atoms: C_10  and  C_12
REMARK    7  A    between atoms: C_12  and  N_65
REMARK    8  A    between atoms: C_16  and  C_19
REMARK    9  A    between atoms: C_28  and  C_29
REMARK                            x       y       z     vdW  Elec       q    Type
REMARK                         _______ _______ _______ _____ _____    ______ ____
ROOT
ATOM      1  N   UNL     1       0.163  -9.141  -3.295  0.00  0.00    -0.272 N 
ATOM      2  C   UNL     1       0.862  -8.894  -2.169  0.00  0.00    +0.202 C 
ATOM      3  O   UNL     1       0.933  -9.739  -1.302  0.00  0.00    -0.278 OA
ATOM      4  H   UNL     1       0.049  -8.443  -3.958  0.00  0.00    +0.156 HD
ENDROOT
BRANCH   1   9
ATOM      5  C   UNL     1      -2.852 -13.193  -3.111  0.00  0.00    +0.047 C 
ATOM      6  C   UNL     1      -1.734 -12.239  -3.444  0.00  0.00    -0.011 A 
ATOM      7  C   UNL     1      -0.711 -12.466  -4.283  0.00  0.00    +0.022 A 
ATOM      8  N   UNL     1       0.093 -11.358  -4.327  0.00  0.00    -0.329 N 
ATOM      9  C   UNL     1      -0.395 -10.394  -3.504  0.00  0.00    +0.123 A 
ATOM     10  C   UNL     1      -1.553 -10.882  -2.915  0.00  0.00    +0.095 A 
ATOM     11  C   UNL     1      -0.485 -13.737  -5.060  0.00  0.00    +0.064 C 
BRANCH  10  12
ATOM     12  C   UNL     1      -2.398 -10.200  -1.982  0.00  0.00    +0.103 C 
ATOM     13  N   UNL     1      -3.069  -9.660  -1.241  0.00  0.00    -0.191 NA
ENDBRANCH  10  12
BRANCH   8  14
ATOM     14  C   UNL     1       1.306 -11.233  -5.140  0.00  0.00    +0.154 C 
BRANCH  14  15
ATOM     15  C   UNL     1       2.529 -11.578  -4.288  0.00  0.00    +0.138 C 
ATOM     16  C   UNL     1       3.826 -11.368  -5.100  0.00  0.00    +0.035 C 
ATOM     17  C   UNL     1       4.745 -12.523  -4.643  0.00  0.00    +0.031 C 
ATOM     18  C   UNL     1       3.895 -13.293  -3.608  0.00  0.00    +0.160 C 
ATOM     19  O   UNL     1       2.526 -12.981  -3.948  0.00  0.00    -0.375 OA
ENDBRANCH  14  15
ENDBRANCH   8  14
ENDBRANCH   1   9
BRANCH   2  20
ATOM     20  C   UNL     1       1.556  -7.569  -1.988  0.00  0.00    +0.019 C 
BRANCH  20  26
ATOM     21  C   UNL     1       3.336  -8.528  -0.658  0.00  0.00    -0.078 C 
ATOM     22  C   UNL     1       3.933  -8.583   0.750  0.00  0.00    -0.018 C 
ATOM     23  C   UNL     1       4.455  -7.195   1.132  0.00  0.00    +0.006 C 
ATOM     24  C   UNL     1       3.308  -6.185   1.044  0.00  0.00    +0.028 C 
ATOM     25  C   UNL     1       2.729  -6.200  -0.373  0.00  0.00    -0.068 C 
ATOM     26  N   UNL     1       2.222  -7.557  -0.670  0.00  0.00    +0.386 N 
ATOM     27  H   UNL     1       1.541  -7.822   0.051  0.00  0.00    -0.081 HD
BRANCH  24  28
ATOM     28  C   UNL     1       3.826  -4.806   1.361  0.00  0.00    +0.081 A 
ATOM     29  N   UNL     1       4.755  -4.130   0.745  0.00  0.00    -0.244 NA
ATOM     30  C   UNL     1       5.130  -2.893   1.133  0.00  0.00    +0.078 A 
ATOM     31  C   UNL     1       6.110  -2.043   0.574  0.00  0.00    +0.029 A 
ATOM     32  C   UNL     1       6.351  -0.815   1.109  0.00  0.00    +0.002 A 
ATOM     33  C   UNL     1       5.650  -0.352   2.214  0.00  0.00    +0.001 A 
ATOM     34  C   UNL     1       4.683  -1.154   2.790  0.00  0.00    +0.017 A 
ATOM     35  C   UNL     1       4.433  -2.396   2.257  0.00  0.00    +0.039 A 
ATOM     36  S   UNL     1       3.330  -3.735   2.634  0.00  0.00    -0.072 S 
ENDBRANCH  24  28
ENDBRANCH  20  26
ENDBRANCH   2  20
TORSDOF 7
