REMARK  Name = ZINC63351314
REMARK  12 active torsions:
REMARK  status: ('A' for Active; 'I' for Inactive)
REMARK    1  A    between atoms: C_1  and  C_2
REMARK    2  A    between atoms: N_4  and  C_5
REMARK    3  A    between atoms: C_11  and  O_39
REMARK    4  A    between atoms: C_12  and  O_37
REMARK    5  A    between atoms: C_13  and  O_35
REMARK    6  A    between atoms: C_20  and  N_23
REMARK    7  A    between atoms: N_23  and  C_24
REMARK    8  A    between atoms: C_24  and  C_25
REMARK    9  A    between atoms: C_25  and  C_26
REMARK   10  A    between atoms: O_35  and  C_36
REMARK   11  A    between atoms: O_37  and  C_38
REMARK   12  A    between atoms: O_39  and  C_40
REMARK                            x       y       z     vdW  Elec       q    Type
REMARK                         _______ _______ _______ _____ _____    ______ ____
ROOT
ATOM      1  C   UNL     1      -1.157  -2.216  -0.175  0.00  0.00    +0.104 C 
ATOM      2  C   UNL     1      -2.400  -2.677   0.559  0.00  0.00    +0.032 C 
ATOM      3  C   UNL     1      -2.621  -4.176   0.377  0.00  0.00    +0.038 C 
ATOM      4  C   UNL     1      -1.315  -4.907   0.553  0.00  0.00    -0.032 A 
ATOM      5  C   UNL     1      -1.058  -5.596   1.720  0.00  0.00    +0.054 A 
ATOM      6  C   UNL     1       0.143  -6.277   1.874  0.00  0.00    +0.165 A 
ATOM      7  C   UNL     1       1.091  -6.270   0.857  0.00  0.00    +0.204 A 
ATOM      8  C   UNL     1       0.840  -5.574  -0.319  0.00  0.00    +0.173 A 
ATOM      9  C   UNL     1      -0.368  -4.886  -0.465  0.00  0.00    +0.031 A 
ATOM     10  C   UNL     1      -0.633  -4.114  -1.716  0.00  0.00    -0.009 A 
ATOM     11  C   UNL     1      -1.080  -2.800  -1.571  0.00  0.00    -0.016 A 
ATOM     12  C   UNL     1      -1.457  -1.992  -2.577  0.00  0.00    +0.058 A 
ATOM     13  C   UNL     1      -1.498  -2.151  -3.932  0.00  0.00    +0.200 A 
ATOM     14  O   UNL     1      -1.978  -1.219  -4.563  0.00  0.00    -0.286 OA
ATOM     15  C   UNL     1      -1.064  -3.236  -4.690  0.00  0.00    +0.074 A 
ATOM     16  C   UNL     1      -0.573  -4.404  -4.188  0.00  0.00    +0.027 A 
ATOM     17  C   UNL     1      -0.406  -4.765  -2.902  0.00  0.00    +0.011 A 
ENDROOT
BRANCH   1  21
ATOM     18  C   UNL     1      -0.029   1.430  -0.476  0.00  0.00    +0.109 C 
ATOM     19  C   UNL     1      -0.014  -0.074  -0.379  0.00  0.00    +0.210 C 
ATOM     20  O   UNL     1       1.041  -0.672  -0.400  0.00  0.00    -0.276 OA
ATOM     21  N   UNL     1      -1.172  -0.754  -0.269  0.00  0.00    -0.309 N 
ATOM     22  H   UNL     1      -2.016  -0.276  -0.252  0.00  0.00    +0.149 HD
ENDBRANCH   1  21
BRANCH  15  23
ATOM     23  N   UNL     1      -1.139  -3.119  -6.068  0.00  0.00    -0.341 N 
ATOM     24  H   UNL     1      -1.483  -2.304  -6.467  0.00  0.00    +0.146 HD
BRANCH  23  25
ATOM     25  C   UNL     1      -0.699  -4.224  -6.923  0.00  0.00    +0.106 C 
BRANCH  25  26
ATOM     26  C   UNL     1      -0.886  -3.839  -8.391  0.00  0.00    +0.052 C 
BRANCH  26  27
ATOM     27  C   UNL     1      -0.433  -4.976  -9.271  0.00  0.00    -0.040 C 
ATOM     28  C   UNL     1      -1.207  -5.947  -9.807  0.00  0.00    -0.001 A 
ATOM     29  C   UNL     1      -2.646  -6.226  -9.734  0.00  0.00    +0.010 A 
ATOM     30  C   UNL     1      -3.141  -7.298 -10.392  0.00  0.00    +0.001 A 
ATOM     31  C   UNL     1      -2.316  -8.149 -11.140  0.00  0.00    +0.002 A 
ATOM     32  C   UNL     1      -0.984  -7.959 -11.254  0.00  0.00    +0.026 A 
ATOM     33  C   UNL     1      -0.357  -6.861 -10.603  0.00  0.00    +0.043 A 
ATOM     34  N   UNL     1       0.893  -6.470 -10.561  0.00  0.00    -0.380 N 
ATOM     35  C   UNL     1       0.977  -5.259  -9.737  0.00  0.00    +0.144 C 
ATOM     36  H   UNL     1       1.638  -6.906 -11.004  0.00  0.00    +0.160 HD
ENDBRANCH  26  27
ENDBRANCH  25  26
ENDBRANCH  23  25
ENDBRANCH  15  23
BRANCH   8  37
ATOM     37  O   UNL     1       1.761  -5.562  -1.318  0.00  0.00    -0.491 OA
ATOM     38  C   UNL     1       2.801  -4.586  -1.230  0.00  0.00    +0.277 C 
ENDBRANCH   8  37
BRANCH   7  39
ATOM     39  O   UNL     1       2.264  -6.943   1.013  0.00  0.00    -0.488 OA
ATOM     40  C   UNL     1       2.289  -8.308   0.593  0.00  0.00    +0.277 C 
ENDBRANCH   7  39
BRANCH   6  41
ATOM     41  O   UNL     1       0.393  -6.954   3.026  0.00  0.00    -0.491 OA
ATOM     42  C   UNL     1      -0.623  -6.922   4.031  0.00  0.00    +0.277 C 
ENDBRANCH   6  41
TORSDOF 8
