REMARK  Name = ZINC43740570
REMARK  8 active torsions:
REMARK  status: ('A' for Active; 'I' for Inactive)
REMARK    1  A    between atoms: C_1  and  C_2
REMARK    2  A    between atoms: C_6  and  C_34
REMARK    3  A    between atoms: C_6  and  O_35
REMARK    4  A    between atoms: C_7  and  O_33
REMARK    5  A    between atoms: C_17  and  C_19
REMARK    6  A    between atoms: C_19  and  N_20
REMARK    7  A    between atoms: N_23  and  C_26
REMARK    8  A    between atoms: O_35  and  C_36
REMARK                            x       y       z     vdW  Elec       q    Type
REMARK                         _______ _______ _______ _____ _____    ______ ____
ROOT
ATOM      1  C   UNL     1      -0.828   1.610  -0.145  0.00  0.00    +0.014 C 
ATOM      2  C   UNL     1      -0.594   0.098  -0.096  0.00  0.00    +0.003 C 
ATOM      3  C   UNL     1       0.167  -0.343  -1.346  0.00  0.00    +0.010 C 
ATOM      4  C   UNL     1       1.505   0.398  -1.412  0.00  0.00    +0.003 C 
ATOM      5  C   UNL     1       2.330   0.077  -0.164  0.00  0.00    +0.037 C 
ATOM      6  C   UNL     1       1.561   0.508   1.087  0.00  0.00    +0.095 C 
ATOM      7  C   UNL     1       0.232  -0.253   1.148  0.00  0.00    +0.100 C 
ATOM      8  C   UNL     1       0.507  -1.756   1.134  0.00  0.00    +0.046 C 
ATOM      9  C   UNL     1      -0.797  -2.552   1.207  0.00  0.00    +0.044 C 
ATOM     10  C   UNL     1      -1.772  -2.103   0.101  0.00  0.00    +0.181 C 
ATOM     11  C   UNL     1      -1.936  -0.623  -0.009  0.00  0.00    +0.054 C 
ATOM     12  O   UNL     1      -1.223  -2.678  -1.091  0.00  0.00    -0.461 OA
ATOM     13  C   UNL     1      -0.812  -3.929  -0.784  0.00  0.00    +0.309 C 
ATOM     14  O   UNL     1      -0.731  -4.851  -1.560  0.00  0.00    -0.251 OA
ATOM     15  C   UNL     1      -0.461  -3.993   0.715  0.00  0.00    +0.088 C 
ATOM     16  C   UNL     1       2.390   0.188   2.332  0.00  0.00    +0.044 C 
ENDROOT
BRANCH   7  17
ATOM     17  O   UNL     1      -0.482   0.116   2.329  0.00  0.00    -0.385 OA
ATOM     18  H   UNL     1      -0.011  -0.081   3.151  0.00  0.00    +0.210 HD
ENDBRANCH   7  17
BRANCH   6  19
ATOM     19  O   UNL     1       1.305   1.912   1.030  0.00  0.00    -0.374 OA
ATOM     20  C   UNL     1       2.485   2.716   0.964  0.00  0.00    +0.194 C 
ENDBRANCH   6  19
BRANCH  15  21
ATOM     21  C   UNL     1      -1.332  -5.023   1.436  0.00  0.00    -0.064 C 
BRANCH  21  22
ATOM     22  N   UNL     1      -0.995  -5.035   2.865  0.00  0.00    +0.382 N 
ATOM     23  C   UNL     1       0.388  -5.499   3.037  0.00  0.00    -0.060 C 
ATOM     24  C   UNL     1       0.778  -5.403   4.515  0.00  0.00    +0.086 C 
ATOM     25  N   UNL     1      -0.213  -6.145   5.309  0.00  0.00    -0.333 N 
ATOM     26  C   UNL     1      -1.638  -5.857   5.082  0.00  0.00    +0.086 C 
ATOM     27  C   UNL     1      -1.915  -5.932   3.576  0.00  0.00    -0.060 C 
ATOM     28  H   UNL     1      -1.082  -4.101   3.238  0.00  0.00    -0.082 HD
BRANCH  25  29
ATOM     29  C   UNL     1       0.186  -7.095   6.251  0.00  0.00    +0.031 A 
ATOM     30  C   UNL     1       1.528  -7.432   6.374  0.00  0.00    +0.023 A 
ATOM     31  C   UNL     1       1.921  -8.372   7.306  0.00  0.00    +0.003 A 
ATOM     32  C   UNL     1       0.979  -8.979   8.118  0.00  0.00    +0.020 A 
ATOM     33  C   UNL     1      -0.359  -8.646   7.998  0.00  0.00    +0.043 A 
ATOM     34  C   UNL     1      -0.757  -7.702   7.071  0.00  0.00    +0.043 A 
ATOM     35 CL   UNL     1      -1.537  -9.410   9.018  0.00  0.00    -0.083 Cl
ENDBRANCH  25  29
ENDBRANCH  21  22
ENDBRANCH  15  21
TORSDOF 5
