REMARK  Name = ZINC44530328
REMARK  8 active torsions:
REMARK  status: ('A' for Active; 'I' for Inactive)
REMARK    1  A    between atoms: C_1  and  C_2
REMARK    2  A    between atoms: C_5  and  O_38
REMARK    3  A    between atoms: C_18  and  C_37
REMARK    4  A    between atoms: C_19  and  O_36
REMARK    5  A    between atoms: C_21  and  C_32
REMARK    6  A    between atoms: C_23  and  C_25
REMARK    7  A    between atoms: C_32  and  O_34
REMARK    8  A    between atoms: O_34  and  C_35
REMARK                            x       y       z     vdW  Elec       q    Type
REMARK                         _______ _______ _______ _____ _____    ______ ____
ROOT
ATOM      1  C   UNL     1      -0.479   1.963  -0.653  0.00  0.00    +0.012 C 
ATOM      2  C   UNL     1      -0.365   0.454  -0.428  0.00  0.00    -0.026 C 
ATOM      3  C   UNL     1      -1.763  -0.167  -0.414  0.00  0.00    +0.010 C 
ATOM      4  C   UNL     1      -2.587   0.457   0.714  0.00  0.00    +0.032 C 
ATOM      5  C   UNL     1      -1.898   0.192   2.055  0.00  0.00    +0.115 C 
ATOM      6  C   UNL     1      -0.500   0.812   2.041  0.00  0.00    +0.035 C 
ATOM      7  C   UNL     1       0.324   0.189   0.912  0.00  0.00    -0.002 C 
ATOM      8  C   UNL     1       1.722   0.812   0.897  0.00  0.00    +0.004 C 
ATOM      9  C   UNL     1       2.546   0.190  -0.231  0.00  0.00    +0.007 C 
ATOM     10  C   UNL     1       1.856   0.449  -1.572  0.00  0.00    +0.025 C 
ATOM     11  C   UNL     1       0.459  -0.170  -1.557  0.00  0.00    +0.001 C 
ATOM     12  C   UNL     1      -0.218   0.125  -2.899  0.00  0.00    +0.005 C 
ATOM     13  C   UNL     1       0.577  -0.562  -4.006  0.00  0.00    +0.010 C 
ATOM     14  C   UNL     1       2.000  -0.001  -4.080  0.00  0.00    +0.005 C 
ATOM     15  C   UNL     1       2.680  -0.110  -2.707  0.00  0.00    +0.076 C 
ATOM     16  C   UNL     1       2.969  -1.613  -2.543  0.00  0.00    +0.051 C 
ATOM     17  C   UNL     1       3.393  -2.055  -3.963  0.00  0.00    +0.109 C 
ATOM     18  C   UNL     1       2.823  -0.988  -4.950  0.00  0.00    +0.044 C 
ATOM     19  C   UNL     1       2.017   1.416  -4.657  0.00  0.00    +0.014 C 
ENDROOT
BRANCH  18  20
ATOM     20  C   UNL     1       3.913  -0.248  -5.681  0.00  0.00    -0.008 A 
ATOM     21  C   UNL     1       5.031   0.233  -4.977  0.00  0.00    +0.014 A 
ATOM     22  C   UNL     1       6.005   0.900  -5.660  0.00  0.00    +0.092 A 
ATOM     23  C   UNL     1       5.861   1.086  -7.047  0.00  0.00    +0.337 A 
ATOM     24  O   UNL     1       6.722   1.680  -7.675  0.00  0.00    -0.245 OA
ATOM     25  O   UNL     1       4.776   0.610  -7.681  0.00  0.00    -0.430 OA
ATOM     26  C   UNL     1       3.820  -0.050  -7.013  0.00  0.00    +0.203 A 
ENDBRANCH  18  20
BRANCH  17  27
ATOM     27  C   UNL     1       4.896  -2.055  -4.075  0.00  0.00    +0.311 C 
ATOM     28  O   UNL     1       5.573  -1.714  -3.134  0.00  0.00    -0.251 OA
BRANCH  27  29
ATOM     29  O   UNL     1       5.484  -2.435  -5.221  0.00  0.00    -0.468 OA
ATOM     30  C   UNL     1       6.912  -2.411  -5.257  0.00  0.00    +0.280 C 
ENDBRANCH  27  29
ENDBRANCH  17  27
BRANCH  15  31
ATOM     31  O   UNL     1       3.926   0.587  -2.769  0.00  0.00    -0.388 OA
ATOM     32  H   UNL     1       4.453   0.524  -1.960  0.00  0.00    +0.210 HD
ENDBRANCH  15  31
BRANCH   5  33
ATOM     33  O   UNL     1      -1.792  -1.217   2.265  0.00  0.00    -0.392 OA
ATOM     34  H   UNL     1      -2.643  -1.677   2.285  0.00  0.00    +0.210 HD
ENDBRANCH   5  33
TORSDOF 5
