REMARK  Name = ZINC01146616
REMARK  9 active torsions:
REMARK  status: ('A' for Active; 'I' for Inactive)
REMARK    1  A    between atoms: C_1  and  C_2
REMARK    2  A    between atoms: C_5  and  C_26
REMARK    3  A    between atoms: C_6  and  N_8
REMARK    4  A    between atoms: C_9  and  C_11
REMARK    5  A    between atoms: C_11  and  N_12
REMARK    6  A    between atoms: N_12  and  C_13
REMARK    7  A    between atoms: N_12  and  S_22
REMARK    8  A    between atoms: C_17  and  N_19
REMARK    9  A    between atoms: S_22  and  C_25
REMARK                            x       y       z     vdW  Elec       q    Type
REMARK                         _______ _______ _______ _____ _____    ______ ____
ROOT
ATOM      1  N   UNL     1       2.434  -2.738  -0.042  0.00  0.00    -0.199 N 
ENDROOT
BRANCH   1   2
ATOM      2  C   UNL     1       1.220  -2.049  -0.018  0.00  0.00    +0.054 A 
ATOM      3  C   UNL     1       0.021  -2.752  -0.011  0.00  0.00    +0.025 A 
ATOM      4  C   UNL     1      -1.178  -2.068   0.012  0.00  0.00    +0.004 A 
ATOM      5  C   UNL     1      -1.187  -0.685   0.034  0.00  0.00    +0.033 A 
ATOM      6  C   UNL     1       0.004   0.018   0.022  0.00  0.00    +0.128 A 
ATOM      7  C   UNL     1       1.207  -0.660  -0.001  0.00  0.00    +0.057 A 
BRANCH   6   8
ATOM      8  N   UNL     1      -0.011   1.498   0.040  0.00  0.00    +0.056 N 
ATOM      9  O   UNL     1       1.038   2.117   0.034  0.00  0.00    -0.126 OA
ATOM     10  O   UNL     1      -1.071   2.096   0.055  0.00  0.00    -0.126 OA
ENDBRANCH   6   8
ENDBRANCH   1   2
BRANCH   1  11
ATOM     11  S   UNL     1       2.522  -4.284   0.545  0.00  0.00    +0.043 S 
ATOM     12  O   UNL     1       3.876  -4.445   0.944  0.00  0.00    -0.155 OA
ATOM     13  O   UNL     1       1.471  -4.370   1.497  0.00  0.00    -0.155 OA
ATOM     14  C   UNL     1       2.160  -5.345  -0.882  0.00  0.00    +0.218 C 
ENDBRANCH   1  11
BRANCH   1  15
ATOM     15  C   UNL     1       3.632  -2.092  -0.586  0.00  0.00    +0.227 C 
BRANCH  15  17
ATOM     16  N   UNL     1       5.413  -0.575   0.215  0.00  0.00    -0.284 N 
ATOM     17  C   UNL     1       4.288  -1.264   0.489  0.00  0.00    +0.236 C 
ATOM     18  O   UNL     1       3.803  -1.217   1.599  0.00  0.00    -0.274 OA
ATOM     19  H   UNL     1       5.846  -0.674  -0.647  0.00  0.00    +0.155 HD
BRANCH  16  25
ATOM     20  C   UNL     1       4.808   2.272   4.177  0.00  0.00    +0.044 C 
ATOM     21  C   UNL     1       5.688   1.679   3.108  0.00  0.00    -0.049 A 
ATOM     22  C   UNL     1       7.036   1.984   3.075  0.00  0.00    +0.004 A 
ATOM     23  C   UNL     1       7.847   1.442   2.095  0.00  0.00    +0.005 A 
ATOM     24  C   UNL     1       7.312   0.593   1.145  0.00  0.00    -0.029 A 
ATOM     25  C   UNL     1       5.958   0.285   1.176  0.00  0.00    +0.037 A 
ATOM     26  C   UNL     1       5.146   0.835   2.158  0.00  0.00    +0.027 A 
ATOM     27  C   UNL     1       8.196   0.003   0.077  0.00  0.00    +0.045 C 
ENDBRANCH  16  25
ENDBRANCH  15  17
ENDBRANCH   1  15
TORSDOF 6
