REMARK  Name = ZINC52539186
REMARK  5 active torsions:
REMARK  status: ('A' for Active; 'I' for Inactive)
REMARK    1  A    between atoms: N_11  and  C_12
REMARK    2  A    between atoms: C_12  and  C_13
REMARK    3  A    between atoms: N_15  and  N_16
REMARK    4  A    between atoms: C_17  and  C_19
REMARK    5  A    between atoms: C_24  and  O_25
REMARK                            x       y       z     vdW  Elec       q    Type
REMARK                         _______ _______ _______ _____ _____    ______ ____
ROOT
ATOM      1  C   UNL     1       5.317   0.374   1.372  0.00  0.00    +0.251 C 
ATOM      2  O   UNL     1       4.652  -0.037   2.299  0.00  0.00    -0.272 OA
ATOM      3  N   UNL     1       6.455   1.057   1.611  0.00  0.00    -0.233 N 
ATOM      4  H   UNL     1       6.987   1.386   0.870  0.00  0.00    +0.173 HD
ENDROOT
BRANCH   3   5
ATOM      5  N   UNL     1       6.868   1.292   2.929  0.00  0.00    -0.230 N 
ATOM      6  C   UNL     1       8.005   1.975   3.167  0.00  0.00    +0.264 C 
ATOM      7  O   UNL     1       8.672   2.387   2.238  0.00  0.00    -0.269 OA
ATOM      8  H   UNL     1       6.335   0.963   3.670  0.00  0.00    +0.173 HD
BRANCH   6   9
ATOM      9  C   UNL     1       8.440   2.222   4.554  0.00  0.00    +0.079 A 
ATOM     10  C   UNL     1       7.679   1.746   5.625  0.00  0.00    +0.017 A 
ATOM     11  C   UNL     1       8.091   1.980   6.919  0.00  0.00    +0.001 A 
ATOM     12  C   UNL     1       9.257   2.687   7.164  0.00  0.00    +0.004 A 
ATOM     13  C   UNL     1      10.018   3.164   6.116  0.00  0.00    +0.046 A 
ATOM     14  C   UNL     1       9.622   2.932   4.807  0.00  0.00    +0.129 A 
BRANCH  14  15
ATOM     15  O   UNL     1      10.372   3.394   3.776  0.00  0.00    -0.506 OA
ATOM     16  H   UNL     1      10.134   4.285   3.484  0.00  0.00    +0.292 HD
ENDBRANCH  14  15
ENDBRANCH   6   9
ENDBRANCH   3   5
BRANCH   1  17
ATOM     17  C   UNL     1       4.873   0.121  -0.045  0.00  0.00    +0.241 C 
BRANCH  17  28
ATOM     18  C   UNL     1      -0.017   1.363   0.009  0.00  0.00    +0.001 A 
ATOM     19  C   UNL     1       1.170   2.086   0.002  0.00  0.00    +0.002 A 
ATOM     20  C   UNL     1       2.388   1.444  -0.013  0.00  0.00    +0.028 A 
ATOM     21  C   UNL     1       2.432   0.053  -0.021  0.00  0.00    +0.072 A 
ATOM     22  C   UNL     1       1.224  -0.673  -0.013  0.00  0.00    +0.048 A 
ATOM     23  C   UNL     1       0.002  -0.004   0.002  0.00  0.00    +0.014 A 
ATOM     24  C   UNL     1       1.318  -2.143  -0.021  0.00  0.00    +0.208 A 
ATOM     25  O   UNL     1       0.324  -2.850  -0.016  0.00  0.00    -0.286 OA
ATOM     26  C   UNL     1       2.628  -2.695  -0.037  0.00  0.00    +0.184 A 
ATOM     27  N   UNL     1       3.669  -1.916  -0.043  0.00  0.00    -0.175 NA
ATOM     28  N   UNL     1       3.619  -0.635  -0.036  0.00  0.00    -0.255 N 
ENDBRANCH  17  28
ENDBRANCH   1  17
TORSDOF 5
