REMARK  Name = ZINC47137332
REMARK  9 active torsions:
REMARK  status: ('A' for Active; 'I' for Inactive)
REMARK    1  A    between atoms: C_1  and  O_2
REMARK    2  A    between atoms: O_2  and  C_3
REMARK    3  A    between atoms: C_5  and  C_10
REMARK    4  A    between atoms: C_8  and  O_9
REMARK    5  A    between atoms: N_14  and  C_27
REMARK    6  A    between atoms: N_16  and  N_17
REMARK    7  A    between atoms: C_18  and  C_19
REMARK    8  A    between atoms: C_22  and  O_25
REMARK    9  A    between atoms: C_27  and  C_28
REMARK                            x       y       z     vdW  Elec       q    Type
REMARK                         _______ _______ _______ _____ _____    ______ ____
ROOT
ATOM      1  C   UNL     1      -4.821   0.195  -0.234  0.00  0.00    +0.028 C 
ATOM      2  C   UNL     1      -6.024  -0.435  -0.281  0.00  0.00    +0.078 C 
ATOM      3  C   UNL     1      -7.378   0.140  -0.381  0.00  0.00    +0.259 C 
ATOM      4  O   UNL     1      -7.557   1.343  -0.435  0.00  0.00    -0.269 OA
ATOM      5  N   UNL     1      -8.390  -0.711  -0.409  0.00  0.00    -0.237 N 
ATOM      6  C   UNL     1      -8.168  -2.069  -0.347  0.00  0.00    +0.190 C 
ATOM      7  N   UNL     1      -9.053  -3.046  -0.363  0.00  0.00    -0.126 NA
ATOM      8  S   UNL     1      -6.389  -2.184  -0.246  0.00  0.00    -0.047 S 
ENDROOT
BRANCH   1  11
ATOM      9  C   UNL     1      -1.202  -0.690   0.193  0.00  0.00    +0.162 A 
ATOM     10  C   UNL     1      -2.346   0.037  -0.074  0.00  0.00    +0.057 A 
ATOM     11  C   UNL     1      -3.601  -0.571   0.048  0.00  0.00    -0.020 A 
ATOM     12  C   UNL     1      -3.689  -1.913   0.440  0.00  0.00    +0.012 A 
ATOM     13  C   UNL     1      -2.542  -2.629   0.704  0.00  0.00    +0.050 A 
ATOM     14  C   UNL     1      -1.298  -2.026   0.577  0.00  0.00    +0.158 A 
BRANCH   9  16
ATOM     15  C   UNL     1       0.043   1.270  -0.323  0.00  0.00    +0.277 C 
ATOM     16  O   UNL     1       0.019  -0.102   0.075  0.00  0.00    -0.491 OA
ENDBRANCH   9  16
BRANCH  14  17
ATOM     17  O   UNL     1      -0.171  -2.740   0.834  0.00  0.00    -0.503 OA
ATOM     18  H   UNL     1       0.118  -2.700   1.756  0.00  0.00    +0.292 HD
ENDBRANCH  14  17
ENDBRANCH   1  11
BRANCH   7  19
ATOM     19  N   UNL     1     -10.311  -2.775  -0.447  0.00  0.00    -0.155 NA
ATOM     20  C   UNL     1     -11.188  -3.744  -0.463  0.00  0.00    +0.143 C 
BRANCH  20  21
ATOM     21  C   UNL     1     -10.747  -5.138  -0.307  0.00  0.00    -0.005 A 
ATOM     22  C   UNL     1     -11.688  -6.173  -0.279  0.00  0.00    +0.013 A 
ATOM     23  C   UNL     1     -11.269  -7.477  -0.133  0.00  0.00    +0.046 A 
ATOM     24  C   UNL     1      -9.915  -7.766  -0.014  0.00  0.00    +0.117 A 
ATOM     25  C   UNL     1      -8.977  -6.742  -0.041  0.00  0.00    +0.046 A 
ATOM     26  C   UNL     1      -9.384  -5.434  -0.193  0.00  0.00    +0.013 A 
BRANCH  24  27
ATOM     27  O   UNL     1      -9.508  -9.054   0.130  0.00  0.00    -0.507 OA
ATOM     28  H   UNL     1      -9.329  -9.506  -0.706  0.00  0.00    +0.292 HD
ENDBRANCH  24  27
ENDBRANCH  20  21
ENDBRANCH   7  19
BRANCH   5  29
ATOM     29  C   UNL     1      -9.761  -0.204  -0.507  0.00  0.00    +0.190 C 
BRANCH  29  30
ATOM     30  C   UNL     1     -10.149  -0.082  -1.958  0.00  0.00    +0.123 A 
ATOM     31  C   UNL     1     -10.735  -1.039  -2.700  0.00  0.00    +0.046 A 
ATOM     32  C   UNL     1     -10.917  -0.500  -3.994  0.00  0.00    +0.041 A 
ATOM     33  C   UNL     1     -10.432   0.754  -3.967  0.00  0.00    +0.195 A 
ATOM     34  O   UNL     1      -9.973   1.004  -2.729  0.00  0.00    -0.466 OA
ENDBRANCH  29  30
ENDBRANCH   5  29
TORSDOF 8
