REMARK  Name = ZINC15019096
REMARK  9 active torsions:
REMARK  status: ('A' for Active; 'I' for Inactive)
REMARK    1  A    between atoms: C_1  and  C_2
REMARK    2  A    between atoms: C_3  and  C_32
REMARK    3  A    between atoms: C_8  and  C_10
REMARK    4  A    between atoms: C_10  and  S_11
REMARK    5  A    between atoms: S_11  and  C_12
REMARK    6  A    between atoms: C_15  and  C_18
REMARK    7  A    between atoms: N_16  and  C_17
REMARK    8  A    between atoms: C_18  and  C_20
REMARK    9  A    between atoms: C_18  and  N_21
REMARK                            x       y       z     vdW  Elec       q    Type
REMARK                         _______ _______ _______ _____ _____    ______ ____
ROOT
ATOM      1  C   UNL     1       2.183  -1.310  -2.615  0.00  0.00    +0.192 A 
ATOM      2  N   UNL     1       1.093  -0.974  -3.267  0.00  0.00    -0.122 NA
ATOM      3  N   UNL     1       0.225  -0.496  -2.448  0.00  0.00    -0.132 NA
ATOM      4  C   UNL     1       0.707  -0.490  -1.238  0.00  0.00    +0.155 A 
ATOM      5  N   UNL     1       1.970  -1.012  -1.300  0.00  0.00    -0.308 N 
ATOM      6  C   UNL     1       2.901  -1.209  -0.187  0.00  0.00    +0.152 C 
ENDROOT
BRANCH   4   7
ATOM      7  C   UNL     1       0.002  -0.004   0.002  0.00  0.00    +0.146 C 
ATOM      8  C   UNL     1      -0.019   1.526   0.010  0.00  0.00    +0.037 C 
BRANCH   7   9
ATOM      9  N   UNL     1      -1.372  -0.511   0.012  0.00  0.00    -0.255 N 
ATOM     10  C   UNL     1      -1.821  -1.330   1.058  0.00  0.00    +0.079 A 
ATOM     11  C   UNL     1      -1.108  -1.420   2.243  0.00  0.00    +0.027 A 
ATOM     12  C   UNL     1      -1.568  -2.234   3.262  0.00  0.00    +0.002 A 
ATOM     13  C   UNL     1      -2.736  -2.957   3.101  0.00  0.00    +0.004 A 
ATOM     14  C   UNL     1      -3.452  -2.871   1.921  0.00  0.00    +0.047 A 
ATOM     15  C   UNL     1      -2.998  -2.058   0.897  0.00  0.00    +0.143 A 
ATOM     16  O   UNL     1      -3.691  -1.960  -0.269  0.00  0.00    -0.481 OA
ATOM     17  C   UNL     1      -3.648  -0.697  -0.938  0.00  0.00    +0.325 C 
ATOM     18  C   UNL     1      -2.228  -0.193  -0.983  0.00  0.00    +0.258 C 
ATOM     19  O   UNL     1      -1.855   0.493  -1.911  0.00  0.00    -0.271 OA
ENDBRANCH   7   9
ENDBRANCH   4   7
BRANCH   1  20
ATOM     20  S   UNL     1       3.642  -2.013  -3.308  0.00  0.00    -0.077 S 
BRANCH  20  21
ATOM     21  C   UNL     1       3.155  -2.097  -5.049  0.00  0.00    +0.173 C 
BRANCH  21  29
ATOM     22  C   UNL     1       8.735  -5.053  -9.372  0.00  0.00    +0.054 C 
ATOM     23  C   UNL     1       7.404  -4.454  -8.995  0.00  0.00    +0.016 A 
ATOM     24  C   UNL     1       6.331  -4.148  -9.784  0.00  0.00    +0.083 A 
ATOM     25  N   UNL     1       5.248  -3.621  -9.232  0.00  0.00    -0.224 NA
ATOM     26  C   UNL     1       5.185  -3.386  -7.935  0.00  0.00    +0.165 A 
ATOM     27  S   UNL     1       6.795  -3.942  -7.394  0.00  0.00    -0.057 S 
ATOM     28  N   UNL     1       4.146  -2.844  -7.189  0.00  0.00    -0.264 N 
ATOM     29  C   UNL     1       4.283  -2.685  -5.858  0.00  0.00    +0.229 C 
ATOM     30  O   UNL     1       5.314  -3.014  -5.311  0.00  0.00    -0.275 OA
ATOM     31  H   UNL     1       3.321  -2.581  -7.627  0.00  0.00    +0.157 HD
BRANCH  24  32
ATOM     32  C   UNL     1       6.378  -4.402 -11.245  0.00  0.00    +0.001 A 
ATOM     33  C   UNL     1       7.572  -4.238 -11.945  0.00  0.00    +0.010 A 
ATOM     34  C   UNL     1       7.612  -4.482 -13.303  0.00  0.00    +0.001 A 
ATOM     35  C   UNL     1       6.467  -4.877 -13.971  0.00  0.00    +0.000 A 
ATOM     36  C   UNL     1       5.278  -5.036 -13.282  0.00  0.00    +0.001 A 
ATOM     37  C   UNL     1       5.228  -4.801 -11.923  0.00  0.00    +0.010 A 
ENDBRANCH  24  32
ENDBRANCH  21  29
ENDBRANCH  20  21
ENDBRANCH   1  20
TORSDOF 6
