REMARK  Name = ZINC02778931
REMARK  9 active torsions:
REMARK  status: ('A' for Active; 'I' for Inactive)
REMARK    1  A    between atoms: C_1  and  C_2
REMARK    2  A    between atoms: C_2  and  N_3
REMARK    3  A    between atoms: C_4  and  C_8
REMARK    4  A    between atoms: N_10  and  N_11
REMARK    5  A    between atoms: C_12  and  C_30
REMARK    6  A    between atoms: C_22  and  C_26
REMARK    7  A    between atoms: C_26  and  C_27
REMARK    8  A    between atoms: C_26  and  C_28
REMARK    9  A    between atoms: C_26  and  C_29
REMARK                            x       y       z     vdW  Elec       q    Type
REMARK                         _______ _______ _______ _____ _____    ______ ____
ROOT
ATOM      1  N   UNL     1       4.505  -3.740  -5.748  0.00  0.00    -0.209 N 
ATOM      2  C   UNL     1       5.610  -2.977  -5.930  0.00  0.00    +0.129 A 
ATOM      3  N   UNL     1       5.837  -1.873  -5.254  0.00  0.00    -0.225 NA
ATOM      4  C   UNL     1       4.927  -1.506  -4.357  0.00  0.00    +0.116 A 
ATOM      5  C   UNL     1       3.744  -2.232  -4.095  0.00  0.00    +0.077 A 
ATOM      6  C   UNL     1       3.534  -3.433  -4.854  0.00  0.00    +0.280 A 
ATOM      7  O   UNL     1       2.546  -4.130  -4.705  0.00  0.00    -0.265 OA
ATOM      8  C   UNL     1       2.865  -1.681  -3.079  0.00  0.00    -0.023 A 
ATOM      9  C   UNL     1       3.267  -0.531  -2.488  0.00  0.00    -0.004 A 
ATOM     10  S   UNL     1       4.820  -0.135  -3.251  0.00  0.00    -0.073 S 
ATOM     11  C   UNL     1       2.552   0.238  -1.421  0.00  0.00    +0.046 C 
ATOM     12  C   UNL     1       1.104  -0.268  -1.344  0.00  0.00    -0.000 C 
ATOM     13  C   UNL     1       1.117  -1.799  -1.315  0.00  0.00    +0.009 C 
ATOM     14  C   UNL     1       1.549  -2.341  -2.676  0.00  0.00    +0.037 C 
ATOM     15  C   UNL     1       6.625  -3.416  -6.954  0.00  0.00    +0.088 C 
ENDROOT
BRANCH   1  18
ATOM     16  C   UNL     1       3.485  -4.920  -7.546  0.00  0.00    +0.280 C 
ATOM     17  O   UNL     1       2.766  -3.961  -7.752  0.00  0.00    -0.267 OA
ATOM     18  N   UNL     1       4.359  -4.899  -6.520  0.00  0.00    -0.213 N 
ATOM     19  H   UNL     1       4.886  -5.687  -6.316  0.00  0.00    +0.176 HD
BRANCH  16  21
ATOM     20  N   UNL     1       2.647  -6.237  -9.548  0.00  0.00    -0.259 N 
ATOM     21  C   UNL     1       3.401  -6.103  -8.417  0.00  0.00    +0.125 A 
ATOM     22  C   UNL     1       4.075  -7.301  -8.258  0.00  0.00    +0.054 A 
ATOM     23  C   UNL     1       3.664  -8.102  -9.326  0.00  0.00    +0.135 A 
ATOM     24  N   UNL     1       2.823  -7.406 -10.049  0.00  0.00    -0.179 NA
BRANCH  20  26
ATOM     25  C   UNL     1       2.548  -4.372 -11.127  0.00  0.00    +0.029 C 
ATOM     26  C   UNL     1       1.770  -5.203 -10.105  0.00  0.00    +0.141 C 
ENDBRANCH  20  26
ENDBRANCH  16  21
ENDBRANCH   1  18
BRANCH  12  27
ATOM     27  C   UNL     1       0.441   0.265  -0.072  0.00  0.00    -0.035 C 
ATOM     28  C   UNL     1       0.438   1.795  -0.101  0.00  0.00    +0.011 C 
ATOM     29  C   UNL     1       1.222  -0.220   1.151  0.00  0.00    +0.011 C 
ATOM     30  C   UNL     1      -0.998  -0.247   0.005  0.00  0.00    +0.011 C 
ENDBRANCH  12  27
TORSDOF 4
