REMARK  Name = ZINC09741892
REMARK  9 active torsions:
REMARK  status: ('A' for Active; 'I' for Inactive)
REMARK    1  A    between atoms: C_1  and  C_2
REMARK    2  A    between atoms: C_2  and  C_4
REMARK    3  A    between atoms: C_4  and  C_6
REMARK    4  A    between atoms: C_4  and  N_13
REMARK    5  A    between atoms: C_6  and  C_7
REMARK    6  A    between atoms: C_14  and  C_16
REMARK    7  A    between atoms: C_16  and  N_17
REMARK    8  A    between atoms: C_20  and  C_24
REMARK    9  A    between atoms: C_20  and  C_25
REMARK                            x       y       z     vdW  Elec       q    Type
REMARK                         _______ _______ _______ _____ _____    ______ ____
ROOT
ATOM      1  N   UNL     1      -0.973   5.329  -3.708  0.00  0.00    -0.215 N 
ATOM      2  C   UNL     1      -2.099   5.524  -4.423  0.00  0.00    +0.254 C 
ATOM      3  O   UNL     1      -3.219   5.698  -3.993  0.00  0.00    -0.272 OA
ATOM      4  C   UNL     1      -1.673   5.479  -5.878  0.00  0.00    +0.168 C 
ATOM      5  N   UNL     1      -0.221   5.242  -5.807  0.00  0.00    -0.279 N 
ATOM      6  C   UNL     1       0.094   5.174  -4.501  0.00  0.00    +0.310 C 
ATOM      7  O   UNL     1       1.222   4.989  -4.087  0.00  0.00    -0.252 OA
ATOM      8  C   UNL     1      -1.971   6.812  -6.567  0.00  0.00    +0.050 C 
ATOM      9  H   UNL     1       0.389   5.155  -6.556  0.00  0.00    +0.152 HD
ENDROOT
BRANCH   4  10
ATOM     10  C   UNL     1      -2.361   4.347  -6.596  0.00  0.00    +0.138 A 
ATOM     11  C   UNL     1      -1.850   3.677  -7.639  0.00  0.00    +0.056 A 
ATOM     12  C   UNL     1      -2.853   2.671  -8.010  0.00  0.00    +0.020 A 
ATOM     13  C   UNL     1      -2.925   1.682  -8.989  0.00  0.00    +0.011 A 
ATOM     14  C   UNL     1      -4.037   0.890  -9.073  0.00  0.00    +0.001 A 
ATOM     15  C   UNL     1      -5.092   1.067  -8.190  0.00  0.00    +0.004 A 
ATOM     16  C   UNL     1      -5.039   2.040  -7.215  0.00  0.00    +0.047 A 
ATOM     17  C   UNL     1      -3.918   2.855  -7.113  0.00  0.00    +0.135 A 
ATOM     18  O   UNL     1      -3.578   3.866  -6.289  0.00  0.00    -0.457 OA
ENDBRANCH   4  10
BRANCH   1  19
ATOM     19  C   UNL     1      -0.923   5.297  -2.245  0.00  0.00    +0.213 C 
BRANCH  19  21
ATOM     20  N   UNL     1      -1.128   3.612  -0.445  0.00  0.00    -0.304 N 
ATOM     21  C   UNL     1      -1.134   3.884  -1.765  0.00  0.00    +0.232 C 
ATOM     22  O   UNL     1      -1.309   2.991  -2.568  0.00  0.00    -0.274 OA
ATOM     23  H   UNL     1      -0.988   4.326   0.196  0.00  0.00    +0.149 HD
BRANCH  20  24
ATOM     24  C   UNL     1      -1.333   2.239   0.021  0.00  0.00    +0.143 C 
BRANCH  24  26
ATOM     25  C   UNL     1       0.002  -0.004   0.002  0.00  0.00    +0.088 C 
ATOM     26  C   UNL     1      -0.018   1.503   0.010  0.00  0.00    +0.151 C 
ATOM     27  O   UNL     1       1.019   2.121   0.004  0.00  0.00    -0.296 OA
ENDBRANCH  24  26
BRANCH  24  28
ATOM     28  C   UNL     1      -1.894   2.261   1.444  0.00  0.00    +0.065 C 
BRANCH  28  29
ATOM     29  C   UNL     1      -3.265   2.888   1.434  0.00  0.00    -0.045 A 
ATOM     30  C   UNL     1      -3.402   4.252   1.612  0.00  0.00    +0.004 A 
ATOM     31  C   UNL     1      -4.659   4.827   1.597  0.00  0.00    +0.000 A 
ATOM     32  C   UNL     1      -5.779   4.037   1.417  0.00  0.00    +0.000 A 
ATOM     33  C   UNL     1      -5.642   2.672   1.245  0.00  0.00    +0.000 A 
ATOM     34  C   UNL     1      -4.385   2.098   1.253  0.00  0.00    +0.004 A 
ENDBRANCH  28  29
ENDBRANCH  24  28
ENDBRANCH  20  24
ENDBRANCH  19  21
ENDBRANCH   1  19
TORSDOF 7
