REMARK  Name = ZINC63407951
REMARK  5 active torsions:
REMARK  status: ('A' for Active; 'I' for Inactive)
REMARK    1  A    between atoms: C_4  and  C_6
REMARK    2  A    between atoms: C_6  and  N_7
REMARK    3  A    between atoms: C_10  and  N_13
REMARK    4  A    between atoms: N_16  and  N_17
REMARK    5  A    between atoms: C_18  and  C_20
REMARK                            x       y       z     vdW  Elec       q    Type
REMARK                         _______ _______ _______ _____ _____    ______ ____
ROOT
ATOM      1  N   UNL     1      -0.296  -6.646  -1.109  0.00  0.00    -0.296 N 
ATOM      2  C   UNL     1      -0.297  -7.725  -1.917  0.00  0.00    +0.316 C 
ATOM      3  O   UNL     1       0.283  -7.686  -2.985  0.00  0.00    -0.251 OA
ATOM      4  N   UNL     1      -0.942  -8.848  -1.541  0.00  0.00    -0.218 N 
ATOM      5  H   UNL     1      -0.759  -6.677  -0.258  0.00  0.00    +0.151 HD
ATOM      6  H   UNL     1      -0.943  -9.624  -2.122  0.00  0.00    +0.174 HD
ENDROOT
BRANCH   1  10
ATOM      7  N   UNL     1       0.517  -2.531  -1.525  0.00  0.00    +0.380 N 
ATOM      8  C   UNL     1       1.459  -3.311  -0.713  0.00  0.00    -0.077 C 
ATOM      9  C   UNL     1       0.799  -4.621  -0.277  0.00  0.00    +0.004 C 
ATOM     10  C   UNL     1       0.405  -5.426  -1.518  0.00  0.00    +0.071 C 
ATOM     11  C   UNL     1      -0.519  -4.575  -2.395  0.00  0.00    +0.004 C 
ATOM     12  C   UNL     1       0.190  -3.267  -2.752  0.00  0.00    -0.077 C 
ATOM     13  H   UNL     1      -0.327  -2.370  -0.996  0.00  0.00    -0.082 HD
BRANCH   7  14
ATOM     14  C   UNL     1       1.127  -1.242  -1.876  0.00  0.00    -0.075 C 
BRANCH  14  18
ATOM     15  C   UNL     1      -0.019   1.538   0.011  0.00  0.00    +0.000 C 
ATOM     16  C   UNL     1       1.477   1.939  -0.002  0.00  0.00    +0.000 C 
ATOM     17  C   UNL     1       2.107   0.881  -0.942  0.00  0.00    +0.002 C 
ATOM     18  C   UNL     1       1.353  -0.422  -0.604  0.00  0.00    -0.028 C 
ATOM     19  C   UNL     1       0.002  -0.004   0.002  0.00  0.00    +0.002 C 
ENDBRANCH  14  18
ENDBRANCH   7  14
ENDBRANCH   1  10
BRANCH   4  20
ATOM     20  N   UNL     1      -1.610  -8.893  -0.310  0.00  0.00    -0.231 N 
ATOM     21  C   UNL     1      -2.254 -10.015   0.066  0.00  0.00    +0.258 C 
ATOM     22  O   UNL     1      -2.256 -10.986  -0.661  0.00  0.00    -0.271 OA
ATOM     23  H   UNL     1      -1.609  -8.116   0.271  0.00  0.00    +0.173 HD
BRANCH  21  24
ATOM     24  C   UNL     1      -2.974 -10.063   1.389  0.00  0.00    +0.205 C 
ATOM     25  C   UNL     1      -1.955  -9.947   2.543  0.00  0.00    +0.043 C 
ATOM     26  C   UNL     1      -2.523 -10.948   3.587  0.00  0.00    +0.031 C 
ATOM     27  C   UNL     1      -3.116 -12.036   2.657  0.00  0.00    +0.161 C 
ATOM     28  O   UNL     1      -3.647 -11.319   1.531  0.00  0.00    -0.367 OA
ENDBRANCH  21  24
ENDBRANCH   4  20
TORSDOF 5
