REMARK  Name = ZINC05635517
REMARK  5 active torsions:
REMARK  status: ('A' for Active; 'I' for Inactive)
REMARK    1  A    between atoms: C_6  and  C_7
REMARK    2  A    between atoms: C_10  and  S_13
REMARK    3  A    between atoms: S_13  and  C_14
REMARK    4  A    between atoms: C_17  and  C_23
REMARK    5  A    between atoms: C_19  and  N_20
REMARK                            x       y       z     vdW  Elec       q    Type
REMARK                         _______ _______ _______ _____ _____    ______ ____
ROOT
ATOM      1  C   UNL     1      -1.249  -0.812   0.475  0.00  0.00    +0.182 A 
ATOM      2  N   UNL     1      -1.369  -2.139   0.332  0.00  0.00    -0.201 NA
ATOM      3  H   UNL     1      -4.331  -1.246   0.238  0.00  0.00    +0.191 HD
ATOM      4  C   UNL     1      -2.639  -2.460   0.220  0.00  0.00    +0.189 A 
ATOM      5  N   UNL     1      -3.365  -1.322   0.291  0.00  0.00    -0.253 N 
ATOM      6  N   UNL     1      -2.447  -0.273   0.461  0.00  0.00    -0.152 NA
ENDROOT
BRANCH   1  12
ATOM      7  C   UNL     1       0.020   1.314   0.773  0.00  0.00    +0.013 A 
ATOM      8  C   UNL     1       1.210   1.997   0.918  0.00  0.00    +0.021 A 
ATOM      9  C   UNL     1       2.410   1.308   0.922  0.00  0.00    +0.041 A 
ATOM     10  C   UNL     1       2.424  -0.070   0.782  0.00  0.00    +0.021 A 
ATOM     11  C   UNL     1       1.239  -0.762   0.637  0.00  0.00    +0.013 A 
ATOM     12  C   UNL     1       0.028  -0.072   0.631  0.00  0.00    +0.021 A 
ATOM     13 CL   UNL     1       3.904   2.173   1.104  0.00  0.00    -0.084 Cl
ENDBRANCH   1  12
BRANCH   4  14
ATOM     14  S   UNL     1      -3.282  -4.087   0.012  0.00  0.00    -0.048 S 
BRANCH  14  15
ATOM     15  C   UNL     1      -1.846  -5.094  -0.158  0.00  0.00    +0.046 A 
ATOM     16  C   UNL     1      -1.413  -5.872   0.915  0.00  0.00    +0.018 A 
ATOM     17  C   UNL     1      -0.301  -6.654   0.788  0.00  0.00    +0.012 A 
ATOM     18  C   UNL     1       0.405  -6.673  -0.423  0.00  0.00    +0.016 A 
ATOM     19  C   UNL     1      -0.034  -5.889  -1.498  0.00  0.00    +0.045 A 
ATOM     20  C   UNL     1      -1.150  -5.115  -1.365  0.00  0.00    +0.141 A 
BRANCH  20  21
ATOM     21  N   UNL     1      -1.619  -4.291  -2.502  0.00  0.00    +0.058 N 
ATOM     22  O   UNL     1      -1.016  -4.309  -3.550  0.00  0.00    -0.126 OA
ATOM     23  O   UNL     1      -2.605  -3.602  -2.383  0.00  0.00    -0.126 OA
ENDBRANCH  20  21
BRANCH  18  24
ATOM     24  C   UNL     1       1.601  -7.511  -0.564  0.00  0.00    +0.258 C 
ATOM     25  O   UNL     1       1.980  -8.189   0.369  0.00  0.00    -0.296 OA
ENDBRANCH  18  24
ENDBRANCH  14  15
ENDBRANCH   4  14
TORSDOF 5
