REMARK  Name = ZINC50708494
REMARK  6 active torsions:
REMARK  status: ('A' for Active; 'I' for Inactive)
REMARK    1  A    between atoms: C_1  and  C_2
REMARK    2  A    between atoms: C_5  and  C_7
REMARK    3  A    between atoms: C_7  and  N_8
REMARK    4  A    between atoms: C_9  and  C_11
REMARK    5  A    between atoms: C_13  and  N_20
REMARK    6  A    between atoms: C_16  and  N_17
REMARK                            x       y       z     vdW  Elec       q    Type
REMARK                         _______ _______ _______ _____ _____    ______ ____
ROOT
ATOM      1  C   UNL     1       3.059  -6.389   1.647  0.00  0.00    +0.069 A 
ATOM      2  C   UNL     1       3.885  -6.508   0.530  0.00  0.00    +0.038 A 
ATOM      3  C   UNL     1       5.250  -6.684   0.698  0.00  0.00    +0.025 A 
ATOM      4  C   UNL     1       5.791  -6.742   1.978  0.00  0.00    +0.025 A 
ATOM      5  C   UNL     1       4.972  -6.624   3.085  0.00  0.00    +0.035 A 
ATOM      6  C   UNL     1       3.613  -6.442   2.928  0.00  0.00    +0.138 A 
ENDROOT
BRANCH   1   8
ATOM      7  N   UNL     1       1.138  -5.184   0.722  0.00  0.00    -0.307 N 
ATOM      8  C   UNL     1       1.603  -6.201   1.476  0.00  0.00    +0.247 C 
ATOM      9  O   UNL     1       0.824  -6.962   2.016  0.00  0.00    -0.270 OA
ATOM     10  H   UNL     1       1.760  -4.577   0.292  0.00  0.00    +0.149 HD
BRANCH   7  11
ATOM     11  C   UNL     1      -0.305  -4.998   0.553  0.00  0.00    +0.148 C 
BRANCH  11  16
ATOM     12  C   UNL     1      -1.244  -0.046  -1.855  0.00  0.00    +0.073 C 
ATOM     13  C   UNL     1      -0.997  -1.473  -1.438  0.00  0.00    +0.075 A 
ATOM     14  N   UNL     1      -0.903  -2.538  -2.195  0.00  0.00    -0.252 NA
ATOM     15  C   UNL     1      -0.682  -3.730  -1.678  0.00  0.00    +0.124 A 
ATOM     16  C   UNL     1      -0.557  -3.801  -0.328  0.00  0.00    +0.027 A 
ATOM     17  S   UNL     1      -0.766  -2.084   0.113  0.00  0.00    -0.076 S 
ENDBRANCH  11  16
ENDBRANCH   7  11
ENDBRANCH   1   8
BRANCH   6  18
ATOM     18  N   UNL     1       2.741  -6.310   4.117  0.00  0.00    +0.057 N 
ATOM     19  O   UNL     1       3.199  -6.479   5.223  0.00  0.00    -0.126 OA
ATOM     20  O   UNL     1       1.572  -6.033   3.982  0.00  0.00    -0.126 OA
ENDBRANCH   6  18
BRANCH   3  21
ATOM     21  N   UNL     1       6.082  -6.805  -0.418  0.00  0.00    -0.358 N 
ATOM     22  H   UNL     1       5.704  -6.765  -1.311  0.00  0.00    +0.142 HD
ATOM     23  H   UNL     1       7.037  -6.928  -0.300  0.00  0.00    +0.142 HD
ENDBRANCH   3  21
TORSDOF 5
