REMARK  Name = ZINC22999902
REMARK  6 active torsions:
REMARK  status: ('A' for Active; 'I' for Inactive)
REMARK    1  A    between atoms: C_3  and  S_10
REMARK    2  A    between atoms: C_6  and  N_7
REMARK    3  A    between atoms: S_10  and  N_13
REMARK    4  A    between atoms: N_13  and  C_14
REMARK    5  A    between atoms: C_14  and  C_15
REMARK    6  A    between atoms: N_18  and  C_21
REMARK                            x       y       z     vdW  Elec       q    Type
REMARK                         _______ _______ _______ _____ _____    ______ ____
ROOT
ATOM      1  N   UNL     1       3.359   1.247   6.324  0.00  0.00    -0.190 NA
ATOM      2  H   UNL     1       2.964   0.221   6.314  0.00  0.00    +0.148 HD
ENDROOT
BRANCH   1   3
ATOM      3  S   UNL     1       4.801   1.552   7.079  0.00  0.00    +0.058 S 
ATOM      4  O   UNL     1       5.359   0.289   7.415  0.00  0.00    -0.153 OA
ATOM      5  O   UNL     1       5.489   2.498   6.272  0.00  0.00    -0.153 OA
BRANCH   3   8
ATOM      6  C   UNL     1       3.936   2.251  10.940  0.00  0.00    +0.034 A 
ATOM      7  C   UNL     1       4.225   1.616   9.746  0.00  0.00    +0.031 A 
ATOM      8  C   UNL     1       4.433   2.361   8.600  0.00  0.00    +0.105 A 
ATOM      9  C   UNL     1       4.356   3.740   8.649  0.00  0.00    +0.031 A 
ATOM     10  C   UNL     1       4.063   4.375   9.842  0.00  0.00    +0.034 A 
ATOM     11  C   UNL     1       3.855   3.630  10.988  0.00  0.00    +0.126 A 
BRANCH  11  12
ATOM     12  N   UNL     1       3.545   4.309  12.266  0.00  0.00    +0.056 N 
ATOM     13  O   UNL     1       3.362   3.653  13.275  0.00  0.00    -0.126 OA
ATOM     14  O   UNL     1       3.474   5.524  12.308  0.00  0.00    -0.126 OA
ENDBRANCH  11  12
ENDBRANCH   3   8
ENDBRANCH   1   3
BRANCH   1  15
ATOM     15  C   UNL     1       2.519   2.359   5.872  0.00  0.00    +0.109 C 
BRANCH  15  16
ATOM     16  C   UNL     1       1.460   1.836   4.900  0.00  0.00    +0.001 C 
ATOM     17  C   UNL     1       0.505   2.972   4.523  0.00  0.00    -0.014 C 
ATOM     18  C   UNL     1      -0.514   2.459   3.504  0.00  0.00    -0.078 C 
ATOM     19  N   UNL     1       0.189   1.970   2.311  0.00  0.00    +0.382 N 
ATOM     20  C   UNL     1       1.076   0.847   2.639  0.00  0.00    -0.078 C 
ATOM     21  C   UNL     1       2.143   1.313   3.633  0.00  0.00    -0.014 C 
ATOM     22  H   UNL     1       0.814   2.791   1.930  0.00  0.00    -0.081 HD
BRANCH  19  23
ATOM     23  C   UNL     1      -0.763   1.597   1.255  0.00  0.00    -0.069 C 
ATOM     24  C   UNL     1      -0.013   1.086   0.008  0.00  0.00    -0.015 C 
ATOM     25  C   UNL     1      -0.784   1.609  -1.216  0.00  0.00    -0.002 C 
ATOM     26  C   UNL     1      -1.978   2.421  -0.670  0.00  0.00    -0.002 C 
ATOM     27  C   UNL     1      -1.531   2.845   0.750  0.00  0.00    -0.015 C 
ENDBRANCH  19  23
ENDBRANCH  15  16
ENDBRANCH   1  15
TORSDOF 6
