REMARK  Name = ZINC35926157
REMARK  14 active torsions:
REMARK  status: ('A' for Active; 'I' for Inactive)
REMARK    1  A    between atoms: C_1  and  C_2
REMARK    2  A    between atoms: C_2  and  N_3
REMARK    3  A    between atoms: C_8  and  C_19
REMARK    4  A    between atoms: N_10  and  C_11
REMARK    5  A    between atoms: C_16  and  O_17
REMARK    6  A    between atoms: O_17  and  C_18
REMARK    7  A    between atoms: C_19  and  N_20
REMARK    8  A    between atoms: N_20  and  C_21
REMARK    9  A    between atoms: C_21  and  C_22
REMARK   10  A    between atoms: C_21  and  C_23
REMARK   11  A    between atoms: N_26  and  C_27
REMARK   12  A    between atoms: C_27  and  C_28
REMARK   13  A    between atoms: C_27  and  C_29
REMARK   14  A    between atoms: C_27  and  C_30
REMARK                            x       y       z     vdW  Elec       q    Type
REMARK                         _______ _______ _______ _____ _____    ______ ____
ROOT
ATOM      1  N   UNL     1      -0.839  -1.756   1.044  0.00  0.00    +0.383 N 
ATOM      2  C   UNL     1      -1.438  -1.434   2.346  0.00  0.00    -0.072 C 
ATOM      3  C   UNL     1      -2.963  -1.329   2.202  0.00  0.00    +0.037 C 
ATOM      4  C   UNL     1      -3.440  -2.564   1.476  0.00  0.00    +0.045 A 
ATOM      5  C   UNL     1      -2.601  -3.391   0.796  0.00  0.00    -0.018 A 
ATOM      6  C   UNL     1      -3.362  -4.423   0.256  0.00  0.00    +0.082 A 
ATOM      7  N   UNL     1      -4.615  -4.226   0.596  0.00  0.00    -0.169 NA
ATOM      8  N   UNL     1      -4.684  -3.055   1.366  0.00  0.00    -0.233 N 
ATOM      9  C   UNL     1      -1.116  -3.157   0.687  0.00  0.00    -0.039 C 
ATOM     10  H   UNL     1      -1.229  -1.148   0.340  0.00  0.00    -0.081 HD
ENDROOT
BRANCH   8  11
ATOM     11  C   UNL     1      -5.846  -2.497   1.921  0.00  0.00    +0.107 A 
ATOM     12  C   UNL     1      -6.111  -1.145   1.766  0.00  0.00    +0.031 A 
ATOM     13  C   UNL     1      -7.255  -0.598   2.313  0.00  0.00    +0.002 A 
ATOM     14  C   UNL     1      -8.139  -1.396   3.017  0.00  0.00    +0.004 A 
ATOM     15  C   UNL     1      -7.882  -2.744   3.176  0.00  0.00    +0.048 A 
ATOM     16  C   UNL     1      -6.739  -3.302   2.625  0.00  0.00    +0.145 A 
BRANCH  16  17
ATOM     17  O   UNL     1      -6.487  -4.629   2.775  0.00  0.00    -0.493 OA
ATOM     18  C   UNL     1      -7.447  -5.392   3.509  0.00  0.00    +0.277 C 
ENDBRANCH  16  17
ENDBRANCH   8  11
BRANCH   1  20
ATOM     19  C   UNL     1       0.908  -0.069   1.361  0.00  0.00    -0.017 C 
ATOM     20  C   UNL     1       0.614  -1.550   1.113  0.00  0.00    -0.082 C 
ENDBRANCH   1  20
BRANCH   6  21
ATOM     21  C   UNL     1      -2.840  -5.567  -0.574  0.00  0.00    +0.167 C 
BRANCH  21  22
ATOM     22  N   UNL     1      -2.475  -6.681   0.305  0.00  0.00    -0.277 N 
ATOM     23  C   UNL     1      -1.225  -6.766   0.802  0.00  0.00    +0.303 C 
ATOM     24  O   UNL     1      -0.426  -5.874   0.594  0.00  0.00    -0.253 OA
ATOM     25  N   UNL     1      -0.861  -7.841   1.529  0.00  0.00    -0.294 N 
ATOM     26  H   UNL     1      -1.474  -8.586   1.635  0.00  0.00    +0.151 HD
BRANCH  25  27
ATOM     27  C   UNL     1       0.461  -7.886   2.159  0.00  0.00    +0.028 C 
ATOM     28  C   UNL     1       0.600  -6.715   3.135  0.00  0.00    +0.031 C 
ATOM     29  C   UNL     1       0.620  -9.204   2.918  0.00  0.00    +0.031 C 
ATOM     30  C   UNL     1       1.543  -7.784   1.082  0.00  0.00    +0.031 C 
ENDBRANCH  25  27
BRANCH  22  31
ATOM     31  C   UNL     1      -3.469  -7.702   0.643  0.00  0.00    +0.072 C 
ATOM     32  C   UNL     1      -4.710  -7.030   1.234  0.00  0.00    +0.028 C 
ATOM     33  C   UNL     1      -3.859  -8.473  -0.620  0.00  0.00    +0.028 C 
ENDBRANCH  22  31
ENDBRANCH  21  22
ENDBRANCH   6  21
TORSDOF 7
