REMARK  Name = ZINC50674821
REMARK  6 active torsions:
REMARK  status: ('A' for Active; 'I' for Inactive)
REMARK    1  A    between atoms: C_3  and  N_22
REMARK    2  A    between atoms: C_4  and  S_10
REMARK    3  A    between atoms: C_6  and  N_7
REMARK    4  A    between atoms: S_10  and  N_13
REMARK    5  A    between atoms: C_18  and  C_20
REMARK    6  A    between atoms: C_20  and  O_21
REMARK                            x       y       z     vdW  Elec       q    Type
REMARK                         _______ _______ _______ _____ _____    ______ ____
ROOT
ATOM      1  C   UNL     1       7.224  -2.526   2.740  0.00  0.00    +0.034 A 
ATOM      2  C   UNL     1       6.838  -3.257   1.633  0.00  0.00    +0.027 A 
ATOM      3  C   UNL     1       5.853  -2.766   0.787  0.00  0.00    +0.051 A 
ATOM      4  C   UNL     1       5.259  -1.539   1.057  0.00  0.00    +0.128 A 
ATOM      5  C   UNL     1       5.650  -0.813   2.164  0.00  0.00    +0.063 A 
ATOM      6  C   UNL     1       6.631  -1.306   3.005  0.00  0.00    +0.128 A 
ENDROOT
BRANCH   6   7
ATOM      7  N   UNL     1       7.047  -0.525   4.191  0.00  0.00    +0.056 N 
ATOM      8  O   UNL     1       7.905  -0.954   4.927  0.00  0.00    -0.126 OA
ATOM      9  O   UNL     1       6.529   0.542   4.425  0.00  0.00    -0.126 OA
ENDBRANCH   6   7
BRANCH   4  10
ATOM     10  S   UNL     1       4.009  -0.910  -0.014  0.00  0.00    +0.063 S 
ATOM     11  O   UNL     1       3.057  -1.952  -0.182  0.00  0.00    -0.153 OA
ATOM     12  O   UNL     1       3.654   0.372   0.485  0.00  0.00    -0.153 OA
BRANCH  10  13
ATOM     13  N   UNL     1       4.709  -0.665  -1.494  0.00  0.00    -0.171 NA
ATOM     14  C   UNL     1       4.330  -1.493  -2.648  0.00  0.00    +0.110 C 
ATOM     15  C   UNL     1       3.918  -0.572  -3.800  0.00  0.00    +0.017 C 
ATOM     16  C   UNL     1       5.046   0.422  -4.084  0.00  0.00    +0.003 C 
ATOM     17  C   UNL     1       5.293   1.283  -2.842  0.00  0.00    +0.023 C 
ATOM     18  C   UNL     1       5.718   0.387  -1.681  0.00  0.00    +0.105 C 
BRANCH  18  19
ATOM     19  C   UNL     1       5.827   1.224  -0.404  0.00  0.00    +0.176 C 
BRANCH  19  20
ATOM     20  O   UNL     1       4.665   2.044  -0.271  0.00  0.00    -0.393 OA
ATOM     21  H   UNL     1       4.700   2.659   0.474  0.00  0.00    +0.209 HD
ENDBRANCH  19  20
ENDBRANCH  18  19
ENDBRANCH  10  13
ENDBRANCH   4  10
BRANCH   3  22
ATOM     22  N   UNL     1       5.461  -3.502  -0.333  0.00  0.00    -0.356 N 
ATOM     23  H   UNL     1       5.926  -4.322  -0.562  0.00  0.00    +0.142 HD
ATOM     24  H   UNL     1       4.723  -3.194  -0.882  0.00  0.00    +0.142 HD
ENDBRANCH   3  22
TORSDOF 6
