REMARK  Name = ZINC09617242
REMARK  8 active torsions:
REMARK  status: ('A' for Active; 'I' for Inactive)
REMARK    1  A    between atoms: C_1  and  C_2
REMARK    2  A    between atoms: C_2  and  C_3
REMARK    3  A    between atoms: C_10  and  C_12
REMARK    4  A    between atoms: C_12  and  N_13
REMARK    5  A    between atoms: N_22  and  C_25
REMARK    6  A    between atoms: C_25  and  C_26
REMARK    7  A    between atoms: C_29  and  C_32
REMARK    8  A    between atoms: N_34  and  C_35
REMARK                            x       y       z     vdW  Elec       q    Type
REMARK                         _______ _______ _______ _____ _____    ______ ____
ROOT
ATOM      1  N   UNL     1       2.121   3.853  -3.070  0.00  0.00    -0.284 N 
ATOM      2  C   UNL     1       2.763   3.204  -4.115  0.00  0.00    +0.059 A 
ATOM      3  C   UNL     1       2.631   1.838  -4.311  0.00  0.00    +0.027 A 
ATOM      4  C   UNL     1       3.287   1.230  -5.363  0.00  0.00    +0.002 A 
ATOM      5  C   UNL     1       4.077   1.973  -6.227  0.00  0.00    +0.001 A 
ATOM      6  C   UNL     1       4.219   3.333  -6.048  0.00  0.00    +0.015 A 
ATOM      7  C   UNL     1       3.564   3.958  -4.990  0.00  0.00    +0.063 A 
ATOM      8  C   UNL     1       3.682   5.408  -4.753  0.00  0.00    +0.264 A 
ATOM      9  O   UNL     1       4.362   6.106  -5.480  0.00  0.00    -0.267 OA
ATOM     10  N   UNL     1       3.016   5.941  -3.706  0.00  0.00    -0.260 N 
ATOM     11  C   UNL     1       2.259   5.180  -2.901  0.00  0.00    +0.333 A 
ATOM     12  O   UNL     1       1.676   5.712  -1.976  0.00  0.00    -0.246 OA
ENDROOT
BRANCH   1  13
ATOM     13  C   UNL     1       1.282   3.087  -2.146  0.00  0.00    +0.222 C 
BRANCH  13  20
ATOM     14  C   UNL     1       2.333   1.470   1.169  0.00  0.00    +0.076 C 
ATOM     15  C   UNL     1       2.237  -0.049   1.341  0.00  0.00    +0.022 C 
ATOM     16  C   UNL     1       0.764  -0.460   1.392  0.00  0.00    +0.003 C 
ATOM     17  C   UNL     1       0.080  -0.078   0.077  0.00  0.00    +0.019 C 
ATOM     18  C   UNL     1       0.152   1.440  -0.109  0.00  0.00    +0.108 C 
ATOM     19  N   UNL     1       1.556   1.863  -0.015  0.00  0.00    -0.297 N 
ATOM     20  C   UNL     1       2.120   2.595  -0.995  0.00  0.00    +0.236 C 
ATOM     21  O   UNL     1       3.303   2.859  -0.951  0.00  0.00    -0.274 OA
BRANCH  14  23
ATOM     22  C   UNL     1       4.597   1.485   2.227  0.00  0.00    +0.006 C 
ATOM     23  C   UNL     1       3.797   1.874   0.982  0.00  0.00    +0.019 C 
ENDBRANCH  14  23
ENDBRANCH  13  20
ENDBRANCH   1  13
BRANCH  10  24
ATOM     24  C   UNL     1       3.117   7.380  -3.448  0.00  0.00    +0.133 C 
BRANCH  24  25
ATOM     25  C   UNL     1       2.007   8.113  -4.205  0.00  0.00    +0.009 C 
ATOM     26  C   UNL     1       2.228   7.955  -5.711  0.00  0.00    +0.006 C 
ATOM     27  C   UNL     1       1.119   8.688  -6.468  0.00  0.00    +0.013 C 
ATOM     28  C   UNL     1       1.146  10.174  -6.101  0.00  0.00    +0.075 C 
ATOM     29  C   UNL     1       0.926  10.331  -4.596  0.00  0.00    +0.013 C 
ATOM     30  C   UNL     1       2.035   9.598  -3.838  0.00  0.00    +0.006 C 
BRANCH  28  31
ATOM     31  C   UNL     1       2.483  10.759  -6.478  0.00  0.00    +0.216 C 
ATOM     32  O   UNL     1       3.190  11.254  -5.625  0.00  0.00    -0.276 OA
ATOM     33  N   UNL     1       2.893  10.733  -7.761  0.00  0.00    -0.312 N 
ATOM     34  H   UNL     1       2.328  10.337  -8.443  0.00  0.00    +0.149 HD
BRANCH  33  35
ATOM     35  C   UNL     1       4.192  11.302  -8.127  0.00  0.00    +0.073 C 
ATOM     36  C   UNL     1       4.046  12.811  -8.415  0.00  0.00    +0.022 C 
ATOM     37  C   UNL     1       5.017  13.067  -9.595  0.00  0.00    +0.002 C 
ATOM     38  C   UNL     1       4.853  11.791 -10.457  0.00  0.00    +0.002 C 
ATOM     39  C   UNL     1       4.705  10.654  -9.425  0.00  0.00    +0.022 C 
ENDBRANCH  33  35
ENDBRANCH  28  31
ENDBRANCH  24  25
ENDBRANCH  10  24
TORSDOF 7
