REMARK  Name = ZINC39990098
REMARK  10 active torsions:
REMARK  status: ('A' for Active; 'I' for Inactive)
REMARK    1  A    between atoms: C_1  and  C_2
REMARK    2  A    between atoms: C_2  and  C_3
REMARK    3  A    between atoms: C_3  and  N_4
REMARK    4  A    between atoms: C_5  and  N_30
REMARK    5  A    between atoms: C_6  and  C_14
REMARK    6  A    between atoms: C_7  and  C_13
REMARK    7  A    between atoms: C_8  and  C_11
REMARK    8  A    between atoms: N_18  and  C_22
REMARK    9  A    between atoms: C_22  and  C_23
REMARK   10  A    between atoms: C_34  and  C_37
REMARK                            x       y       z     vdW  Elec       q    Type
REMARK                         _______ _______ _______ _____ _____    ______ ____
ROOT
ATOM      1  N   UNL     1      -1.241  -2.215   0.381  0.00  0.00    -0.295 N 
ATOM      2  C   UNL     1      -1.331  -2.753  -0.863  0.00  0.00    +0.112 A 
ATOM      3  C   UNL     1      -1.732  -4.088  -1.036  0.00  0.00    +0.019 A 
ATOM      4  C   UNL     1      -2.042  -4.868   0.092  0.00  0.00    -0.017 A 
ATOM      5  C   UNL     1      -1.941  -4.293   1.355  0.00  0.00    +0.120 A 
ATOM      6  C   UNL     1      -1.526  -2.943   1.476  0.00  0.00    +0.270 A 
ATOM      7  O   UNL     1      -1.431  -2.436   2.580  0.00  0.00    -0.266 OA
ATOM      8  C   UNL     1      -2.476  -6.303  -0.065  0.00  0.00    +0.046 C 
ENDROOT
BRANCH   3   9
ATOM      9  C   UNL     1      -1.829  -4.662  -2.379  0.00  0.00    +0.032 C 
ATOM     10  C   UNL     1      -0.999  -5.676  -2.747  0.00  0.00    +0.077 C 
ATOM     11  C   UNL     1      -0.950  -6.412  -3.970  0.00  0.00    +0.259 C 
ATOM     12  O   UNL     1      -1.724  -6.170  -4.879  0.00  0.00    -0.269 OA
ATOM     13  N   UNL     1      -0.040  -7.363  -4.086  0.00  0.00    -0.251 N 
ATOM     14  C   UNL     1       0.818  -7.631  -3.077  0.00  0.00    +0.121 C 
ATOM     15  S   UNL     1       2.062  -8.805  -3.011  0.00  0.00    -0.027 S 
ATOM     16  S   UNL     1       0.330  -6.446  -1.833  0.00  0.00    -0.061 S 
BRANCH  13  17
ATOM     17  C   UNL     1       0.040  -8.138  -5.327  0.00  0.00    +0.150 C 
BRANCH  17  18
ATOM     18  C   UNL     1       0.986  -7.459  -6.283  0.00  0.00    -0.029 A 
ATOM     19  C   UNL     1       0.510  -6.512  -7.171  0.00  0.00    +0.008 A 
ATOM     20  C   UNL     1       1.377  -5.889  -8.048  0.00  0.00    +0.038 A 
ATOM     21  C   UNL     1       2.723  -6.213  -8.038  0.00  0.00    +0.123 A 
ATOM     22  C   UNL     1       3.199  -7.161  -7.148  0.00  0.00    +0.038 A 
ATOM     23  C   UNL     1       2.331  -7.780  -6.268  0.00  0.00    +0.008 A 
ATOM     24  F   UNL     1       3.571  -5.604  -8.895  0.00  0.00    -0.205 F 
ENDBRANCH  17  18
ENDBRANCH  13  17
ENDBRANCH   3   9
BRANCH   2  25
ATOM     25  N   UNL     1      -1.029  -1.991  -1.953  0.00  0.00    -0.316 N 
ATOM     26  C   UNL     1       0.325  -2.002  -2.523  0.00  0.00    +0.106 C 
ATOM     27  C   UNL     1       0.228  -2.326  -4.018  0.00  0.00    +0.019 C 
ATOM     28  C   UNL     1      -0.728  -1.338  -4.689  0.00  0.00    +0.006 C 
ATOM     29  C   UNL     1      -2.123  -1.476  -4.073  0.00  0.00    +0.003 C 
ATOM     30  C   UNL     1      -2.054  -1.147  -2.583  0.00  0.00    +0.109 C 
ATOM     31  C   UNL     1      -3.086  -0.511  -4.768  0.00  0.00    +0.009 C 
ENDBRANCH   2  25
BRANCH   5  32
ATOM     32  C   UNL     1      -2.249  -5.061   2.524  0.00  0.00    +0.105 C 
ATOM     33  N   UNL     1      -2.494  -5.670   3.452  0.00  0.00    -0.191 NA
ENDBRANCH   5  32
BRANCH   1  34
ATOM     34  C   UNL     1      -0.820  -0.821   0.533  0.00  0.00    +0.126 C 
BRANCH  34  36
ATOM     35  C   UNL     1       1.126   0.689   0.956  0.00  0.00    +0.005 C 
ATOM     36  C   UNL     1       0.686  -0.768   0.797  0.00  0.00    +0.018 C 
ENDBRANCH  34  36
ENDBRANCH   1  34
TORSDOF 7
