REMARK  Name = ZINC40151235
REMARK  10 active torsions:
REMARK  status: ('A' for Active; 'I' for Inactive)
REMARK    1  A    between atoms: C_8  and  C_13
REMARK    2  A    between atoms: C_13  and  C_27
REMARK    3  A    between atoms: N_14  and  N_15
REMARK    4  A    between atoms: C_16  and  C_18
REMARK    5  A    between atoms: C_21  and  N_24
REMARK    6  A    between atoms: C_27  and  C_29
REMARK    7  A    between atoms: C_27  and  O_34
REMARK    8  A    between atoms: C_29  and  C_31
REMARK    9  A    between atoms: C_29  and  O_33
REMARK   10  A    between atoms: C_31  and  O_32
REMARK                            x       y       z     vdW  Elec       q    Type
REMARK                         _______ _______ _______ _____ _____    ______ ____
ROOT
ATOM      1  C   UNL     1       2.753  -3.513  -1.258  0.00  0.00    +0.099 C 
ATOM      2  N   UNL     1       2.166  -3.153  -2.337  0.00  0.00    -0.184 NA
ENDROOT
BRANCH   1  10
ATOM      3  C   UNL     1       5.363  -3.492   3.855  0.00  0.00    +0.002 A 
ATOM      4  C   UNL     1       4.227  -3.993   4.511  0.00  0.00    +0.002 A 
ATOM      5  C   UNL     1       3.008  -4.052   3.924  0.00  0.00    +0.025 A 
ATOM      6  C   UNL     1       2.831  -3.600   2.598  0.00  0.00    +0.057 A 
ATOM      7  N   UNL     1       1.639  -3.660   2.029  0.00  0.00    -0.282 N 
ATOM      8  C   UNL     1       1.438  -3.241   0.778  0.00  0.00    +0.245 C 
ATOM      9  O   UNL     1       0.333  -3.305   0.277  0.00  0.00    -0.273 OA
ATOM     10  C   UNL     1       2.604  -2.685  -0.007  0.00  0.00    +0.215 C 
ATOM     11  N   UNL     1       3.917  -2.632   0.654  0.00  0.00    -0.368 N 
ATOM     12  C   UNL     1       4.014  -3.064   1.878  0.00  0.00    +0.058 A 
ATOM     13  C   UNL     1       5.304  -3.034   2.586  0.00  0.00    +0.027 A 
ATOM     14  H   UNL     1       0.891  -4.017   2.534  0.00  0.00    +0.155 HD
ATOM     15  H   UNL     1       4.693  -2.283   0.188  0.00  0.00    +0.161 HD
ENDBRANCH   1  10
BRANCH   2  16
ATOM     16  N   UNL     1       1.444  -1.953  -2.376  0.00  0.00    -0.203 N 
ATOM     17  C   UNL     1       0.924  -1.517  -3.540  0.00  0.00    +0.263 C 
ATOM     18  O   UNL     1       1.004  -2.207  -4.538  0.00  0.00    -0.268 OA
ATOM     19  H   UNL     1       1.319  -1.436  -1.565  0.00  0.00    +0.178 HD
BRANCH  17  20
ATOM     20  C   UNL     1       0.257  -0.200  -3.604  0.00  0.00    +0.038 A 
ATOM     21  C   UNL     1       0.269   0.647  -2.494  0.00  0.00    +0.015 A 
ATOM     22  C   UNL     1      -0.356   1.875  -2.560  0.00  0.00    +0.033 A 
ATOM     23  C   UNL     1      -0.993   2.269  -3.724  0.00  0.00    +0.126 A 
ATOM     24  C   UNL     1      -1.009   1.435  -4.827  0.00  0.00    +0.033 A 
ATOM     25  C   UNL     1      -0.383   0.206  -4.777  0.00  0.00    +0.015 A 
BRANCH  23  26
ATOM     26  N   UNL     1      -1.661   3.588  -3.788  0.00  0.00    +0.056 N 
ATOM     27  O   UNL     1      -1.649   4.319  -2.825  0.00  0.00    -0.126 OA
ATOM     28  O   UNL     1      -2.218   3.935  -4.803  0.00  0.00    -0.126 OA
ENDBRANCH  23  26
ENDBRANCH  17  20
ENDBRANCH   2  16
BRANCH   1  29
ATOM     29  C   UNL     1       3.592  -4.764  -1.237  0.00  0.00    +0.193 C 
BRANCH  29  30
ATOM     30  O   UNL     1       3.484  -5.389   0.043  0.00  0.00    -0.383 OA
ATOM     31  H   UNL     1       2.583  -5.646   0.281  0.00  0.00    +0.210 HD
ENDBRANCH  29  30
BRANCH  29  32
ATOM     32  C   UNL     1       5.054  -4.402  -1.506  0.00  0.00    +0.174 C 
BRANCH  32  33
ATOM     33  O   UNL     1       5.146  -3.672  -2.731  0.00  0.00    -0.387 OA
ATOM     34  H   UNL     1       4.826  -4.157  -3.503  0.00  0.00    +0.210 HD
ENDBRANCH  32  33
BRANCH  32  35
ATOM     35  C   UNL     1       5.886  -5.682  -1.612  0.00  0.00    +0.190 C 
BRANCH  35  36
ATOM     36  O   UNL     1       7.267  -5.343  -1.747  0.00  0.00    -0.392 OA
ATOM     37  H   UNL     1       7.854  -6.108  -1.819  0.00  0.00    +0.210 HD
ENDBRANCH  35  36
ENDBRANCH  32  35
ENDBRANCH  29  32
ENDBRANCH   1  29
TORSDOF 10
