REMARK  Name = ZINC16859635
REMARK  8 active torsions:
REMARK  status: ('A' for Active; 'I' for Inactive)
REMARK    1  A    between atoms: C_1  and  C_2
REMARK    2  A    between atoms: C_2  and  C_4
REMARK    3  A    between atoms: C_2  and  S_18
REMARK    4  A    between atoms: N_6  and  C_7
REMARK    5  A    between atoms: C_12  and  C_13
REMARK    6  A    between atoms: S_18  and  C_19
REMARK    7  A    between atoms: N_23  and  C_24
REMARK    8  A    between atoms: C_27  and  O_30
REMARK                            x       y       z     vdW  Elec       q    Type
REMARK                         _______ _______ _______ _____ _____    ______ ____
ROOT
ATOM      1  C   UNL     1      -0.744   1.596   1.269  0.00  0.00    +0.029 C 
ATOM      2  C   UNL     1      -0.021   1.095   0.017  0.00  0.00    +0.137 C 
ENDROOT
BRANCH   2   3
ATOM      3  C   UNL     1      -0.743   1.587  -1.211  0.00  0.00    +0.230 C 
ATOM      4  O   UNL     1      -0.325   2.553  -1.814  0.00  0.00    -0.274 OA
ATOM      5  N   UNL     1      -1.854   0.954  -1.639  0.00  0.00    -0.284 N 
ATOM      6  H   UNL     1      -2.143   0.136  -1.206  0.00  0.00    +0.155 HD
BRANCH   5   7
ATOM      7  C   UNL     1      -2.589   1.477  -2.708  0.00  0.00    +0.045 A 
ATOM      8  C   UNL     1      -2.527   2.834  -2.998  0.00  0.00    +0.025 A 
ATOM      9  C   UNL     1      -3.253   3.348  -4.053  0.00  0.00    +0.022 A 
ATOM     10  C   UNL     1      -4.044   2.513  -4.823  0.00  0.00    +0.042 A 
ATOM     11  C   UNL     1      -4.108   1.160  -4.537  0.00  0.00    +0.034 A 
ATOM     12  C   UNL     1      -3.378   0.640  -3.486  0.00  0.00    +0.077 A 
ATOM     13 CL   UNL     1      -4.957   3.162  -6.149  0.00  0.00    -0.084 Cl
BRANCH  12  14
ATOM     14  C   UNL     1      -3.444  -0.834  -3.179  0.00  0.00    +0.419 C 
ATOM     15  F   UNL     1      -4.297  -1.463  -4.092  0.00  0.00    -0.166 F 
ATOM     16  F   UNL     1      -2.163  -1.388  -3.279  0.00  0.00    -0.166 F 
ATOM     17  F   UNL     1      -3.932  -1.019  -1.881  0.00  0.00    -0.166 F 
ENDBRANCH  12  14
ENDBRANCH   5   7
ENDBRANCH   2   3
BRANCH   2  18
ATOM     18  S   UNL     1       1.677   1.720   0.009  0.00  0.00    -0.072 S 
BRANCH  18  19
ATOM     19  C   UNL     1       2.314   0.892   1.429  0.00  0.00    +0.215 A 
ATOM     20  N   UNL     1       1.654   0.071   2.217  0.00  0.00    -0.101 NA
ATOM     21  N   UNL     1       2.416  -0.359   3.157  0.00  0.00    -0.022 NA
ATOM     22  N   UNL     1       3.595   0.151   3.049  0.00  0.00    -0.038 NA
ATOM     23  N   UNL     1       3.575   0.987   1.919  0.00  0.00    -0.187 N 
BRANCH  23  24
ATOM     24  C   UNL     1       4.633   1.754   1.408  0.00  0.00    +0.070 A 
ATOM     25  C   UNL     1       4.769   1.924   0.037  0.00  0.00    +0.031 A 
ATOM     26  C   UNL     1       5.807   2.683  -0.466  0.00  0.00    +0.047 A 
ATOM     27  C   UNL     1       6.721   3.267   0.399  0.00  0.00    +0.117 A 
ATOM     28  C   UNL     1       6.590   3.093   1.770  0.00  0.00    +0.047 A 
ATOM     29  C   UNL     1       5.548   2.338   2.273  0.00  0.00    +0.031 A 
BRANCH  27  30
ATOM     30  O   UNL     1       7.746   4.010  -0.096  0.00  0.00    -0.507 OA
ATOM     31  H   UNL     1       8.546   3.501  -0.283  0.00  0.00    +0.292 HD
ENDBRANCH  27  30
ENDBRANCH  23  24
ENDBRANCH  18  19
ENDBRANCH   2  18
TORSDOF 7
