REMARK  Name = ZINC64810066
REMARK  3 active torsions:
REMARK  status: ('A' for Active; 'I' for Inactive)
REMARK    1  A    between atoms: C_1  and  C_2
REMARK    2  A    between atoms: N_5  and  C_7
REMARK    3  A    between atoms: C_7  and  C_8
REMARK                            x       y       z     vdW  Elec       q    Type
REMARK                         _______ _______ _______ _____ _____    ______ ____
ROOT
ATOM      1  C   UNL     1      -1.099  -4.177   1.139  0.00  0.00    +0.240 C 
ATOM      2  O   UNL     1      -1.862  -3.851   0.255  0.00  0.00    -0.273 OA
ATOM      3  N   UNL     1      -1.281  -5.342   1.792  0.00  0.00    -0.266 N 
ATOM      4  C   UNL     1      -2.346  -6.171   1.451  0.00  0.00    +0.163 A 
ATOM      5  C   UNL     1      -2.535  -7.384   2.139  0.00  0.00    +0.170 A 
ATOM      6  N   UNL     1      -3.533  -8.178   1.831  0.00  0.00    -0.230 NA
ATOM      7  C   UNL     1      -4.381  -7.833   0.853  0.00  0.00    +0.091 A 
ATOM      8  C   UNL     1      -5.458  -8.665   0.504  0.00  0.00    +0.030 A 
ATOM      9  C   UNL     1      -6.305  -8.290  -0.494  0.00  0.00    +0.002 A 
ATOM     10  C   UNL     1      -6.120  -7.090  -1.177  0.00  0.00    +0.002 A 
ATOM     11  C   UNL     1      -5.088  -6.259  -0.866  0.00  0.00    +0.030 A 
ATOM     12  C   UNL     1      -4.194  -6.613   0.158  0.00  0.00    +0.091 A 
ATOM     13  N   UNL     1      -3.172  -5.812   0.489  0.00  0.00    -0.227 NA
ATOM     14 CL   UNL     1      -1.438  -7.834   3.407  0.00  0.00    -0.058 Cl
ATOM     15  H   UNL     1      -0.671  -5.603   2.499  0.00  0.00    +0.156 HD
ENDROOT
BRANCH   1  16
ATOM     16  C   UNL     1       0.054  -3.280   1.509  0.00  0.00    +0.239 C 
BRANCH  16  21
ATOM     17  C   UNL     1      -0.018   1.503   0.010  0.00  0.00    +0.047 C 
ATOM     18  C   UNL     1       0.002  -0.004   0.002  0.00  0.00    -0.013 A 
ATOM     19  C   UNL     1       0.009  -0.821  -1.133  0.00  0.00    +0.137 A 
ATOM     20  N   UNL     1       0.028  -2.068  -0.740  0.00  0.00    -0.179 NA
ATOM     21  N   UNL     1       0.034  -2.085   0.661  0.00  0.00    -0.262 N 
ATOM     22  C   UNL     1       0.023  -0.806   1.092  0.00  0.00    +0.112 A 
ENDBRANCH  16  21
ENDBRANCH   1  16
TORSDOF 2
