REMARK  Name = ZINC59057537
REMARK  11 active torsions:
REMARK  status: ('A' for Active; 'I' for Inactive)
REMARK    1  A    between atoms: C_1  and  C_2
REMARK    2  A    between atoms: C_3  and  C_35
REMARK    3  A    between atoms: N_9  and  C_12
REMARK    4  A    between atoms: C_12  and  C_13
REMARK    5  A    between atoms: C_13  and  C_14
REMARK    6  A    between atoms: N_16  and  C_17
REMARK    7  A    between atoms: C_17  and  C_18
REMARK    8  A    between atoms: C_21  and  C_24
REMARK    9  A    between atoms: C_24  and  N_25
REMARK   10  A    between atoms: C_27  and  C_34
REMARK   11  A    between atoms: C_30  and  C_33
REMARK                            x       y       z     vdW  Elec       q    Type
REMARK                         _______ _______ _______ _____ _____    ______ ____
ROOT
ATOM      1  C   UNL     1      -1.379   0.003   6.905  0.00  0.00    +0.215 C 
ATOM      2  O   UNL     1      -0.326   0.220   7.467  0.00  0.00    -0.276 OA
ATOM      3  N   UNL     1      -2.543   0.212   7.550  0.00  0.00    -0.311 N 
ATOM      4  H   UNL     1      -3.385   0.038   7.101  0.00  0.00    +0.149 HD
ENDROOT
BRANCH   1   5
ATOM      5  C   UNL     1      -1.384  -0.501   5.485  0.00  0.00    +0.117 C 
BRANCH   5   6
ATOM      6  C   UNL     1       0.056  -0.652   4.991  0.00  0.00    +0.135 C 
BRANCH   6  15
ATOM      7  C   UNL     1      -0.018   1.503   0.010  0.00  0.00    +0.045 C 
ATOM      8  C   UNL     1       0.002  -0.004   0.002  0.00  0.00    -0.026 A 
ATOM      9  C   UNL     1       0.006  -0.677  -1.160  0.00  0.00    -0.008 A 
ATOM     10  S   UNL     1       0.032  -2.385  -0.648  0.00  0.00    -0.073 S 
ATOM     11  C   UNL     1       0.037  -2.144   1.110  0.00  0.00    +0.116 A 
ATOM     12  C   UNL     1       0.024  -0.745   1.250  0.00  0.00    +0.075 A 
ATOM     13  C   UNL     1       0.029  -0.257   2.597  0.00  0.00    +0.262 A 
ATOM     14  O   UNL     1       0.014   0.942   2.821  0.00  0.00    -0.267 OA
ATOM     15  N   UNL     1       0.051  -1.142   3.611  0.00  0.00    -0.298 N 
ATOM     16  C   UNL     1       0.068  -2.480   3.380  0.00  0.00    +0.203 A 
ATOM     17  N   UNL     1       0.053  -2.956   2.163  0.00  0.00    -0.230 NA
ATOM     18  C   UNL     1      -0.009  -0.122  -2.561  0.00  0.00    +0.052 C 
ENDBRANCH   6  15
ENDBRANCH   5   6
ENDBRANCH   1   5
BRANCH   3  19
ATOM     19  C   UNL     1      -2.538   0.702   8.931  0.00  0.00    +0.139 C 
BRANCH  19  20
ATOM     20  C   UNL     1      -3.956   0.850   9.417  0.00  0.00    -0.030 A 
ATOM     21  C   UNL     1      -4.628   2.045   9.235  0.00  0.00    +0.005 A 
ATOM     22  C   UNL     1      -5.930   2.180   9.680  0.00  0.00    +0.002 A 
ATOM     23  C   UNL     1      -6.559   1.122  10.308  0.00  0.00    -0.064 A 
ATOM     24  C   UNL     1      -5.888  -0.072  10.490  0.00  0.00    +0.002 A 
ATOM     25  C   UNL     1      -4.588  -0.210  10.040  0.00  0.00    +0.005 A 
BRANCH  23  26
ATOM     26  C   UNL     1      -7.978   1.271  10.795  0.00  0.00    -0.043 C 
BRANCH  26  27
ATOM     27  N   UNL     1      -8.906   0.871   9.729  0.00  0.00    +0.383 N 
ATOM     28  C   UNL     1      -8.732  -0.558   9.442  0.00  0.00    -0.075 C 
ATOM     29  C   UNL     1      -9.639  -0.962   8.278  0.00  0.00    -0.031 C 
ATOM     30  C   UNL     1     -11.098  -0.689   8.655  0.00  0.00    +0.003 C 
ATOM     31  C   UNL     1     -11.251   0.789   9.024  0.00  0.00    -0.031 C 
ATOM     32  C   UNL     1     -10.285   1.128  10.161  0.00  0.00    -0.075 C 
ATOM     33  C   UNL     1     -12.688   1.057   9.476  0.00  0.00    +0.005 C 
ATOM     34  C   UNL     1      -9.270  -0.147   7.037  0.00  0.00    +0.005 C 
ATOM     35  H   UNL     1      -8.710   1.405   8.896  0.00  0.00    -0.081 HD
ENDBRANCH  26  27
ENDBRANCH  23  26
ENDBRANCH  19  20
ENDBRANCH   3  19
TORSDOF 7
