REMARK  Name = ZINC63856510
REMARK  4 active torsions:
REMARK  status: ('A' for Active; 'I' for Inactive)
REMARK    1  A    between atoms: C_1  and  C_2
REMARK    2  A    between atoms: C_7  and  C_12
REMARK    3  A    between atoms: N_14  and  C_15
REMARK    4  A    between atoms: C_20  and  N_21
REMARK                            x       y       z     vdW  Elec       q    Type
REMARK                         _______ _______ _______ _____ _____    ______ ____
ROOT
ATOM      1  C   UNL     1       1.312  -5.171   1.840  0.00  0.00    +0.244 C 
ATOM      2  O   UNL     1       2.270  -5.165   1.097  0.00  0.00    -0.273 OA
ATOM      3  N   UNL     1       1.366  -5.850   3.003  0.00  0.00    -0.282 N 
ATOM      4  H   UNL     1       0.631  -5.791   3.634  0.00  0.00    +0.155 HD
ENDROOT
BRANCH   1  11
ATOM      5  C   UNL     1      -0.064   1.486  -0.011  0.00  0.00    +0.044 C 
ATOM      6  C   UNL     1      -0.032  -0.021  -0.015  0.00  0.00    -0.050 A 
ATOM      7  C   UNL     1      -0.020  -0.700  -1.242  0.00  0.00    +0.005 A 
ATOM      8  C   UNL     1       0.007  -2.046  -1.330  0.00  0.00    +0.026 A 
ATOM      9  C   UNL     1       0.026  -2.843  -0.152  0.00  0.00    +0.043 A 
ATOM     10  N   UNL     1       0.053  -4.142   0.022  0.00  0.00    -0.370 N 
ATOM     11  C   UNL     1       0.061  -4.421   1.463  0.00  0.00    +0.190 C 
ATOM     12  C   UNL     1       0.035  -3.072   2.146  0.00  0.00    +0.016 C 
ATOM     13  C   UNL     1       0.014  -2.151   1.156  0.00  0.00    -0.003 A 
ATOM     14  C   UNL     1      -0.010  -0.683   1.164  0.00  0.00    +0.013 A 
ATOM     15  H   UNL     1       0.065  -4.808  -0.683  0.00  0.00    +0.161 HD
ENDBRANCH   1  11
BRANCH   3  16
ATOM     16  C   UNL     1       2.483  -6.642   3.301  0.00  0.00    +0.055 A 
ATOM     17  C   UNL     1       3.267  -7.152   2.276  0.00  0.00    +0.025 A 
ATOM     18  C   UNL     1       4.368  -7.932   2.573  0.00  0.00    +0.002 A 
ATOM     19  C   UNL     1       4.692  -8.208   3.889  0.00  0.00    +0.002 A 
ATOM     20  C   UNL     1       3.916  -7.704   4.915  0.00  0.00    +0.025 A 
ATOM     21  C   UNL     1       2.812  -6.915   4.628  0.00  0.00    +0.061 A 
BRANCH  21  22
ATOM     22  N   UNL     1       2.028  -6.398   5.667  0.00  0.00    -0.232 N 
ATOM     23  C   UNL     1       0.860  -7.057   6.286  0.00  0.00    +0.158 C 
ATOM     24  C   UNL     1       0.661  -6.225   7.576  0.00  0.00    +0.253 C 
ATOM     25  O   UNL     1       1.274  -4.971   7.221  0.00  0.00    -0.448 OA
ATOM     26  C   UNL     1       2.207  -5.215   6.285  0.00  0.00    +0.407 C 
ATOM     27  O   UNL     1       3.112  -4.449   6.020  0.00  0.00    -0.226 OA
ENDBRANCH  21  22
ENDBRANCH   3  16
TORSDOF 3
