REMARK  Name = ZINC64518969
REMARK  6 active torsions:
REMARK  status: ('A' for Active; 'I' for Inactive)
REMARK    1  A    between atoms: C_1  and  O_2
REMARK    2  A    between atoms: O_2  and  C_3
REMARK    3  A    between atoms: C_6  and  S_9
REMARK    4  A    between atoms: S_9  and  N_12
REMARK    5  A    between atoms: N_12  and  C_13
REMARK    6  A    between atoms: C_19  and  C_21
REMARK                            x       y       z     vdW  Elec       q    Type
REMARK                         _______ _______ _______ _____ _____    ______ ____
ROOT
ATOM      1  C   UNL     1      -4.860  -3.853  -2.408  0.00  0.00    +0.079 C 
ATOM      2  C   UNL     1      -3.847  -3.017  -3.193  0.00  0.00    +0.039 C 
ATOM      3  C   UNL     1      -2.998  -3.943  -4.070  0.00  0.00    +0.109 C 
ATOM      4  N   UNL     1      -3.894  -4.751  -4.910  0.00  0.00    -0.299 N 
ATOM      5  C   UNL     1      -4.963  -5.523  -4.262  0.00  0.00    +0.109 C 
ATOM      6  C   UNL     1      -5.789  -4.580  -3.383  0.00  0.00    +0.039 C 
ATOM      7  C   UNL     1      -3.737  -4.783  -6.248  0.00  0.00    +0.242 C 
ATOM      8  O   UNL     1      -2.851  -4.140  -6.770  0.00  0.00    -0.273 OA
ENDROOT
BRANCH   7   9
ATOM      9  C   UNL     1      -4.664  -5.616  -7.095  0.00  0.00    +0.190 C 
ATOM     10  C   UNL     1      -6.085  -5.115  -6.962  0.00  0.00    +0.016 C 
ATOM     11  C   UNL     1      -6.466  -4.736  -8.203  0.00  0.00    -0.004 A 
ATOM     12  C   UNL     1      -7.715  -4.172  -8.731  0.00  0.00    +0.010 A 
ATOM     13  C   UNL     1      -7.800  -3.889 -10.050  0.00  0.00    +0.001 A 
ATOM     14  C   UNL     1      -6.729  -4.119 -10.924  0.00  0.00    +0.002 A 
ATOM     15  C   UNL     1      -5.550  -4.634 -10.514  0.00  0.00    +0.026 A 
ATOM     16  C   UNL     1      -5.350  -4.969  -9.147  0.00  0.00    +0.043 A 
ATOM     17  N   UNL     1      -4.317  -5.474  -8.514  0.00  0.00    -0.370 N 
ATOM     18  H   UNL     1      -3.467  -5.713  -8.915  0.00  0.00    +0.161 HD
ENDBRANCH   7   9
BRANCH   1  19
ATOM     19  N   UNL     1      -5.651  -2.974  -1.542  0.00  0.00    -0.187 NA
ATOM     20  H   UNL     1      -6.436  -2.525  -1.895  0.00  0.00    +0.148 HD
BRANCH  19  21
ATOM     21  S   UNL     1      -5.207  -2.748   0.036  0.00  0.00    +0.059 S 
ATOM     22  O   UNL     1      -4.982  -4.040   0.584  0.00  0.00    -0.153 OA
ATOM     23  O   UNL     1      -6.142  -1.836   0.595  0.00  0.00    -0.153 OA
BRANCH  21  27
ATOM     24  C   UNL     1      -1.200  -0.637   0.010  0.00  0.00    +0.120 A 
ATOM     25  C   UNL     1      -2.375   0.101   0.019  0.00  0.00    +0.047 A 
ATOM     26  C   UNL     1      -3.596  -0.545   0.027  0.00  0.00    +0.032 A 
ATOM     27  C   UNL     1      -3.648  -1.927   0.026  0.00  0.00    +0.105 A 
ATOM     28  C   UNL     1      -2.479  -2.665   0.017  0.00  0.00    +0.032 A 
ATOM     29  C   UNL     1      -1.255  -2.024   0.003  0.00  0.00    +0.047 A 
BRANCH  24  31
ATOM     30  C   UNL     1      -0.017   1.425   0.010  0.00  0.00    +0.277 C 
ATOM     31  O   UNL     1       0.002  -0.004   0.002  0.00  0.00    -0.495 OA
ENDBRANCH  24  31
ENDBRANCH  21  27
ENDBRANCH  19  21
ENDBRANCH   1  19
TORSDOF 5
