REMARK  Name = ZINC40063075
REMARK  7 active torsions:
REMARK  status: ('A' for Active; 'I' for Inactive)
REMARK    1  A    between atoms: C_1  and  C_2
REMARK    2  A    between atoms: C_12  and  C_13
REMARK    3  A    between atoms: N_16  and  C_28
REMARK    4  A    between atoms: C_17  and  C_19
REMARK    5  A    between atoms: C_23  and  N_25
REMARK    6  A    between atoms: C_28  and  C_29
REMARK    7  A    between atoms: C_29  and  O_30
REMARK                            x       y       z     vdW  Elec       q    Type
REMARK                         _______ _______ _______ _____ _____    ______ ____
ROOT
ATOM      1  C   UNL     1      -0.018   1.503   0.010  0.00  0.00    +0.044 C 
ATOM      2  C   UNL     1       0.002  -0.004   0.002  0.00  0.00    -0.044 A 
ATOM      3  C   UNL     1       0.005  -0.683  -1.209  0.00  0.00    +0.004 A 
ATOM      4  C   UNL     1       0.021  -2.050  -1.232  0.00  0.00    +0.015 A 
ATOM      5  C   UNL     1       0.033  -2.761  -0.032  0.00  0.00    +0.065 A 
ATOM      6  C   UNL     1       0.036  -4.246  -0.038  0.00  0.00    +0.199 A 
ATOM      7  O   UNL     1       0.200  -4.908  -1.047  0.00  0.00    -0.287 OA
ATOM      8  C   UNL     1      -0.176  -4.839   1.286  0.00  0.00    +0.072 A 
ATOM      9  C   UNL     1      -0.158  -4.068   2.414  0.00  0.00    +0.199 A 
ATOM     10  O   UNL     1       0.060  -2.739   2.383  0.00  0.00    -0.449 OA
ATOM     11  C   UNL     1       0.036  -2.085   1.199  0.00  0.00    +0.143 A 
ATOM     12  C   UNL     1       0.023  -0.690   1.195  0.00  0.00    -0.005 A 
ATOM     13  C   UNL     1       0.025   0.066   2.499  0.00  0.00    +0.048 C 
ATOM     14  C   UNL     1      -0.408  -4.941   3.575  0.00  0.00    +0.283 C 
ATOM     15  O   UNL     1      -0.459  -4.566   4.729  0.00  0.00    -0.267 OA
ATOM     16  N   UNL     1      -0.571  -6.217   3.168  0.00  0.00    -0.282 N 
ATOM     17  C   UNL     1      -0.436  -6.249   1.703  0.00  0.00    +0.145 C 
ENDROOT
BRANCH  17  18
ATOM     18  C   UNL     1       0.721  -7.130   1.306  0.00  0.00    -0.020 A 
ATOM     19  C   UNL     1       1.875  -7.140   2.067  0.00  0.00    +0.006 A 
ATOM     20  C   UNL     1       2.936  -7.947   1.704  0.00  0.00    +0.003 A 
ATOM     21  C   UNL     1       2.843  -8.746   0.579  0.00  0.00    +0.033 A 
ATOM     22  C   UNL     1       1.688  -8.737  -0.182  0.00  0.00    +0.127 A 
ATOM     23  C   UNL     1       0.626  -7.932   0.185  0.00  0.00    +0.038 A 
BRANCH  22  24
ATOM     24  N   UNL     1       1.589  -9.591  -1.386  0.00  0.00    +0.056 N 
ATOM     25  O   UNL     1       2.518 -10.297  -1.705  0.00  0.00    -0.126 OA
ATOM     26  O   UNL     1       0.580  -9.583  -2.051  0.00  0.00    -0.126 OA
ENDBRANCH  22  24
ENDBRANCH  17  18
BRANCH  16  27
ATOM     27  C   UNL     1      -0.834  -7.369   4.034  0.00  0.00    +0.137 C 
BRANCH  27  28
ATOM     28  C   UNL     1      -2.345  -7.546   4.201  0.00  0.00    +0.175 C 
BRANCH  28  29
ATOM     29  O   UNL     1      -2.927  -7.880   2.939  0.00  0.00    -0.393 OA
ATOM     30  H   UNL     1      -3.885  -8.008   2.970  0.00  0.00    +0.209 HD
ENDBRANCH  28  29
ENDBRANCH  27  28
ENDBRANCH  16  27
TORSDOF 5
