REMARK  Name = ZINC08826291
REMARK  8 active torsions:
REMARK  status: ('A' for Active; 'I' for Inactive)
REMARK    1  A    between atoms: C_1  and  N_2
REMARK    2  A    between atoms: N_2  and  C_3
REMARK    3  A    between atoms: N_2  and  S_4
REMARK    4  A    between atoms: S_4  and  C_7
REMARK    5  A    between atoms: C_11  and  C_13
REMARK    6  A    between atoms: C_13  and  S_14
REMARK    7  A    between atoms: S_14  and  C_15
REMARK    8  A    between atoms: N_28  and  C_29
REMARK                            x       y       z     vdW  Elec       q    Type
REMARK                         _______ _______ _______ _____ _____    ______ ____
ROOT
ATOM      1  C   UNL     1       3.481   1.796   1.062  0.00  0.00    +0.198 A 
ATOM      2  N   UNL     1       4.125   0.687   1.336  0.00  0.00    -0.120 NA
ATOM      3  N   UNL     1       3.416  -0.330   0.999  0.00  0.00    -0.109 NA
ATOM      4  C   UNL     1       2.274   0.065   0.488  0.00  0.00    +0.245 A 
ATOM      5  N   UNL     1       2.280   1.435   0.513  0.00  0.00    -0.255 N 
ATOM      6  C   UNL     1       1.197   2.162   0.035  0.00  0.00    +0.064 A 
ATOM      7  C   UNL     1       1.195   3.549   0.057  0.00  0.00    +0.027 A 
ATOM      8  C   UNL     1       0.103   4.243  -0.425  0.00  0.00    +0.002 A 
ATOM      9  C   UNL     1      -0.995   3.566  -0.932  0.00  0.00    +0.001 A 
ATOM     10  C   UNL     1      -1.013   2.187  -0.957  0.00  0.00    +0.015 A 
ATOM     11  C   UNL     1       0.085   1.475  -0.478  0.00  0.00    +0.064 A 
ATOM     12  C   UNL     1       0.106   0.001  -0.493  0.00  0.00    +0.268 A 
ATOM     13  O   UNL     1      -0.840  -0.626  -0.930  0.00  0.00    -0.267 OA
ATOM     14  N   UNL     1       1.191  -0.641  -0.013  0.00  0.00    -0.245 N 
ENDROOT
BRANCH  14  15
ATOM     15  C   UNL     1       1.224  -2.041  -0.021  0.00  0.00    +0.053 A 
ATOM     16  C   UNL     1       0.748  -2.755   1.071  0.00  0.00    +0.026 A 
ATOM     17  C   UNL     1       0.776  -4.135   1.057  0.00  0.00    +0.002 A 
ATOM     18  C   UNL     1       1.289  -4.807  -0.038  0.00  0.00    +0.000 A 
ATOM     19  C   UNL     1       1.769  -4.099  -1.124  0.00  0.00    +0.002 A 
ATOM     20  C   UNL     1       1.738  -2.718  -1.119  0.00  0.00    +0.026 A 
ENDBRANCH  14  15
BRANCH   1  21
ATOM     21  S   UNL     1       4.052   3.438   1.347  0.00  0.00    -0.081 S 
BRANCH  21  22
ATOM     22  C   UNL     1       5.693   3.210   2.087  0.00  0.00    +0.112 C 
BRANCH  22  27
ATOM     23  C   UNL     1       7.634   6.426   1.703  0.00  0.00    +0.106 A 
ATOM     24  C   UNL     1       7.419   7.026   2.929  0.00  0.00    +0.028 A 
ATOM     25  C   UNL     1       6.646   6.391   3.883  0.00  0.00    +0.002 A 
ATOM     26  C   UNL     1       6.087   5.156   3.611  0.00  0.00    +0.004 A 
ATOM     27  C   UNL     1       6.301   4.556   2.384  0.00  0.00    -0.035 A 
ATOM     28  C   UNL     1       7.079   5.189   1.432  0.00  0.00    +0.033 A 
BRANCH  23  29
ATOM     29  S   UNL     1       8.620   7.234   0.487  0.00  0.00    +0.060 S 
ATOM     30  O   UNL     1       8.219   6.714  -0.773  0.00  0.00    -0.153 OA
ATOM     31  O   UNL     1       8.577   8.623   0.787  0.00  0.00    -0.153 OA
BRANCH  29  33
ATOM     32  C   UNL     1      10.695   5.560   0.033  0.00  0.00    +0.131 C 
ATOM     33  N   UNL     1      10.185   6.747   0.723  0.00  0.00    -0.183 NA
ATOM     34  C   UNL     1      11.060   7.504   1.622  0.00  0.00    +0.131 C 
ENDBRANCH  29  33
ENDBRANCH  23  29
ENDBRANCH  22  27
ENDBRANCH  21  22
ENDBRANCH   1  21
TORSDOF 6
