REMARK  Name = ZINC15080353
REMARK  11 active torsions:
REMARK  status: ('A' for Active; 'I' for Inactive)
REMARK    1  A    between atoms: C_1  and  N_68
REMARK    2  A    between atoms: C_2  and  C_3
REMARK    3  A    between atoms: C_2  and  N_68
REMARK    4  A    between atoms: C_6  and  C_8
REMARK    5  A    between atoms: C_15  and  C_16
REMARK    6  A    between atoms: C_15  and  N_68
REMARK    7  A    between atoms: C_21  and  C_22
REMARK    8  A    between atoms: C_21  and  N_70
REMARK    9  A    between atoms: C_22  and  C_23
REMARK   10  A    between atoms: C_26  and  O_29
REMARK   11  A    between atoms: O_29  and  C_30
REMARK                            x       y       z     vdW  Elec       q    Type
REMARK                         _______ _______ _______ _____ _____    ______ ____
ROOT
ATOM      1  C   UNL     1       2.029  -6.772  -2.203  0.00  0.00    -0.031 C 
ATOM      2  C   UNL     1       0.633  -6.282  -2.596  0.00  0.00    -0.017 C 
ATOM      3  C   UNL     1       0.631  -4.752  -2.647  0.00  0.00    -0.079 C 
ATOM      4  C   UNL     1       2.360  -4.636  -0.953  0.00  0.00    -0.079 C 
ATOM      5  C   UNL     1       2.414  -6.162  -0.853  0.00  0.00    -0.017 C 
ATOM      6  N   UNL     1       0.985  -4.228  -1.310  0.00  0.00    +0.380 N 
ATOM      7  H   UNL     1       0.332  -4.613  -0.618  0.00  0.00    -0.082 HD
ENDROOT
BRANCH   1   8
ATOM      8  C   UNL     1       2.023  -8.298  -2.094  0.00  0.00    -0.075 C 
BRANCH   8  10
ATOM      9  C   UNL     1       2.975  -8.807  -4.261  0.00  0.00    -0.096 C 
ATOM     10  N   UNL     1       1.754  -8.868  -3.431  0.00  0.00    +0.381 N 
ATOM     11  H   UNL     1       1.014  -8.319  -3.885  0.00  0.00    -0.082 HD
BRANCH  10  12
ATOM     12  C   UNL     1       1.300 -10.269  -3.301  0.00  0.00    -0.036 C 
BRANCH  12  13
ATOM     13  C   UNL     1       0.825 -10.752  -4.647  0.00  0.00    -0.026 A 
ATOM     14  C   UNL     1       1.526 -11.371  -5.628  0.00  0.00    +0.009 A 
ATOM     15  C   UNL     1       0.874 -11.732  -6.792  0.00  0.00    +0.014 A 
ATOM     16  C   UNL     1      -0.445 -11.448  -6.922  0.00  0.00    +0.019 A 
ATOM     17  S   UNL     1      -0.806 -10.652  -5.366  0.00  0.00    -0.097 S 
BRANCH  16  18
ATOM     18  C   UNL     1      -1.367 -11.729  -8.081  0.00  0.00    +0.155 C 
ATOM     19  C   UNL     1      -2.197 -12.980  -7.780  0.00  0.00    +0.037 C 
ATOM     20  C   UNL     1      -3.173 -13.225  -8.934  0.00  0.00    +0.005 C 
ATOM     21  C   UNL     1      -4.045 -11.980  -9.124  0.00  0.00    +0.028 C 
ATOM     22  C   UNL     1      -3.143 -10.768  -9.373  0.00  0.00    +0.160 C 
ATOM     23  O   UNL     1      -2.240 -10.615  -8.277  0.00  0.00    -0.371 OA
ENDBRANCH  16  18
ENDBRANCH  12  13
ENDBRANCH  10  12
ENDBRANCH   8  10
ENDBRANCH   1   8
BRANCH   6  24
ATOM     24  C   UNL     1       0.879  -2.754  -1.302  0.00  0.00    -0.074 C 
BRANCH  24  25
ATOM     25  C   UNL     1       1.032  -2.257   0.137  0.00  0.00    +0.016 C 
BRANCH  25  26
ATOM     26  C   UNL     1       0.902  -0.756   0.166  0.00  0.00    -0.049 A 
ATOM     27  C   UNL     1      -0.339  -0.173   0.341  0.00  0.00    +0.007 A 
ATOM     28  C   UNL     1      -0.460   1.203   0.369  0.00  0.00    +0.046 A 
ATOM     29  C   UNL     1       0.665   2.000   0.221  0.00  0.00    +0.120 A 
ATOM     30  C   UNL     1       1.910   1.413   0.045  0.00  0.00    +0.046 A 
ATOM     31  C   UNL     1       2.026   0.037   0.018  0.00  0.00    +0.007 A 
BRANCH  29  32
ATOM     32  O   UNL     1       0.549   3.354   0.247  0.00  0.00    -0.495 OA
ATOM     33  C   UNL     1       1.750   4.112   0.088  0.00  0.00    +0.277 C 
ENDBRANCH  29  32
ENDBRANCH  25  26
ENDBRANCH  24  25
ENDBRANCH   6  24
TORSDOF 9
