REMARK  Name = ZINC36964238
REMARK  4 active torsions:
REMARK  status: ('A' for Active; 'I' for Inactive)
REMARK    1  A    between atoms: C_1  and  O_2
REMARK    2  A    between atoms: O_2  and  C_3
REMARK    3  A    between atoms: C_6  and  C_10
REMARK    4  A    between atoms: C_16  and  C_20
REMARK                            x       y       z     vdW  Elec       q    Type
REMARK                         _______ _______ _______ _____ _____    ______ ____
ROOT
ATOM      1  C   UNL     1      -1.856  -4.306  -0.055  0.00  0.00    +0.124 A 
ATOM      2  N   UNL     1      -0.834  -4.910  -0.604  0.00  0.00    -0.135 NA
ATOM      3  N   UNL     1      -0.839  -6.160  -0.301  0.00  0.00    -0.128 NA
ATOM      4  C   UNL     1      -1.882  -6.423   0.469  0.00  0.00    +0.180 A 
ATOM      5  N   UNL     1      -2.554  -5.239   0.647  0.00  0.00    -0.286 N 
ATOM      6  C   UNL     1      -3.684  -5.194   1.411  0.00  0.00    +0.106 A 
ATOM      7  C   UNL     1      -4.156  -6.310   2.003  0.00  0.00    +0.073 A 
ATOM      8  C   UNL     1      -3.489  -7.537   1.843  0.00  0.00    +0.037 A 
ATOM      9  C   UNL     1      -2.365  -7.599   1.078  0.00  0.00    +0.086 A 
ATOM     10 CL   UNL     1      -1.527  -9.105   0.869  0.00  0.00    -0.080 Cl
ENDROOT
BRANCH   1  13
ATOM     11  C   UNL     1      -1.295  -0.603   0.011  0.00  0.00    +0.100 C 
ATOM     12  C   UNL     1      -1.242  -1.987   0.698  0.00  0.00    +0.021 C 
ATOM     13  C   UNL     1      -2.196  -2.843  -0.174  0.00  0.00    +0.001 C 
ATOM     14  N   UNL     1      -1.933  -2.350  -1.550  0.00  0.00    +0.387 N 
ATOM     15  C   UNL     1      -1.765  -0.883  -1.428  0.00  0.00    -0.050 C 
ATOM     16  H   UNL     1      -1.091  -2.768  -1.914  0.00  0.00    -0.085 HD
ATOM     17  H   UNL     1      -2.716  -2.561  -2.151  0.00  0.00    -0.085 HD
BRANCH  11  19
ATOM     18  C   UNL     1      -0.017   1.425   0.010  0.00  0.00    +0.194 C 
ATOM     19  O   UNL     1       0.002  -0.004   0.002  0.00  0.00    -0.382 OA
ENDBRANCH  11  19
ENDBRANCH   1  13
BRANCH   7  20
ATOM     20  C   UNL     1      -5.406  -6.241   2.843  0.00  0.00    +0.419 C 
ATOM     21  F   UNL     1      -6.513  -6.588   2.062  0.00  0.00    -0.166 F 
ATOM     22  F   UNL     1      -5.295  -7.130   3.917  0.00  0.00    -0.166 F 
ATOM     23  F   UNL     1      -5.569  -4.939   3.330  0.00  0.00    -0.166 F 
ENDBRANCH   7  20
TORSDOF 3
