REMARK  Name = ZINC14749573
REMARK  8 active torsions:
REMARK  status: ('A' for Active; 'I' for Inactive)
REMARK    1  A    between atoms: C_1  and  C_2
REMARK    2  A    between atoms: C_3  and  C_8
REMARK    3  A    between atoms: C_8  and  N_9
REMARK    4  A    between atoms: N_17  and  C_25
REMARK    5  A    between atoms: N_20  and  C_21
REMARK    6  A    between atoms: C_21  and  C_22
REMARK    7  A    between atoms: C_22  and  C_23
REMARK    8  A    between atoms: C_22  and  C_24
REMARK                            x       y       z     vdW  Elec       q    Type
REMARK                         _______ _______ _______ _____ _____    ______ ____
ROOT
ATOM      1  N   UNL     1       1.676  -0.740  -3.704  0.00  0.00    -0.297 NA
ATOM      2  C   UNL     1       1.186  -1.383  -2.478  0.00  0.00    +0.087 C 
ATOM      3  C   UNL     1       1.255  -2.904  -2.637  0.00  0.00    +0.051 C 
ATOM      4  C   UNL     1       2.694  -3.316  -2.932  0.00  0.00    +0.118 C 
ATOM      5  C   UNL     1       3.215  -2.589  -4.167  0.00  0.00    +0.051 C 
ATOM      6  C   UNL     1       3.082  -1.077  -3.958  0.00  0.00    +0.087 C 
ATOM      7  C   UNL     1       2.787  -4.812  -3.120  0.00  0.00    +0.247 C 
ATOM      8  O   UNL     1       2.234  -5.482  -3.966  0.00  0.00    -0.273 OA
ATOM      9  N   UNL     1       3.616  -5.247  -2.148  0.00  0.00    -0.220 N 
ATOM     10  C   UNL     1       4.051  -4.237  -1.383  0.00  0.00    +0.312 C 
ATOM     11  O   UNL     1       4.808  -4.379  -0.443  0.00  0.00    -0.252 OA
ATOM     12  N   UNL     1       3.555  -3.047  -1.773  0.00  0.00    -0.271 N 
ENDROOT
BRANCH   9  13
ATOM     13  C   UNL     1       3.994  -6.649  -1.954  0.00  0.00    +0.094 C 
ATOM     14  C   UNL     1       3.728  -7.092  -0.499  0.00  0.00    +0.058 C 
ATOM     15  C   UNL     1       4.848  -8.054  -0.167  0.00  0.00    -0.042 A 
ATOM     16  C   UNL     1       4.958  -8.988   0.850  0.00  0.00    +0.004 A 
ATOM     17  C   UNL     1       6.092  -9.767   0.959  0.00  0.00    +0.000 A 
ATOM     18  C   UNL     1       7.123  -9.616   0.050  0.00  0.00    +0.000 A 
ATOM     19  C   UNL     1       7.016  -8.685  -0.964  0.00  0.00    +0.004 A 
ATOM     20  C   UNL     1       5.879  -7.902  -1.075  0.00  0.00    -0.042 A 
ATOM     21  C   UNL     1       5.522  -6.828  -2.080  0.00  0.00    +0.058 C 
ENDBRANCH   9  13
BRANCH   1  22
ATOM     22  C   UNL     1       1.485   0.715  -3.648  0.00  0.00    +0.139 C 
BRANCH  22  25
ATOM     23  C   UNL     1      -0.440   0.731  -6.117  0.00  0.00    +0.065 C 
ATOM     24  C   UNL     1      -0.820   1.036  -4.692  0.00  0.00    +0.035 A 
ATOM     25  C   UNL     1       0.011   1.029  -3.632  0.00  0.00    +0.050 A 
ATOM     26  N   UNL     1      -0.740   1.360  -2.537  0.00  0.00    -0.349 N 
ATOM     27  H   UNL     1      -0.423   1.438  -1.624  0.00  0.00    +0.166 HD
ATOM     28  C   UNL     1      -2.005   1.559  -2.966  0.00  0.00    +0.171 A 
ATOM     29  N   UNL     1      -2.045   1.368  -4.256  0.00  0.00    -0.350 N 
ATOM     30  H   UNL     1      -2.835   1.451  -4.812  0.00  0.00    +0.166 HD
ENDBRANCH  22  25
ENDBRANCH   1  22
BRANCH  12  31
ATOM     31  C   UNL     1       3.822  -1.743  -1.163  0.00  0.00    +0.113 C 
BRANCH  31  32
ATOM     32  C   UNL     1       3.353  -1.756   0.294  0.00  0.00    +0.000 C 
ATOM     33  C   UNL     1       3.681  -0.412   0.947  0.00  0.00    +0.009 C 
ATOM     34  C   UNL     1       1.841  -1.990   0.341  0.00  0.00    +0.009 C 
ENDBRANCH  31  32
ENDBRANCH  12  31
TORSDOF 5
