REMARK  Name = ZINC42191231
REMARK  6 active torsions:
REMARK  status: ('A' for Active; 'I' for Inactive)
REMARK    1  A    between atoms: C_1  and  C_2
REMARK    2  A    between atoms: C_2  and  C_3
REMARK    3  A    between atoms: C_2  and  C_4
REMARK    4  A    between atoms: C_2  and  N_5
REMARK    5  A    between atoms: N_8  and  C_9
REMARK    6  A    between atoms: C_18  and  O_20
REMARK                            x       y       z     vdW  Elec       q    Type
REMARK                         _______ _______ _______ _____ _____    ______ ____
ROOT
ATOM      1  C   UNL     1       3.998  -0.193  -2.779  0.00  0.00    +0.134 C 
ATOM      2  C   UNL     1       4.930  -1.186  -2.120  0.00  0.00    -0.021 A 
ATOM      3  C   UNL     1       4.883  -1.763  -0.862  0.00  0.00    +0.006 A 
ATOM      4  C   UNL     1       5.860  -2.658  -0.471  0.00  0.00    +0.000 A 
ATOM      5  C   UNL     1       6.889  -2.979  -1.337  0.00  0.00    +0.000 A 
ATOM      6  C   UNL     1       6.938  -2.404  -2.592  0.00  0.00    +0.004 A 
ATOM      7  C   UNL     1       5.959  -1.507  -2.986  0.00  0.00    -0.040 A 
ATOM      8  C   UNL     1       5.788  -0.751  -4.286  0.00  0.00    +0.069 C 
ATOM      9  C   UNL     1       4.319  -0.272  -4.287  0.00  0.00    +0.143 C 
ENDROOT
BRANCH   1  13
ATOM     10  N   UNL     1       0.688  -0.476  -1.203  0.00  0.00    -0.295 N 
ATOM     11  C   UNL     1       1.972  -0.132  -1.427  0.00  0.00    +0.301 C 
ATOM     12  O   UNL     1       2.561   0.570  -0.628  0.00  0.00    -0.253 OA
ATOM     13  N   UNL     1       2.602  -0.567  -2.536  0.00  0.00    -0.290 N 
ATOM     14  H   UNL     1       0.218  -1.037  -1.840  0.00  0.00    +0.151 HD
ATOM     15  H   UNL     1       2.132  -1.127  -3.173  0.00  0.00    +0.151 HD
BRANCH  10  17
ATOM     16  C   UNL     1      -0.019   1.526   0.010  0.00  0.00    +0.031 C 
ATOM     17  C   UNL     1       0.002  -0.004   0.002  0.00  0.00    +0.028 C 
ATOM     18  C   UNL     1       0.742  -0.511   1.242  0.00  0.00    +0.031 C 
ATOM     19  C   UNL     1      -1.433  -0.534   0.013  0.00  0.00    +0.031 C 
ENDBRANCH  10  17
ENDBRANCH   1  13
BRANCH   9  20
ATOM     20  O   UNL     1       3.475  -1.226  -4.936  0.00  0.00    -0.389 OA
ATOM     21  H   UNL     1       3.638  -1.313  -5.885  0.00  0.00    +0.210 HD
ENDBRANCH   9  20
TORSDOF 3
