REMARK  Name = ZINC65007299
REMARK  4 active torsions:
REMARK  status: ('A' for Active; 'I' for Inactive)
REMARK    1  A    between atoms: C_4  and  N_33
REMARK    2  A    between atoms: C_5  and  N_7
REMARK    3  A    between atoms: C_8  and  C_10
REMARK    4  A    between atoms: C_13  and  N_16
REMARK                            x       y       z     vdW  Elec       q    Type
REMARK                         _______ _______ _______ _____ _____    ______ ____
ROOT
ATOM      1  C   UNL     1       0.033  -4.169   0.025  0.00  0.00    +0.037 A 
ATOM      2  C   UNL     1       1.227  -4.871   0.212  0.00  0.00    +0.015 A 
ATOM      3  C   UNL     1       1.208  -6.244   0.312  0.00  0.00    +0.025 A 
ATOM      4  C   UNL     1       0.003  -6.932   0.228  0.00  0.00    +0.044 A 
ATOM      5  C   UNL     1      -1.187  -6.237   0.041  0.00  0.00    +0.025 A 
ATOM      6  C   UNL     1      -1.177  -4.864  -0.054  0.00  0.00    +0.015 A 
ENDROOT
BRANCH   4   7
ATOM      7  N   UNL     1      -0.013  -8.327   0.330  0.00  0.00    -0.210 N 
ATOM      8  C   UNL     1       1.113  -9.083   0.520  0.00  0.00    +0.231 C 
ATOM      9  O   UNL     1       2.215  -8.688   0.835  0.00  0.00    -0.274 OA
ATOM     10  C   UNL     1       0.703 -10.499   0.258  0.00  0.00    +0.095 C 
ATOM     11  C   UNL     1       1.328 -11.663   0.999  0.00  0.00    +0.024 C 
ATOM     12  C   UNL     1       0.804 -12.909   0.194  0.00  0.00    +0.009 C 
ATOM     13  C   UNL     1      -0.696 -12.704  -0.053  0.00  0.00    +0.009 C 
ATOM     14  C   UNL     1      -1.297 -11.735   0.976  0.00  0.00    +0.024 C 
ATOM     15  C   UNL     1      -0.762 -10.376   0.762  0.00  0.00    +0.095 C 
ATOM     16  C   UNL     1      -1.163  -9.082   0.257  0.00  0.00    +0.231 C 
ATOM     17  O   UNL     1      -2.257  -8.743  -0.140  0.00  0.00    -0.274 OA
ATOM     18  C   UNL     1      -0.675 -12.073   2.343  0.00  0.00    -0.027 C 
ATOM     19  C   UNL     1       0.667 -11.922   2.356  0.00  0.00    -0.027 C 
ENDBRANCH   4   7
BRANCH   1  21
ATOM     20  N   UNL     1       1.217  -2.028  -0.007  0.00  0.00    -0.280 N 
ATOM     21  C   UNL     1       0.049  -2.697  -0.084  0.00  0.00    +0.248 C 
ATOM     22  O   UNL     1      -0.991  -2.087  -0.241  0.00  0.00    -0.270 OA
ATOM     23  H   UNL     1       2.053  -2.517   0.042  0.00  0.00    +0.155 HD
BRANCH  20  28
ATOM     24  C   UNL     1       0.208   1.447   0.639  0.00  0.00    +0.002 A 
ATOM     25  C   UNL     1       1.234   2.137   0.017  0.00  0.00    +0.002 A 
ATOM     26  C   UNL     1       2.253   1.447  -0.612  0.00  0.00    +0.034 A 
ATOM     27  C   UNL     1       2.251   0.065  -0.622  0.00  0.00    +0.147 A 
ATOM     28  C   UNL     1       1.223  -0.630   0.001  0.00  0.00    +0.064 A 
ATOM     29  C   UNL     1       0.200   0.067   0.632  0.00  0.00    +0.025 A 
BRANCH  27  30
ATOM     30  N   UNL     1       3.342  -0.673  -1.296  0.00  0.00    +0.058 N 
ATOM     31  O   UNL     1       4.188  -0.070  -1.915  0.00  0.00    -0.126 OA
ATOM     32  O   UNL     1       3.388  -1.879  -1.228  0.00  0.00    -0.126 OA
ENDBRANCH  27  30
ENDBRANCH  20  28
ENDBRANCH   1  21
TORSDOF 4
