REMARK  Name = ZINC33385704
REMARK  6 active torsions:
REMARK  status: ('A' for Active; 'I' for Inactive)
REMARK    1  A    between atoms: C_1  and  C_2
REMARK    2  A    between atoms: C_5  and  S_11
REMARK    3  A    between atoms: C_7  and  N_8
REMARK    4  A    between atoms: S_11  and  O_14
REMARK    5  A    between atoms: O_14  and  C_15
REMARK    6  A    between atoms: C_18  and  C_21
REMARK                            x       y       z     vdW  Elec       q    Type
REMARK                         _______ _______ _______ _____ _____    ______ ____
ROOT
ATOM      1  C   UNL     1       1.689   5.622  -1.228  0.00  0.00    +0.157 A 
ATOM      2  C   UNL     1       0.429   5.702  -1.812  0.00  0.00    +0.049 A 
ATOM      3  C   UNL     1      -0.025   6.901  -2.311  0.00  0.00    +0.011 A 
ATOM      4  C   UNL     1       0.787   8.039  -2.241  0.00  0.00    -0.024 A 
ATOM      5  C   UNL     1       2.057   7.952  -1.657  0.00  0.00    +0.011 A 
ATOM      6  C   UNL     1       2.500   6.749  -1.155  0.00  0.00    +0.049 A 
ENDROOT
BRANCH   4   7
ATOM      7  C   UNL     1       0.310   9.320  -2.777  0.00  0.00    +0.028 C 
ATOM      8  C   UNL     1      -0.368   9.353  -3.952  0.00  0.00    +0.078 C 
ATOM      9  C   UNL     1      -0.584   8.283  -4.954  0.00  0.00    +0.256 C 
ATOM     10  O   UNL     1      -0.130   7.160  -4.804  0.00  0.00    -0.269 OA
ATOM     11  N   UNL     1      -1.295   8.609  -6.011  0.00  0.00    -0.261 N 
ATOM     12  C   UNL     1      -1.788   9.824  -6.188  0.00  0.00    +0.158 C 
ATOM     13  S   UNL     1      -1.245  10.703  -4.731  0.00  0.00    -0.049 S 
ATOM     14  N   UNL     1      -2.534  10.295  -7.236  0.00  0.00    -0.279 NA
ATOM     15  H   UNL     1      -2.875  11.341  -7.243  0.00  0.00    +0.189 HD
ATOM     16  H   UNL     1      -1.500   7.858  -6.788  0.00  0.00    +0.157 HD
ENDBRANCH   4   7
BRANCH   1  17
ATOM     17  O   UNL     1       2.131   4.438  -0.733  0.00  0.00    -0.342 OA
BRANCH  17  18
ATOM     18  S   UNL     1       1.784   4.211   0.732  0.00  0.00    +0.151 S 
ATOM     19  O   UNL     1       1.942   5.464   1.384  0.00  0.00    -0.131 OA
ATOM     20  O   UNL     1       2.488   3.046   1.140  0.00  0.00    -0.131 OA
BRANCH  18  25
ATOM     21  C   UNL     1      -4.090   2.858   0.978  0.00  0.00    +0.046 C 
ATOM     22  C   UNL     1      -2.623   3.196   0.919  0.00  0.00    -0.020 A 
ATOM     23  C   UNL     1      -1.687   2.188   0.778  0.00  0.00    +0.007 A 
ATOM     24  C   UNL     1      -0.341   2.499   0.719  0.00  0.00    +0.031 A 
ATOM     25  C   UNL     1       0.069   3.816   0.807  0.00  0.00    +0.130 A 
ATOM     26  C   UNL     1      -0.866   4.823   0.953  0.00  0.00    +0.063 A 
ATOM     27  C   UNL     1      -2.212   4.513   1.011  0.00  0.00    +0.131 A 
BRANCH  27  28
ATOM     28  N   UNL     1      -3.214   5.591   1.167  0.00  0.00    +0.057 N 
ATOM     29  O   UNL     1      -2.868   6.757   1.109  0.00  0.00    -0.126 OA
ATOM     30  O   UNL     1      -4.385   5.312   1.354  0.00  0.00    -0.126 OA
ENDBRANCH  27  28
ENDBRANCH  18  25
ENDBRANCH  17  18
ENDBRANCH   1  17
TORSDOF 5
