REMARK  Name = ZINC39949545
REMARK  10 active torsions:
REMARK  status: ('A' for Active; 'I' for Inactive)
REMARK    1  A    between atoms: C_1  and  C_2
REMARK    2  A    between atoms: C_2  and  C_36
REMARK    3  A    between atoms: N_11  and  C_26
REMARK    4  A    between atoms: N_14  and  N_15
REMARK    5  A    between atoms: C_16  and  C_17
REMARK    6  A    between atoms: C_20  and  N_23
REMARK    7  A    between atoms: N_23  and  C_24
REMARK    8  A    between atoms: N_23  and  C_25
REMARK    9  A    between atoms: C_29  and  O_32
REMARK   10  A    between atoms: O_32  and  C_33
REMARK                            x       y       z     vdW  Elec       q    Type
REMARK                         _______ _______ _______ _____ _____    ______ ____
ROOT
ATOM      1  C   UNL     1      -1.457   5.506   0.877  0.00  0.00    +0.041 C 
ATOM      2  C   UNL     1      -1.165   4.197   0.139  0.00  0.00    +0.068 C 
ATOM      3  C   UNL     1      -2.485   3.482  -0.166  0.00  0.00    +0.071 C 
ATOM      4  C   UNL     1      -3.070   2.983   1.153  0.00  0.00    -0.018 A 
ATOM      5  C   UNL     1      -2.269   2.886   2.242  0.00  0.00    +0.021 A 
ATOM      6  S   UNL     1      -3.317   2.281   3.537  0.00  0.00    -0.071 S 
ATOM      7  C   UNL     1      -4.822   2.159   2.621  0.00  0.00    +0.118 A 
ATOM      8  C   UNL     1      -4.458   2.596   1.326  0.00  0.00    +0.076 A 
ATOM      9  C   UNL     1      -5.486   2.613   0.328  0.00  0.00    +0.268 A 
ATOM     10  O   UNL     1      -5.270   2.973  -0.817  0.00  0.00    -0.266 OA
ATOM     11  N   UNL     1      -6.711   2.204   0.733  0.00  0.00    -0.247 N 
ATOM     12  C   UNL     1      -6.973   1.797   2.008  0.00  0.00    +0.224 A 
ATOM     13  N   UNL     1      -6.046   1.769   2.955  0.00  0.00    -0.207 NA
ATOM     14  N   UNL     1      -8.249   1.400   2.323  0.00  0.00    -0.206 N 
ATOM     15  C   UNL     1      -0.813   3.226   2.302  0.00  0.00    +0.203 C 
ATOM     16  O   UNL     1      -0.334   3.368   0.956  0.00  0.00    -0.368 OA
ATOM     17  C   UNL     1      -0.442   4.504  -1.173  0.00  0.00    +0.041 C 
ATOM     18  H   UNL     1      -8.932   1.369   1.635  0.00  0.00    +0.177 HD
ENDROOT
BRANCH  11  19
ATOM     19  C   UNL     1      -7.758   2.200  -0.200  0.00  0.00    +0.053 A 
ATOM     20  C   UNL     1      -8.767   3.149  -0.116  0.00  0.00    +0.030 A 
ATOM     21  C   UNL     1      -9.798   3.144  -1.035  0.00  0.00    +0.047 A 
ATOM     22  C   UNL     1      -9.825   2.190  -2.042  0.00  0.00    +0.120 A 
ATOM     23  C   UNL     1      -8.817   1.240  -2.126  0.00  0.00    +0.047 A 
ATOM     24  C   UNL     1      -7.782   1.249  -1.211  0.00  0.00    +0.030 A 
BRANCH  22  25
ATOM     25  O   UNL     1     -10.840   2.185  -2.946  0.00  0.00    -0.495 OA
ATOM     26  C   UNL     1     -10.846   1.129  -3.909  0.00  0.00    +0.277 C 
ENDBRANCH  22  25
ENDBRANCH  11  19
BRANCH  14  27
ATOM     27  N   UNL     1      -8.566   1.039   3.639  0.00  0.00    -0.188 NA
ATOM     28  C   UNL     1      -9.727   0.526   3.911  0.00  0.00    +0.138 C 
BRANCH  28  29
ATOM     29  C   UNL     1     -10.572  -0.001   2.824  0.00  0.00    -0.005 A 
ATOM     30  C   UNL     1     -11.950  -0.136   3.011  0.00  0.00    +0.011 A 
ATOM     31  C   UNL     1     -12.737  -0.629   1.993  0.00  0.00    +0.024 A 
ATOM     32  C   UNL     1     -12.160  -0.993   0.780  0.00  0.00    +0.029 A 
ATOM     33  C   UNL     1     -10.789  -0.861   0.591  0.00  0.00    +0.024 A 
ATOM     34  C   UNL     1      -9.997  -0.362   1.602  0.00  0.00    +0.011 A 
BRANCH  32  35
ATOM     35  N   UNL     1     -12.960  -1.492  -0.248  0.00  0.00    -0.336 N 
ATOM     36  C   UNL     1     -14.407  -1.614  -0.057  0.00  0.00    +0.129 C 
ATOM     37  C   UNL     1     -12.352  -1.894  -1.519  0.00  0.00    +0.129 C 
ENDBRANCH  32  35
ENDBRANCH  28  29
ENDBRANCH  14  27
TORSDOF 5
