REMARK  Name = ZINC43043012
REMARK  6 active torsions:
REMARK  status: ('A' for Active; 'I' for Inactive)
REMARK    1  A    between atoms: C_1  and  C_2
REMARK    2  A    between atoms: C_7  and  N_12
REMARK    3  A    between atoms: C_9  and  C_11
REMARK    4  A    between atoms: N_15  and  N_16
REMARK    5  A    between atoms: C_17  and  C_19
REMARK    6  A    between atoms: C_19  and  C_20
REMARK                            x       y       z     vdW  Elec       q    Type
REMARK                         _______ _______ _______ _____ _____    ______ ____
ROOT
ATOM      1  N   UNL     1       0.735  -0.503   3.687  0.00  0.00    -0.295 N 
ATOM      2  C   UNL     1       0.634   0.166   4.853  0.00  0.00    +0.316 C 
ATOM      3  O   UNL     1      -0.045   1.173   4.919  0.00  0.00    -0.251 OA
ATOM      4  N   UNL     1       1.286  -0.280   5.945  0.00  0.00    -0.218 N 
ATOM      5  H   UNL     1       1.276  -1.306   3.634  0.00  0.00    +0.151 HD
ATOM      6  H   UNL     1       1.213   0.201   6.784  0.00  0.00    +0.174 HD
ENDROOT
BRANCH   1  12
ATOM      7  C   UNL     1      -0.019   1.526   0.010  0.00  0.00    +0.008 C 
ATOM      8  C   UNL     1       0.002  -0.004   0.002  0.00  0.00    -0.009 C 
ATOM      9  C   UNL     1      -1.433  -0.534   0.013  0.00  0.00    +0.003 C 
ATOM     10  C   UNL     1      -2.149  -0.040   1.272  0.00  0.00    +0.002 C 
ATOM     11  C   UNL     1      -1.409  -0.547   2.511  0.00  0.00    +0.022 C 
ATOM     12  C   UNL     1       0.026  -0.018   2.500  0.00  0.00    +0.078 C 
ATOM     13  C   UNL     1       0.742  -0.511   1.242  0.00  0.00    +0.009 C 
ATOM     14  C   UNL     1       2.178   0.019   1.231  0.00  0.00    +0.009 C 
ENDBRANCH   1  12
BRANCH   4  15
ATOM     15  N   UNL     1       2.068  -1.440   5.868  0.00  0.00    -0.233 N 
ATOM     16  C   UNL     1       2.720  -1.886   6.960  0.00  0.00    +0.229 C 
ATOM     17  O   UNL     1       2.629  -1.284   8.009  0.00  0.00    -0.274 OA
ATOM     18  H   UNL     1       2.140  -1.921   5.029  0.00  0.00    +0.173 HD
BRANCH  16  19
ATOM     19  C   UNL     1       3.561  -3.134   6.878  0.00  0.00    +0.102 C 
BRANCH  19  20
ATOM     20  C   UNL     1       4.187  -3.418   8.245  0.00  0.00    +0.020 C 
ATOM     21  C   UNL     1       5.193  -2.310   8.596  0.00  0.00    +0.028 C 
ATOM     22  C   UNL     1       6.056  -2.745   9.805  0.00  0.00    +0.166 C 
ATOM     23  S   UNL     1       6.062  -4.578   9.658  0.00  0.00    -0.031 S 
ATOM     24  O   UNL     1       7.369  -5.009   9.304  0.00  0.00    -0.174 OA
ATOM     25  O   UNL     1       5.428  -5.136  10.801  0.00  0.00    -0.174 OA
ATOM     26  C   UNL     1       4.952  -4.771   8.201  0.00  0.00    +0.170 C 
ENDBRANCH  19  20
ENDBRANCH  16  19
ENDBRANCH   4  15
TORSDOF 4
