REMARK  Name = ZINC08157275
REMARK  3 active torsions:
REMARK  status: ('A' for Active; 'I' for Inactive)
REMARK    1  A    between atoms: C_4  and  N_7
REMARK    2  A    between atoms: N_16  and  C_19
REMARK    3  A    between atoms: C_22  and  C_24
REMARK                            x       y       z     vdW  Elec       q    Type
REMARK                         _______ _______ _______ _____ _____    ______ ____
ROOT
ATOM      1  N   UNL     1      -1.568   6.187   8.516  0.00  0.00    -0.181 N 
ATOM      2  C   UNL     1      -2.053   4.921   8.478  0.00  0.00    +0.242 A 
ATOM      3  N   UNL     1      -1.337   4.208   9.319  0.00  0.00    -0.092 NA
ATOM      4  N   UNL     1      -0.435   4.936   9.872  0.00  0.00    -0.021 NA
ATOM      5  N   UNL     1      -0.511   6.149   9.441  0.00  0.00    -0.038 NA
ATOM      6  N   UNL     1      -3.107   4.467   7.704  0.00  0.00    -0.297 N 
ATOM      7  C   UNL     1      -3.595   3.156   8.189  0.00  0.00    +0.109 C 
ATOM      8  C   UNL     1      -4.534   2.484   7.221  0.00  0.00    +0.038 C 
ATOM      9  C   UNL     1      -3.719   1.548   6.299  0.00  0.00    +0.108 C 
ATOM     10  N   UNL     1      -3.019   2.270   5.324  0.00  0.00    -0.315 N 
ATOM     11  C   UNL     1      -2.025   3.223   5.860  0.00  0.00    +0.125 C 
ATOM     12  C   UNL     1      -2.753   4.478   6.270  0.00  0.00    +0.127 C 
ENDROOT
BRANCH  10  13
ATOM     13  C   UNL     1      -2.439   1.417   4.393  0.00  0.00    +0.099 A 
ATOM     14  C   UNL     1      -1.698   1.945   3.340  0.00  0.00    +0.042 A 
ATOM     15  C   UNL     1      -1.122   1.084   2.424  0.00  0.00    +0.017 A 
ATOM     16  C   UNL     1      -1.316  -0.282   2.586  0.00  0.00    +0.071 A 
ATOM     17  C   UNL     1      -2.062  -0.737   3.653  0.00  0.00    +0.096 A 
ATOM     18  N   UNL     1      -2.639   0.080   4.576  0.00  0.00    -0.349 N 
ATOM     19  H   UNL     1      -3.189  -0.287   5.361  0.00  0.00    +0.167 HD
BRANCH  16  20
ATOM     20  C   UNL     1      -0.712  -1.257   1.609  0.00  0.00    +0.419 C 
ATOM     21  F   UNL     1      -1.042  -2.562   1.988  0.00  0.00    -0.166 F 
ATOM     22  F   UNL     1       0.680  -1.110   1.604  0.00  0.00    -0.166 F 
ATOM     23  F   UNL     1      -1.212  -1.003   0.327  0.00  0.00    -0.166 F 
ENDBRANCH  16  20
ENDBRANCH  10  13
BRANCH   1  27
ATOM     24  C   UNL     1      -2.923   9.485   6.355  0.00  0.00    +0.000 A 
ATOM     25  C   UNL     1      -3.832   8.601   6.906  0.00  0.00    +0.002 A 
ATOM     26  C   UNL     1      -3.386   7.507   7.623  0.00  0.00    +0.028 A 
ATOM     27  C   UNL     1      -2.024   7.296   7.788  0.00  0.00    +0.071 A 
ATOM     28  C   UNL     1      -1.114   8.188   7.237  0.00  0.00    +0.028 A 
ATOM     29  C   UNL     1      -1.566   9.277   6.517  0.00  0.00    +0.002 A 
ENDBRANCH   1  27
TORSDOF 3
