REMARK  Name = ZINC16920995
REMARK  7 active torsions:
REMARK  status: ('A' for Active; 'I' for Inactive)
REMARK    1  A    between atoms: C_1  and  C_2
REMARK    2  A    between atoms: C_6  and  C_8
REMARK    3  A    between atoms: N_12  and  C_16
REMARK    4  A    between atoms: C_16  and  C_17
REMARK    5  A    between atoms: N_19  and  C_20
REMARK    6  A    between atoms: C_22  and  N_27
REMARK    7  A    between atoms: C_25  and  O_26
REMARK                            x       y       z     vdW  Elec       q    Type
REMARK                         _______ _______ _______ _____ _____    ______ ____
ROOT
ATOM      1  C   UNL     1      -0.318  -7.440   4.316  0.00  0.00    +0.213 C 
ENDROOT
BRANCH   1   6
ATOM      2  C   UNL     1       0.083  -2.873   2.420  0.00  0.00    +0.028 C 
ATOM      3  C   UNL     1      -0.016  -4.225   2.412  0.00  0.00    +0.080 C 
ATOM      4  C   UNL     1      -0.125  -5.169   3.544  0.00  0.00    +0.261 C 
ATOM      5  O   UNL     1      -0.137  -4.785   4.699  0.00  0.00    -0.269 OA
ATOM      6  N   UNL     1      -0.208  -6.453   3.238  0.00  0.00    -0.219 N 
ATOM      7  C   UNL     1      -0.195  -6.875   1.958  0.00  0.00    +0.286 C 
ATOM      8  O   UNL     1      -0.264  -8.014   1.537  0.00  0.00    -0.262 OA
ATOM      9  S   UNL     1      -0.059  -5.356   1.028  0.00  0.00    -0.026 S 
BRANCH   2  15
ATOM     10  C   UNL     1      -1.271  -2.566  -2.368  0.00  0.00    +0.044 C 
ATOM     11  C   UNL     1      -0.605  -1.972  -1.154  0.00  0.00    -0.050 A 
ATOM     12  C   UNL     1      -0.025  -0.717  -1.230  0.00  0.00    +0.003 A 
ATOM     13  C   UNL     1       0.590  -0.163  -0.121  0.00  0.00    +0.001 A 
ATOM     14  C   UNL     1       0.629  -0.857   1.069  0.00  0.00    +0.008 A 
ATOM     15  C   UNL     1       0.045  -2.126   1.154  0.00  0.00    -0.024 A 
ATOM     16  C   UNL     1      -0.579  -2.677   0.030  0.00  0.00    +0.011 A 
ENDBRANCH   2  15
ENDBRANCH   1   6
BRANCH   1  17
ATOM     17  C   UNL     1      -1.772  -7.674   4.636  0.00  0.00    +0.235 C 
ATOM     18  O   UNL     1      -2.632  -7.076   4.025  0.00  0.00    -0.274 OA
ATOM     19  N   UNL     1      -2.116  -8.549   5.602  0.00  0.00    -0.281 N 
ATOM     20  H   UNL     1      -1.430  -8.963   6.149  0.00  0.00    +0.155 HD
BRANCH  19  21
ATOM     21  C   UNL     1      -3.465  -8.860   5.817  0.00  0.00    +0.078 A 
ATOM     22  C   UNL     1      -4.385  -8.714   4.789  0.00  0.00    +0.059 A 
ATOM     23  C   UNL     1      -5.715  -9.022   5.003  0.00  0.00    +0.128 A 
ATOM     24  C   UNL     1      -6.133  -9.476   6.240  0.00  0.00    +0.036 A 
ATOM     25  C   UNL     1      -5.222  -9.623   7.270  0.00  0.00    +0.049 A 
ATOM     26  C   UNL     1      -3.886  -9.323   7.062  0.00  0.00    +0.138 A 
BRANCH  23  27
ATOM     27  N   UNL     1      -6.695  -8.865   3.904  0.00  0.00    +0.056 N 
ATOM     28  O   UNL     1      -6.331  -8.468   2.822  0.00  0.00    -0.126 OA
ATOM     29  O   UNL     1      -7.859  -9.134   4.090  0.00  0.00    -0.126 OA
ENDBRANCH  23  27
BRANCH  26  30
ATOM     30  O   UNL     1      -2.988  -9.473   8.072  0.00  0.00    -0.505 OA
ATOM     31  H   UNL     1      -2.879  -8.686   8.622  0.00  0.00    +0.292 HD
ENDBRANCH  26  30
ENDBRANCH  19  21
ENDBRANCH   1  17
TORSDOF 6
