REMARK  Name = ZINC51362205
REMARK  7 active torsions:
REMARK  status: ('A' for Active; 'I' for Inactive)
REMARK    1  A    between atoms: C_1  and  C_2
REMARK    2  A    between atoms: C_2  and  N_3
REMARK    3  A    between atoms: N_3  and  C_4
REMARK    4  A    between atoms: C_4  and  C_6
REMARK    5  A    between atoms: C_4  and  C_17
REMARK    6  A    between atoms: N_15  and  C_16
REMARK    7  A    between atoms: C_21  and  C_22
REMARK                            x       y       z     vdW  Elec       q    Type
REMARK                         _______ _______ _______ _____ _____    ______ ____
ROOT
ATOM      1  C   UNL     1       0.710  -1.947  -1.215  0.00  0.00    -0.007 C 
ENDROOT
BRANCH   1   2
ATOM      2  C   UNL     1       1.304  -2.434  -2.511  0.00  0.00    -0.053 A 
ATOM      3  C   UNL     1       2.397  -1.782  -3.055  0.00  0.00    +0.004 A 
ATOM      4  C   UNL     1       2.948  -2.223  -4.243  0.00  0.00    +0.030 A 
ATOM      5  C   UNL     1       2.404  -3.321  -4.889  0.00  0.00    +0.090 A 
ATOM      6  C   UNL     1       1.303  -3.979  -4.342  0.00  0.00    +0.157 A 
ATOM      7  C   UNL     1       0.760  -3.532  -3.147  0.00  0.00    +0.051 A 
ATOM      8  O   UNL     1       0.989  -5.000  -5.176  0.00  0.00    -0.407 OA
ATOM      9  C   UNL     1       1.843  -5.003  -6.211  0.00  0.00    +0.421 A 
ATOM     10  O   UNL     1       1.826  -5.796  -7.133  0.00  0.00    -0.223 OA
ATOM     11  N   UNL     1       2.722  -3.992  -6.070  0.00  0.00    -0.277 N 
ATOM     12  C   UNL     1       3.813  -3.658  -6.989  0.00  0.00    +0.156 C 
ENDBRANCH   1   2
BRANCH   1  13
ATOM     13  C   UNL     1       1.542  -2.444  -0.061  0.00  0.00    -0.017 A 
ATOM     14  C   UNL     1       2.513  -1.708   0.657  0.00  0.00    +0.043 A 
ATOM     15  C   UNL     1       3.010  -2.531   1.597  0.00  0.00    +0.195 A 
ATOM     16  O   UNL     1       2.396  -3.721   1.487  0.00  0.00    -0.468 OA
ATOM     17  C   UNL     1       1.501  -3.672   0.486  0.00  0.00    +0.104 A 
ATOM     18  C   UNL     1       0.605  -4.802   0.049  0.00  0.00    +0.086 C 
ENDBRANCH   1  13
BRANCH   1  19
ATOM     19  N   UNL     1       0.690  -0.478  -1.207  0.00  0.00    +0.386 N 
ATOM     20  H   UNL     1       0.202  -0.144  -2.024  0.00  0.00    -0.085 HD
ATOM     21  H   UNL     1       1.636  -0.129  -1.214  0.00  0.00    -0.085 HD
BRANCH  19  23
ATOM     22  C   UNL     1      -0.019   1.526   0.010  0.00  0.00    -0.017 C 
ATOM     23  C   UNL     1       0.002  -0.004   0.002  0.00  0.00    -0.085 C 
ENDBRANCH  19  23
ENDBRANCH   1  19
TORSDOF 4
