REMARK  Name = ZINC06727375
REMARK  6 active torsions:
REMARK  status: ('A' for Active; 'I' for Inactive)
REMARK    1  A    between atoms: C_1  and  N_43
REMARK    2  A    between atoms: C_9  and  O_24
REMARK    3  A    between atoms: C_11  and  C_14
REMARK    4  A    between atoms: C_18  and  O_21
REMARK    5  A    between atoms: C_19  and  O_20
REMARK    6  A    between atoms: O_21  and  C_22
REMARK                            x       y       z     vdW  Elec       q    Type
REMARK                         _______ _______ _______ _____ _____    ______ ____
ROOT
ATOM      1  C   UNL     1      -0.350  -2.969  -8.277  0.00  0.00    -0.096 C 
ATOM      2  C   UNL     1       1.196  -3.627  -6.532  0.00  0.00    -0.074 C 
ATOM      3  C   UNL     1       1.851  -3.141  -5.237  0.00  0.00    +0.018 C 
ATOM      4  C   UNL     1       0.762  -2.983  -4.182  0.00  0.00    -0.027 A 
ATOM      5  C   UNL     1      -0.538  -2.911  -4.558  0.00  0.00    -0.021 A 
ATOM      6  S   UNL     1      -1.441  -2.738  -3.043  0.00  0.00    -0.080 S 
ATOM      7  C   UNL     1      -0.127  -2.764  -1.947  0.00  0.00    +0.080 A 
ATOM      8  C   UNL     1       1.009  -2.900  -2.756  0.00  0.00    +0.067 A 
ATOM      9  C   UNL     1       2.328  -2.939  -2.074  0.00  0.00    +0.220 C 
ATOM     10  N   UNL     1       2.365  -2.647  -0.805  0.00  0.00    -0.223 NA
ATOM     11  C   UNL     1       1.224  -2.189  -0.022  0.00  0.00    +0.227 C 
ATOM     12  N   UNL     1      -0.050  -2.681  -0.577  0.00  0.00    -0.313 N 
ATOM     13  C   UNL     1      -1.063  -2.967  -5.958  0.00  0.00    -0.036 C 
ATOM     14  H   UNL     1      -0.793  -2.933  -0.007  0.00  0.00    +0.149 HD
ATOM     15  N   UNL     1       0.074  -2.731  -6.880  0.00  0.00    +0.381 N 
ATOM     16  H   UNL     1       0.383  -1.756  -6.787  0.00  0.00    -0.082 HD
ENDROOT
BRANCH  11  17
ATOM     17  C   UNL     1       1.207  -0.682  -0.014  0.00  0.00    +0.041 A 
ATOM     18  C   UNL     1       0.002  -0.004   0.002  0.00  0.00    +0.031 A 
ATOM     19  C   UNL     1      -0.017   1.379   0.010  0.00  0.00    +0.045 A 
ATOM     20  C   UNL     1       1.171   2.090   0.002  0.00  0.00    +0.069 A 
ATOM     21  C   UNL     1       2.381   1.416  -0.013  0.00  0.00    +0.163 A 
ATOM     22  C   UNL     1       2.399   0.024  -0.021  0.00  0.00    +0.165 A 
ATOM     23 CL   UNL     1      -1.533   2.225   0.021  0.00  0.00    -0.083 Cl
BRANCH  22  24
ATOM     24  O   UNL     1       3.585  -0.642  -0.037  0.00  0.00    -0.503 OA
ATOM     25  H   UNL     1       3.919  -0.829  -0.925  0.00  0.00    +0.292 HD
ENDBRANCH  22  24
BRANCH  21  26
ATOM     26  O   UNL     1       3.549   2.112  -0.021  0.00  0.00    -0.491 OA
ATOM     27  C   UNL     1       3.454   3.538  -0.012  0.00  0.00    +0.277 C 
ENDBRANCH  21  26
ENDBRANCH  11  17
BRANCH   9  28
ATOM     28  O   UNL     1       3.454  -3.266  -2.750  0.00  0.00    -0.492 OA
ATOM     29  H   UNL     1       4.255  -3.259  -2.207  0.00  0.00    +0.294 HD
ENDBRANCH   9  28
TORSDOF 4
