REMARK  Name = ZINC46079188
REMARK  10 active torsions:
REMARK  status: ('A' for Active; 'I' for Inactive)
REMARK    1  A    between atoms: C_1  and  C_2
REMARK    2  A    between atoms: C_2  and  C_3
REMARK    3  A    between atoms: C_3  and  C_5
REMARK    4  A    between atoms: C_3  and  N_16
REMARK    5  A    between atoms: N_7  and  C_8
REMARK    6  A    between atoms: C_12  and  C_15
REMARK    7  A    between atoms: C_13  and  C_14
REMARK    8  A    between atoms: C_19  and  N_29
REMARK    9  A    between atoms: C_21  and  C_23
REMARK   10  A    between atoms: C_30  and  C_32
REMARK                            x       y       z     vdW  Elec       q    Type
REMARK                         _______ _______ _______ _____ _____    ______ ____
ROOT
ATOM      1  N   UNL     1       2.192  -0.089   1.125  0.00  0.00    -0.215 N 
ATOM      2  C   UNL     1       2.737   0.685   2.085  0.00  0.00    +0.289 A 
ATOM      3  O   UNL     1       2.055   1.077   3.018  0.00  0.00    -0.264 OA
ATOM      4  C   UNL     1       4.106   1.040   2.002  0.00  0.00    +0.102 A 
ATOM      5  C   UNL     1       4.848   0.589   0.949  0.00  0.00    +0.059 A 
ATOM      6  C   UNL     1       4.243  -0.218  -0.035  0.00  0.00    +0.093 A 
ATOM      7  N   UNL     1       2.973  -0.544   0.057  0.00  0.00    -0.167 NA
ENDROOT
BRANCH   6   8
ATOM      8  C   UNL     1       5.048  -0.709  -1.182  0.00  0.00    +0.002 A 
ATOM      9  C   UNL     1       6.397  -0.378  -1.282  0.00  0.00    +0.010 A 
ATOM     10  C   UNL     1       7.141  -0.838  -2.349  0.00  0.00    +0.001 A 
ATOM     11  C   UNL     1       6.548  -1.626  -3.320  0.00  0.00    +0.000 A 
ATOM     12  C   UNL     1       5.209  -1.958  -3.226  0.00  0.00    +0.001 A 
ATOM     13  C   UNL     1       4.457  -1.508  -2.159  0.00  0.00    +0.010 A 
ENDBRANCH   6   8
BRANCH   4  14
ATOM     14  N   UNL     1       4.690   1.842   2.986  0.00  0.00    -0.281 N 
ATOM     15  C   UNL     1       4.705   1.430   4.270  0.00  0.00    +0.214 C 
ATOM     16  O   UNL     1       4.134   0.407   4.585  0.00  0.00    -0.276 OA
ATOM     17  C   UNL     1       5.430   2.241   5.313  0.00  0.00    +0.109 C 
ATOM     18  H   UNL     1       5.084   2.695   2.746  0.00  0.00    +0.155 HD
ENDBRANCH   4  14
BRANCH   1  19
ATOM     19  C   UNL     1       0.777  -0.461   1.204  0.00  0.00    +0.196 C 
BRANCH  19  20
ATOM     20  C   UNL     1       0.655  -1.961   1.274  0.00  0.00    +0.242 C 
ATOM     21  O   UNL     1       1.652  -2.652   1.260  0.00  0.00    -0.273 OA
ATOM     22  N   UNL     1      -0.562  -2.535   1.352  0.00  0.00    -0.284 N 
ATOM     23  H   UNL     1      -1.354  -1.983   1.445  0.00  0.00    +0.155 HD
BRANCH  22  24
ATOM     24  C   UNL     1      -0.683  -3.928   1.301  0.00  0.00    +0.037 A 
ATOM     25  C   UNL     1       0.297  -4.689   0.676  0.00  0.00    +0.023 A 
ATOM     26  C   UNL     1       0.174  -6.064   0.626  0.00  0.00    +0.002 A 
ATOM     27  C   UNL     1      -0.922  -6.683   1.198  0.00  0.00    +0.004 A 
ATOM     28  C   UNL     1      -1.899  -5.928   1.820  0.00  0.00    -0.046 A 
ATOM     29  C   UNL     1      -1.780  -4.553   1.879  0.00  0.00    -0.026 A 
ATOM     30  C   UNL     1      -2.841  -3.732   2.564  0.00  0.00    +0.046 C 
ATOM     31  C   UNL     1      -3.093  -6.607   2.441  0.00  0.00    +0.044 C 
ENDBRANCH  22  24
ENDBRANCH  19  20
BRANCH  19  33
ATOM     32  C   UNL     1       0.062   1.583  -0.043  0.00  0.00    +0.006 C 
ATOM     33  C   UNL     1       0.045   0.053  -0.038  0.00  0.00    +0.033 C 
ENDBRANCH  19  33
ENDBRANCH   1  19
TORSDOF 6
