REMARK  Name = ZINC55189528
REMARK  2 active torsions:
REMARK  status: ('A' for Active; 'I' for Inactive)
REMARK    1  A    between atoms: C_2  and  C_9
REMARK    2  A    between atoms: C_11  and  C_14
REMARK                            x       y       z     vdW  Elec       q    Type
REMARK                         _______ _______ _______ _____ _____    ______ ____
ROOT
ATOM      1  C   UNL     1       1.166   3.574   0.010  0.00  0.00    +0.203 A 
ATOM      2  N   UNL     1       2.249   4.365  -0.002  0.00  0.00    -0.186 NA
ATOM      3  C   UNL     1       1.881   5.628   0.010  0.00  0.00    +0.278 A 
ATOM      4  O   UNL     1       0.537   5.673   0.029  0.00  0.00    -0.331 OA
ATOM      5  N   UNL     1       0.092   4.325   0.023  0.00  0.00    -0.056 NA
ENDROOT
BRANCH   1   7
ATOM      6  C   UNL     1      -0.017   1.378   0.010  0.00  0.00    +0.050 A 
ATOM      7  C   UNL     1       1.181   2.089   0.002  0.00  0.00    +0.028 A 
ATOM      8  C   UNL     1       2.393   1.403  -0.013  0.00  0.00    +0.050 A 
ATOM      9  C   UNL     1       2.403   0.021  -0.021  0.00  0.00    +0.127 A 
ATOM     10  C   UNL     1       1.210  -0.682  -0.013  0.00  0.00    +0.076 A 
ATOM     11  C   UNL     1       0.002  -0.004   0.002  0.00  0.00    +0.127 A 
ATOM     12  F   UNL     1      -1.159  -0.695   0.010  0.00  0.00    -0.205 F 
ATOM     13  F   UNL     1       3.578  -0.646  -0.036  0.00  0.00    -0.205 F 
ENDBRANCH   1   7
BRANCH   3  14
ATOM     14  C   UNL     1       2.786   6.792   0.003  0.00  0.00    +0.137 A 
ATOM     15  C   UNL     1       2.279   8.065   0.022  0.00  0.00    +0.081 A 
ATOM     16  S   UNL     1       3.788   9.025   0.004  0.00  0.00    -0.060 S 
ATOM     17  C   UNL     1       4.930   7.651  -0.026  0.00  0.00    +0.156 A 
ATOM     18  N   UNL     1       4.109   6.620  -0.015  0.00  0.00    -0.220 NA
ATOM     19  N   UNL     1       6.315   7.666  -0.049  0.00  0.00    -0.338 N 
ATOM     20  H   UNL     1       6.791   8.511  -0.050  0.00  0.00    +0.144 HD
ATOM     21  H   UNL     1       6.809   6.831  -0.064  0.00  0.00    +0.144 HD
ENDBRANCH   3  14
TORSDOF 2
