REMARK  Name = ZINC18166977
REMARK  8 active torsions:
REMARK  status: ('A' for Active; 'I' for Inactive)
REMARK    1  A    between atoms: C_1  and  C_2
REMARK    2  A    between atoms: C_2  and  C_3
REMARK    3  A    between atoms: C_2  and  C_4
REMARK    4  A    between atoms: C_4  and  C_5
REMARK    5  A    between atoms: C_5  and  C_7
REMARK    6  A    between atoms: C_5  and  N_19
REMARK    7  A    between atoms: N_9  and  C_10
REMARK    8  A    between atoms: C_13  and  N_16
REMARK                            x       y       z     vdW  Elec       q    Type
REMARK                         _______ _______ _______ _____ _____    ______ ____
ROOT
ATOM      1  N   UNL     1       2.851  -0.753  -0.092  0.00  0.00    -0.230 N 
ATOM      2  C   UNL     1       2.945  -2.085  -0.002  0.00  0.00    +0.227 C 
ATOM      3  O   UNL     1       2.504  -2.877  -0.807  0.00  0.00    -0.275 OA
ATOM      4  C   UNL     1       3.690  -2.446   1.265  0.00  0.00    +0.100 C 
ATOM      5  C   UNL     1       4.015  -1.080   1.895  0.00  0.00    +0.100 C 
ATOM      6  C   UNL     1       3.423  -0.087   0.919  0.00  0.00    +0.227 C 
ATOM      7  O   UNL     1       3.458   1.119   1.036  0.00  0.00    -0.275 OA
ATOM      8  C   UNL     1       5.540  -0.855   1.979  0.00  0.00    +0.062 C 
ATOM      9  C   UNL     1       6.054  -1.033   0.559  0.00  0.00    -0.035 A 
ATOM     10  C   UNL     1       6.748  -0.089  -0.143  0.00  0.00    +0.004 A 
ATOM     11  C   UNL     1       7.159  -0.385  -1.437  0.00  0.00    +0.000 A 
ATOM     12  C   UNL     1       6.870  -1.613  -2.000  0.00  0.00    +0.000 A 
ATOM     13  C   UNL     1       6.163  -2.568  -1.280  0.00  0.00    +0.004 A 
ATOM     14  C   UNL     1       5.761  -2.271  -0.010  0.00  0.00    -0.035 A 
ATOM     15  C   UNL     1       4.973  -3.216   0.883  0.00  0.00    +0.062 C 
ATOM     16  C   UNL     1       5.796  -3.291   2.159  0.00  0.00    -0.035 A 
ATOM     17  C   UNL     1       6.084  -2.047   2.750  0.00  0.00    -0.035 A 
ATOM     18  C   UNL     1       6.804  -1.964   3.908  0.00  0.00    +0.004 A 
ATOM     19  C   UNL     1       7.239  -3.137   4.510  0.00  0.00    +0.000 A 
ATOM     20  C   UNL     1       6.946  -4.365   3.947  0.00  0.00    +0.000 A 
ATOM     21  C   UNL     1       6.223  -4.448   2.745  0.00  0.00    +0.004 A 
ENDROOT
BRANCH   1  22
ATOM     22  C   UNL     1       2.183  -0.079  -1.208  0.00  0.00    +0.170 C 
BRANCH  22  23
ATOM     23  C   UNL     1       2.864  -0.450  -2.500  0.00  0.00    +0.238 C 
ATOM     24  O   UNL     1       3.814  -1.203  -2.490  0.00  0.00    -0.273 OA
ATOM     25  N   UNL     1       2.417   0.055  -3.667  0.00  0.00    -0.284 N 
ATOM     26  H   UNL     1       1.617   0.604  -3.683  0.00  0.00    +0.155 HD
BRANCH  25  27
ATOM     27  C   UNL     1       3.107  -0.211  -4.854  0.00  0.00    +0.034 A 
ATOM     28  C   UNL     1       3.717  -1.444  -5.043  0.00  0.00    +0.025 A 
ATOM     29  C   UNL     1       4.397  -1.704  -6.217  0.00  0.00    +0.034 A 
ATOM     30  C   UNL     1       4.472  -0.738  -7.203  0.00  0.00    +0.126 A 
ATOM     31  C   UNL     1       3.866   0.491  -7.018  0.00  0.00    +0.034 A 
ATOM     32  C   UNL     1       3.179   0.755  -5.849  0.00  0.00    +0.025 A 
BRANCH  30  33
ATOM     33  N   UNL     1       5.202  -1.020  -8.459  0.00  0.00    +0.056 N 
ATOM     34  O   UNL     1       5.732  -2.094  -8.622  0.00  0.00    -0.126 OA
ATOM     35  O   UNL     1       5.268  -0.176  -9.323  0.00  0.00    -0.126 OA
ENDBRANCH  30  33
ENDBRANCH  25  27
ENDBRANCH  22  23
BRANCH  22  36
ATOM     36  C   UNL     1       0.717  -0.513  -1.262  0.00  0.00    +0.035 C 
BRANCH  36  38
ATOM     37  C   UNL     1      -0.036   1.504   0.007  0.00  0.00    +0.007 C 
ATOM     38  C   UNL     1      -0.006  -0.026  -0.004  0.00  0.00    -0.015 C 
ATOM     39  C   UNL     1      -1.438  -0.565   0.003  0.00  0.00    +0.007 C 
ENDBRANCH  36  38
ENDBRANCH  22  36
ENDBRANCH   1  22
TORSDOF 6
