REMARK  Name = ZINC10757037
REMARK  7 active torsions:
REMARK  status: ('A' for Active; 'I' for Inactive)
REMARK    1  A    between atoms: C_1  and  C_2
REMARK    2  A    between atoms: N_11  and  C_15
REMARK    3  A    between atoms: C_15  and  C_16
REMARK    4  A    between atoms: C_16  and  O_18
REMARK    5  A    between atoms: O_18  and  C_19
REMARK    6  A    between atoms: C_19  and  C_20
REMARK    7  A    between atoms: N_22  and  C_23
REMARK                            x       y       z     vdW  Elec       q    Type
REMARK                         _______ _______ _______ _____ _____    ______ ____
ROOT
ATOM      1  C   UNL     1      -1.314  -2.521   6.563  0.00  0.00    +0.326 C 
ATOM      2  O   UNL     1      -0.860  -1.605   5.919  0.00  0.00    -0.249 OA
ENDROOT
BRANCH   1   3
ATOM      3  C   UNL     1      -1.350  -3.909   5.978  0.00  0.00    +0.238 C 
BRANCH   3  13
ATOM      4  C   UNL     1      -0.061  -1.289   2.609  0.00  0.00    +0.010 C 
ATOM      5  C   UNL     1      -0.449  -2.400   1.632  0.00  0.00    +0.018 C 
ATOM      6  C   UNL     1       0.590  -2.479   0.510  0.00  0.00    +0.006 C 
ATOM      7  C   UNL     1       0.212  -3.603  -0.456  0.00  0.00    +0.000 C 
ATOM      8  C   UNL     1       0.183  -4.936   0.295  0.00  0.00    +0.003 C 
ATOM      9  C   UNL     1      -0.857  -4.866   1.415  0.00  0.00    +0.035 C 
ATOM     10  C   UNL     1      -0.502  -3.733   2.371  0.00  0.00    +0.115 C 
ATOM     11  C   UNL     1      -1.498  -3.667   3.506  0.00  0.00    +0.247 C 
ATOM     12  O   UNL     1      -2.690  -3.462   3.425  0.00  0.00    -0.273 OA
ATOM     13  N   UNL     1      -0.780  -3.884   4.628  0.00  0.00    -0.213 N 
ATOM     14  C   UNL     1       0.516  -4.075   4.354  0.00  0.00    +0.310 C 
ATOM     15  O   UNL     1       1.361  -4.289   5.202  0.00  0.00    -0.252 OA
ATOM     16  N   UNL     1       0.779  -4.003   3.036  0.00  0.00    -0.285 N 
ATOM     17  H   UNL     1       1.644  -4.108   2.609  0.00  0.00    +0.151 HD
ENDBRANCH   3  13
ENDBRANCH   1   3
BRANCH   1  18
ATOM     18  O   UNL     1      -1.787  -2.302   7.800  0.00  0.00    -0.454 OA
BRANCH  18  19
ATOM     19  C   UNL     1      -1.721  -0.940   8.299  0.00  0.00    +0.328 C 
BRANCH  19  20
ATOM     20  C   UNL     1      -2.293  -0.887   9.693  0.00  0.00    +0.255 C 
ATOM     21  O   UNL     1      -2.715  -1.898  10.213  0.00  0.00    -0.272 OA
ATOM     22  N   UNL     1      -2.336   0.283  10.360  0.00  0.00    -0.280 N 
ATOM     23  H   UNL     1      -1.933   1.076   9.974  0.00  0.00    +0.155 HD
BRANCH  22  24
ATOM     24  C   UNL     1      -2.961   0.353  11.611  0.00  0.00    +0.071 A 
ATOM     25  C   UNL     1      -4.319   0.637  11.695  0.00  0.00    +0.064 A 
ATOM     26  C   UNL     1      -4.934   0.702  12.931  0.00  0.00    +0.022 A 
ATOM     27  C   UNL     1      -4.198   0.493  14.083  0.00  0.00    +0.003 A 
ATOM     28  C   UNL     1      -2.846   0.214  14.003  0.00  0.00    +0.022 A 
ATOM     29  C   UNL     1      -2.225   0.144  12.770  0.00  0.00    +0.064 A 
ATOM     30 CL   UNL     1      -0.528  -0.205  12.671  0.00  0.00    -0.082 Cl
ATOM     31 CL   UNL     1      -5.242   0.906  10.250  0.00  0.00    -0.082 Cl
ENDBRANCH  22  24
ENDBRANCH  19  20
ENDBRANCH  18  19
ENDBRANCH   1  18
TORSDOF 6
