REMARK  Name = ZINC14729986
REMARK  7 active torsions:
REMARK  status: ('A' for Active; 'I' for Inactive)
REMARK    1  A    between atoms: C_1  and  C_2
REMARK    2  A    between atoms: C_9  and  C_14
REMARK    3  A    between atoms: C_14  and  O_16
REMARK    4  A    between atoms: O_16  and  C_17
REMARK    5  A    between atoms: C_17  and  C_18
REMARK    6  A    between atoms: N_20  and  C_21
REMARK    7  A    between atoms: C_24  and  C_27
REMARK                            x       y       z     vdW  Elec       q    Type
REMARK                         _______ _______ _______ _____ _____    ______ ____
ROOT
ATOM      1  O   UNL     1      -1.319   3.488  -0.340  0.00  0.00    -0.452 OA
ENDROOT
BRANCH   1   2
ATOM      2  C   UNL     1      -1.285   2.141  -0.369  0.00  0.00    +0.340 C 
ATOM      3  O   UNL     1      -2.310   1.504  -0.222  0.00  0.00    -0.245 OA
BRANCH   2  11
ATOM      4  C   UNL     1       4.718  -3.299  -0.755  0.00  0.00    +0.029 C 
ATOM      5  C   UNL     1       3.671  -2.271  -0.321  0.00  0.00    +0.134 C 
ATOM      6  C   UNL     1       2.294  -2.794  -0.628  0.00  0.00    +0.230 C 
ATOM      7  O   UNL     1       2.137  -3.995  -0.684  0.00  0.00    -0.274 OA
ATOM      8  N   UNL     1       1.240  -2.012  -0.842  0.00  0.00    -0.284 N 
ATOM      9  C   UNL     1       1.226  -0.619  -0.810  0.00  0.00    +0.048 A 
ATOM     10  C   UNL     1       0.027   0.044  -0.609  0.00  0.00    +0.039 A 
ATOM     11  C   UNL     1      -0.006   1.440  -0.579  0.00  0.00    +0.061 A 
ATOM     12  C   UNL     1       1.171   2.174  -0.754  0.00  0.00    +0.016 A 
ATOM     13  C   UNL     1       2.364   1.516  -0.954  0.00  0.00    +0.017 A 
ATOM     14  C   UNL     1       2.397   0.128  -0.982  0.00  0.00    +0.030 A 
ATOM     15  S   UNL     1       3.925  -0.719  -1.233  0.00  0.00    -0.111 S 
ATOM     16  H   UNL     1       0.399  -2.454  -1.040  0.00  0.00    +0.155 HD
ENDBRANCH   2  11
ENDBRANCH   1   2
BRANCH   1  17
ATOM     17  C   UNL     1      -2.613   4.111  -0.129  0.00  0.00    +0.328 C 
BRANCH  17  18
ATOM     18  C   UNL     1      -2.455   5.610  -0.127  0.00  0.00    +0.255 C 
ATOM     19  O   UNL     1      -1.360   6.104  -0.287  0.00  0.00    -0.272 OA
ATOM     20  N   UNL     1      -3.532   6.400   0.053  0.00  0.00    -0.283 N 
ATOM     21  H   UNL     1      -4.418   6.009   0.105  0.00  0.00    +0.155 HD
BRANCH  20  22
ATOM     22  C   UNL     1      -3.372   7.781   0.166  0.00  0.00    +0.034 A 
ATOM     23  C   UNL     1      -2.234   8.301   0.776  0.00  0.00    +0.024 A 
ATOM     24  C   UNL     1      -2.071   9.663   0.884  0.00  0.00    +0.015 A 
ATOM     25  C   UNL     1      -3.054  10.525   0.389  0.00  0.00    +0.037 A 
ATOM     26  C   UNL     1      -4.197   9.999  -0.219  0.00  0.00    +0.015 A 
ATOM     27  C   UNL     1      -4.352   8.636  -0.328  0.00  0.00    +0.024 A 
BRANCH  25  28
ATOM     28  C   UNL     1      -2.884  11.986   0.507  0.00  0.00    +0.242 C 
ATOM     29  O   UNL     1      -3.740  12.734   0.076  0.00  0.00    -0.270 OA
ATOM     30  N   UNL     1      -1.781  12.491   1.094  0.00  0.00    -0.325 N 
ATOM     31  H   UNL     1      -1.098  11.894   1.438  0.00  0.00    +0.145 HD
ATOM     32  H   UNL     1      -1.669  13.452   1.172  0.00  0.00    +0.145 HD
ENDBRANCH  25  28
ENDBRANCH  20  22
ENDBRANCH  17  18
ENDBRANCH   1  17
TORSDOF 6
