REMARK  Name = ZINC65184873
REMARK  6 active torsions:
REMARK  status: ('A' for Active; 'I' for Inactive)
REMARK    1  A    between atoms: C_1  and  C_2
REMARK    2  A    between atoms: C_7  and  N_8
REMARK    3  A    between atoms: C_9  and  C_11
REMARK    4  A    between atoms: C_11  and  N_12
REMARK    5  A    between atoms: N_20  and  C_23
REMARK    6  A    between atoms: C_23  and  C_24
REMARK                            x       y       z     vdW  Elec       q    Type
REMARK                         _______ _______ _______ _____ _____    ______ ____
ROOT
ATOM      1  N   UNL     1      -0.241  -0.905   5.988  0.00  0.00    -0.282 N 
ATOM      2  C   UNL     1      -1.500  -1.378   6.412  0.00  0.00    +0.086 A 
ATOM      3  C   UNL     1      -2.729  -1.054   5.913  0.00  0.00    +0.093 A 
ATOM      4  S   UNL     1      -3.787  -1.950   6.849  0.00  0.00    +0.006 S 
ATOM      5  N   UNL     1      -2.759  -2.707   7.832  0.00  0.00    -0.203 NA
ATOM      6  C   UNL     1      -1.546  -2.299   7.479  0.00  0.00    +0.161 A 
ATOM      7  C   UNL     1      -0.249  -2.706   8.083  0.00  0.00    +0.284 A 
ATOM      8  O   UNL     1      -0.222  -3.498   9.006  0.00  0.00    -0.265 OA
ATOM      9  N   UNL     1       0.893  -2.189   7.598  0.00  0.00    -0.255 N 
ATOM     10  C   UNL     1       0.889  -1.320   6.576  0.00  0.00    +0.333 A 
ATOM     11  O   UNL     1       1.951  -0.887   6.172  0.00  0.00    -0.246 OA
ENDROOT
BRANCH   1  12
ATOM     12  C   UNL     1      -0.168   0.052   4.882  0.00  0.00    +0.223 C 
BRANCH  12  14
ATOM     13  N   UNL     1       0.025  -0.015   2.417  0.00  0.00    -0.284 N 
ATOM     14  C   UNL     1      -0.056  -0.694   3.578  0.00  0.00    +0.237 C 
ATOM     15  O   UNL     1      -0.040  -1.907   3.573  0.00  0.00    -0.274 OA
ATOM     16  H   UNL     1       0.078   0.954   2.425  0.00  0.00    +0.155 HD
BRANCH  13  23
ATOM     17  C   UNL     1      -1.264   1.184   0.181  0.00  0.00    +0.045 C 
ATOM     18  C   UNL     1      -0.584  -0.158   0.084  0.00  0.00    -0.029 A 
ATOM     19  C   UNL     1      -0.568  -0.840  -1.117  0.00  0.00    +0.005 A 
ATOM     20  C   UNL     1       0.055  -2.071  -1.206  0.00  0.00    +0.000 A 
ATOM     21  C   UNL     1       0.666  -2.622  -0.095  0.00  0.00    +0.002 A 
ATOM     22  C   UNL     1       0.655  -1.945   1.108  0.00  0.00    +0.023 A 
ATOM     23  C   UNL     1       0.034  -0.706   1.201  0.00  0.00    +0.036 A 
ENDBRANCH  13  23
ENDBRANCH  12  14
ENDBRANCH   1  12
BRANCH   9  24
ATOM     24  C   UNL     1       2.170  -2.590   8.192  0.00  0.00    +0.165 C 
BRANCH  24  25
ATOM     25  C   UNL     1       2.702  -3.802   7.472  0.00  0.00    -0.028 A 
ATOM     26  C   UNL     1       2.360  -5.069   7.907  0.00  0.00    +0.005 A 
ATOM     27  C   UNL     1       2.848  -6.181   7.246  0.00  0.00    +0.000 A 
ATOM     28  C   UNL     1       3.676  -6.026   6.150  0.00  0.00    +0.000 A 
ATOM     29  C   UNL     1       4.017  -4.759   5.715  0.00  0.00    +0.000 A 
ATOM     30  C   UNL     1       3.526  -3.647   6.373  0.00  0.00    +0.005 A 
ENDBRANCH  24  25
ENDBRANCH   9  24
TORSDOF 5
