REMARK  Name = ZINC05209868
REMARK  6 active torsions:
REMARK  status: ('A' for Active; 'I' for Inactive)
REMARK    1  A    between atoms: C_1  and  C_2
REMARK    2  A    between atoms: C_2  and  C_4
REMARK    3  A    between atoms: C_2  and  S_11
REMARK    4  A    between atoms: N_9  and  C_10
REMARK    5  A    between atoms: S_11  and  C_12
REMARK    6  A    between atoms: C_14  and  C_18
REMARK                            x       y       z     vdW  Elec       q    Type
REMARK                         _______ _______ _______ _____ _____    ______ ____
ROOT
ATOM      1  S   UNL     1      -1.700  -0.632   0.015  0.00  0.00    -0.074 S 
ENDROOT
BRANCH   1   2
ATOM      2  C   UNL     1      -2.335  -0.110   1.573  0.00  0.00    +0.185 A 
ATOM      3  N   UNL     1      -1.680   0.578   2.483  0.00  0.00    -0.201 NA
ATOM      4  C   UNL     1      -2.475   0.797   3.541  0.00  0.00    +0.182 A 
ATOM      5  N   UNL     1      -3.647   0.249   3.313  0.00  0.00    -0.152 NA
ATOM      6  H   UNL     1      -4.292  -0.822   1.586  0.00  0.00    +0.191 HD
ATOM      7  N   UNL     1      -3.582  -0.341   2.040  0.00  0.00    -0.253 N 
BRANCH   4   8
ATOM      8  C   UNL     1      -2.093   1.537   4.769  0.00  0.00    +0.021 A 
ATOM      9  C   UNL     1      -0.815   2.078   4.890  0.00  0.00    +0.011 A 
ATOM     10  C   UNL     1      -0.464   2.765   6.034  0.00  0.00    +0.001 A 
ATOM     11  C   UNL     1      -1.380   2.918   7.060  0.00  0.00    +0.000 A 
ATOM     12  C   UNL     1      -2.650   2.383   6.945  0.00  0.00    +0.001 A 
ATOM     13  C   UNL     1      -3.013   1.698   5.803  0.00  0.00    +0.011 A 
ENDBRANCH   4   8
ENDBRANCH   1   2
BRANCH   1  15
ATOM     14  C   UNL     1      -0.019   1.526   0.010  0.00  0.00    +0.029 C 
ATOM     15  C   UNL     1       0.002  -0.004   0.002  0.00  0.00    +0.137 C 
BRANCH  15  16
ATOM     16  C   UNL     1       0.707  -0.490  -1.238  0.00  0.00    +0.233 C 
ATOM     17  O   UNL     1       0.067  -0.782  -2.225  0.00  0.00    -0.274 OA
ATOM     18  N   UNL     1       2.051  -0.601  -1.250  0.00  0.00    -0.239 N 
ATOM     19  C   UNL     1       2.682  -1.035  -2.358  0.00  0.00    +0.306 C 
ATOM     20  O   UNL     1       2.039  -1.327  -3.348  0.00  0.00    -0.252 OA
ATOM     21  N   UNL     1       4.025  -1.146  -2.370  0.00  0.00    -0.302 N 
ATOM     22  C   UNL     1       4.710  -1.618  -3.575  0.00  0.00    +0.129 C 
ATOM     23  H   UNL     1       2.563  -0.367  -0.460  0.00  0.00    +0.159 HD
ATOM     24  H   UNL     1       4.537  -0.912  -1.580  0.00  0.00    +0.150 HD
ENDBRANCH  15  16
ENDBRANCH   1  15
TORSDOF 4
