REMARK  Name = ZINC37254478
REMARK  5 active torsions:
REMARK  status: ('A' for Active; 'I' for Inactive)
REMARK    1  A    between atoms: C_1  and  C_2
REMARK    2  A    between atoms: C_7  and  N_10
REMARK    3  A    between atoms: N_10  and  S_11
REMARK    4  A    between atoms: S_11  and  C_14
REMARK    5  A    between atoms: C_17  and  N_21
REMARK                            x       y       z     vdW  Elec       q    Type
REMARK                         _______ _______ _______ _____ _____    ______ ____
ROOT
ATOM      1  S   UNL     1      -0.952  -4.003   1.956  0.00  0.00    +0.060 S 
ATOM      2  O   UNL     1      -2.302  -4.389   1.738  0.00  0.00    -0.153 OA
ATOM      3  O   UNL     1       0.146  -4.795   1.524  0.00  0.00    -0.153 OA
ENDROOT
BRANCH   1   4
ATOM      4  C   UNL     1      -0.764  -3.789   3.695  0.00  0.00    +0.119 A 
ATOM      5  C   UNL     1       0.292  -4.391   4.354  0.00  0.00    +0.031 A 
ATOM      6  C   UNL     1       0.442  -4.225   5.717  0.00  0.00    +0.025 A 
ATOM      7  C   UNL     1      -0.469  -3.452   6.426  0.00  0.00    +0.026 A 
ATOM      8  C   UNL     1      -1.529  -2.849   5.762  0.00  0.00    +0.040 A 
ATOM      9  C   UNL     1      -1.670  -3.014   4.397  0.00  0.00    +0.046 A 
ATOM     10 BR   UNL     1      -3.108  -2.187   3.489  0.00  0.00    -0.048 Br
BRANCH   7  11
ATOM     11  N   UNL     1      -0.320  -3.283   7.804  0.00  0.00    -0.358 N 
ATOM     12  H   UNL     1       0.420  -3.706   8.268  0.00  0.00    +0.142 HD
ATOM     13  H   UNL     1      -0.957  -2.744   8.299  0.00  0.00    +0.142 HD
ENDBRANCH   7  11
ENDBRANCH   1   4
BRANCH   1  14
ATOM     14  N   UNL     1      -0.766  -2.514   1.256  0.00  0.00    -0.187 NA
ATOM     15  H   UNL     1      -1.511  -2.100   0.792  0.00  0.00    +0.148 HD
BRANCH  14  21
ATOM     16  C   UNL     1      -0.725   1.693   0.381  0.00  0.00    +0.007 C 
ATOM     17  C   UNL     1      -0.488   0.187   0.249  0.00  0.00    -0.013 C 
ATOM     18  C   UNL     1       0.322  -0.093  -1.019  0.00  0.00    +0.003 C 
ATOM     19  C   UNL     1       0.559  -1.598  -1.151  0.00  0.00    +0.002 C 
ATOM     20  C   UNL     1       1.332  -2.102   0.070  0.00  0.00    +0.020 C 
ATOM     21  C   UNL     1       0.523  -1.822   1.337  0.00  0.00    +0.077 C 
ATOM     22  C   UNL     1       0.285  -0.317   1.469  0.00  0.00    +0.023 C 
ENDBRANCH  14  21
ENDBRANCH   1  14
TORSDOF 4
