REMARK  Name = ZINC03007270
REMARK  9 active torsions:
REMARK  status: ('A' for Active; 'I' for Inactive)
REMARK    1  A    between atoms: C_1  and  C_2
REMARK    2  A    between atoms: C_2  and  O_3
REMARK    3  A    between atoms: O_3  and  C_4
REMARK    4  A    between atoms: C_4  and  C_6
REMARK    5  A    between atoms: C_10  and  N_11
REMARK    6  A    between atoms: C_12  and  C_14
REMARK    7  A    between atoms: C_17  and  S_20
REMARK    8  A    between atoms: S_20  and  N_23
REMARK    9  A    between atoms: C_33  and  C_35
REMARK                            x       y       z     vdW  Elec       q    Type
REMARK                         _______ _______ _______ _____ _____    ______ ____
ROOT
ATOM      1  N   UNL     1       1.446   2.045   2.475  0.00  0.00    -0.275 N 
ATOM      2  C   UNL     1       2.192   2.472   3.513  0.00  0.00    +0.249 C 
ATOM      3  O   UNL     1       3.224   3.081   3.310  0.00  0.00    -0.270 OA
ATOM      4  H   UNL     1       0.623   1.559   2.637  0.00  0.00    +0.156 HD
ENDROOT
BRANCH   1   9
ATOM      5  C   UNL     1       1.229   1.945  -0.011  0.00  0.00    +0.091 A 
ATOM      6  C   UNL     1       1.870   2.344  -1.254  0.00  0.00    -0.018 A 
ATOM      7  C   UNL     1       3.027   3.025  -1.109  0.00  0.00    +0.013 A 
ATOM      8  S   UNL     1       3.274   3.138   0.640  0.00  0.00    -0.076 S 
ATOM      9  C   UNL     1       1.855   2.300   1.177  0.00  0.00    +0.087 A 
ATOM     10  C   UNL     1       3.898   3.562  -2.204  0.00  0.00    +0.150 C 
ATOM     11  N   UNL     1       3.387   3.011  -3.476  0.00  0.00    -0.297 N 
ATOM     12  C   UNL     1       1.929   2.972  -3.662  0.00  0.00    +0.113 C 
ATOM     13  C   UNL     1       1.306   2.026  -2.633  0.00  0.00    +0.056 C 
ATOM     14  C   UNL     1       4.226   2.561  -4.429  0.00  0.00    +0.213 C 
ATOM     15  O   UNL     1       3.783   2.022  -5.422  0.00  0.00    -0.276 OA
ATOM     16  C   UNL     1       5.715   2.727  -4.263  0.00  0.00    +0.109 C 
BRANCH   5  17
ATOM     17  C   UNL     1      -0.033   1.203  -0.012  0.00  0.00    +0.342 C 
ATOM     18  O   UNL     1      -0.023  -0.013  -0.027  0.00  0.00    -0.245 OA
BRANCH  17  19
ATOM     19  O   UNL     1      -1.206   1.868  -0.001  0.00  0.00    -0.461 OA
BRANCH  19  21
ATOM     20  C   UNL     1      -3.639   1.989   0.006  0.00  0.00    +0.048 C 
ATOM     21  C   UNL     1      -2.418   1.067  -0.008  0.00  0.00    +0.229 C 
ENDBRANCH  19  21
ENDBRANCH  17  19
ENDBRANCH   5  17
ENDBRANCH   1   9
BRANCH   2  22
ATOM     22  C   UNL     1       1.755   2.200   4.898  0.00  0.00    +0.037 A 
ATOM     23  C   UNL     1       0.568   1.505   5.135  0.00  0.00    +0.015 A 
ATOM     24  C   UNL     1       0.169   1.250   6.431  0.00  0.00    +0.029 A 
ATOM     25  C   UNL     1       0.937   1.690   7.494  0.00  0.00    +0.106 A 
ATOM     26  C   UNL     1       2.112   2.383   7.266  0.00  0.00    +0.029 A 
ATOM     27  C   UNL     1       2.526   2.641   5.976  0.00  0.00    +0.015 A 
BRANCH  25  28
ATOM     28  S   UNL     1       0.416   1.365   9.146  0.00  0.00    +0.061 S 
ATOM     29  O   UNL     1      -0.433   0.228   9.088  0.00  0.00    -0.153 OA
ATOM     30  O   UNL     1       1.583   1.404   9.955  0.00  0.00    -0.153 OA
BRANCH  28  31
ATOM     31  N   UNL     1      -0.531   2.639   9.620  0.00  0.00    -0.177 NA
ATOM     32  C   UNL     1       0.064   3.809  10.279  0.00  0.00    +0.109 C 
ATOM     33  C   UNL     1      -0.359   5.071   9.511  0.00  0.00    +0.017 C 
ATOM     34  C   UNL     1      -1.886   5.113   9.413  0.00  0.00    +0.003 C 
ATOM     35  C   UNL     1      -2.384   3.889   8.640  0.00  0.00    +0.017 C 
ATOM     36  C   UNL     1      -1.983   2.617   9.394  0.00  0.00    +0.109 C 
ENDBRANCH  28  31
ENDBRANCH  25  28
ENDBRANCH   2  22
TORSDOF 7
