REMARK  Name = ZINC10339237
REMARK  10 active torsions:
REMARK  status: ('A' for Active; 'I' for Inactive)
REMARK    1  A    between atoms: C_1  and  C_2
REMARK    2  A    between atoms: C_2  and  O_3
REMARK    3  A    between atoms: O_3  and  C_4
REMARK    4  A    between atoms: C_4  and  C_6
REMARK    5  A    between atoms: C_7  and  N_31
REMARK    6  A    between atoms: N_18  and  C_21
REMARK    7  A    between atoms: C_21  and  C_22
REMARK    8  A    between atoms: C_22  and  C_23
REMARK    9  A    between atoms: C_23  and  C_24
REMARK   10  A    between atoms: C_23  and  C_25
REMARK                            x       y       z     vdW  Elec       q    Type
REMARK                         _______ _______ _______ _____ _____    ______ ____
ROOT
ATOM      1  C   UNL     1       2.840   4.266  -1.131  0.00  0.00    +0.117 C 
ATOM      2  C   UNL     1       4.106   3.785  -1.009  0.00  0.00    +0.195 C 
ATOM      3  O   UNL     1       4.596   3.405   0.180  0.00  0.00    -0.446 OA
ATOM      4  C   UNL     1       4.043   3.868   1.318  0.00  0.00    +0.115 C 
ATOM      5  C   UNL     1       2.785   4.348   1.341  0.00  0.00    +0.057 C 
ATOM      6  C   UNL     1       1.962   4.389   0.079  0.00  0.00    +0.141 C 
ATOM      7  C   UNL     1       0.915   3.319   0.098  0.00  0.00    -0.002 A 
ATOM      8  C   UNL     1       1.015   1.945   0.140  0.00  0.00    +0.007 A 
ATOM      9  C   UNL     1      -0.176   1.227   0.151  0.00  0.00    +0.000 A 
ATOM     10  C   UNL     1      -1.400   1.864   0.117  0.00  0.00    +0.002 A 
ATOM     11  C   UNL     1      -1.508   3.245   0.079  0.00  0.00    +0.024 A 
ATOM     12  C   UNL     1      -0.320   3.978   0.066  0.00  0.00    +0.041 A 
ATOM     13  N   UNL     1      -0.133   5.348   0.023  0.00  0.00    -0.270 N 
ATOM     14  C   UNL     1       1.175   5.681   0.025  0.00  0.00    +0.240 C 
ATOM     15  O   UNL     1       1.633   6.804  -0.010  0.00  0.00    -0.274 OA
ATOM     16  C   UNL     1       2.204   4.819   2.534  0.00  0.00    +0.164 C 
ATOM     17  O   UNL     1       1.072   5.261   2.511  0.00  0.00    -0.292 OA
ATOM     18  C   UNL     1       2.958   4.787   3.835  0.00  0.00    +0.080 C 
ATOM     19  C   UNL     1       3.971   3.638   3.791  0.00  0.00    +0.016 C 
ATOM     20  C   UNL     1       4.879   3.839   2.576  0.00  0.00    +0.075 C 
ENDROOT
BRANCH   2  21
ATOM     21  N   UNL     1       4.897   3.685  -2.123  0.00  0.00    -0.329 N 
ATOM     22  H   UNL     1       4.580   4.024  -2.974  0.00  0.00    +0.145 HD
ATOM     23  H   UNL     1       5.774   3.275  -2.060  0.00  0.00    +0.145 HD
ENDBRANCH   2  21
BRANCH   1  24
ATOM     24  C   UNL     1       2.354   4.648  -2.391  0.00  0.00    +0.342 C 
ATOM     25  O   UNL     1       1.625   3.898  -3.016  0.00  0.00    -0.245 OA
BRANCH  24  26
ATOM     26  O   UNL     1       2.694   5.847  -2.911  0.00  0.00    -0.462 OA
BRANCH  26  28
ATOM     27  C   UNL     1       2.484   7.647  -4.510  0.00  0.00    +0.048 C 
ATOM     28  C   UNL     1       2.074   6.219  -4.144  0.00  0.00    +0.229 C 
ENDBRANCH  26  28
ENDBRANCH  24  26
ENDBRANCH   1  24
BRANCH  13  29
ATOM     29  C   UNL     1      -1.226   6.323  -0.019  0.00  0.00    +0.114 C 
BRANCH  29  30
ATOM     30  C   UNL     1      -1.674   6.525  -1.469  0.00  0.00    +0.022 C 
BRANCH  30  31
ATOM     31  C   UNL     1      -2.722   7.637  -1.528  0.00  0.00    -0.016 C 
ATOM     32  C   UNL     1      -3.078   7.925  -2.988  0.00  0.00    +0.007 C 
ATOM     33  C   UNL     1      -3.978   7.196  -0.774  0.00  0.00    +0.007 C 
ENDBRANCH  30  31
ENDBRANCH  29  30
ENDBRANCH  13  29
TORSDOF 7
