REMARK  Name = ZINC35378243
REMARK  7 active torsions:
REMARK  status: ('A' for Active; 'I' for Inactive)
REMARK    1  A    between atoms: C_1  and  C_2
REMARK    2  A    between atoms: C_7  and  N_8
REMARK    3  A    between atoms: C_9  and  C_11
REMARK    4  A    between atoms: C_11  and  C_13
REMARK    5  A    between atoms: C_11  and  N_14
REMARK    6  A    between atoms: C_21  and  C_25
REMARK    7  A    between atoms: C_22  and  C_24
REMARK                            x       y       z     vdW  Elec       q    Type
REMARK                         _______ _______ _______ _____ _____    ______ ____
ROOT
ATOM      1  C   UNL     1      -0.168   0.052   4.882  0.00  0.00    +0.174 C 
ATOM      2  C   UNL     1      -1.431   0.915   4.870  0.00  0.00    +0.041 C 
ENDROOT
BRANCH   1   3
ATOM      3  N   UNL     1      -0.241  -0.905   5.988  0.00  0.00    -0.287 N 
ATOM      4  C   UNL     1      -1.252  -1.809   6.035  0.00  0.00    +0.206 A 
ATOM      5  N   UNL     1      -1.364  -2.683   6.996  0.00  0.00    -0.202 NA
ATOM      6  C   UNL     1      -0.477  -2.734   8.000  0.00  0.00    +0.234 A 
ATOM      7  C   UNL     1       0.589  -1.829   8.009  0.00  0.00    +0.107 A 
ATOM      8  C   UNL     1       0.702  -0.889   6.959  0.00  0.00    +0.266 A 
ATOM      9  O   UNL     1       1.619  -0.087   6.930  0.00  0.00    -0.267 OA
ATOM     10  C   UNL     1       1.363  -2.136   9.211  0.00  0.00    +0.005 A 
ATOM     11  C   UNL     1       0.731  -3.160   9.807  0.00  0.00    +0.108 A 
ATOM     12  O   UNL     1      -0.352  -3.508   9.090  0.00  0.00    -0.442 OA
ATOM     13  C   UNL     1       1.170  -3.821  11.088  0.00  0.00    +0.086 C 
ATOM     14  C   UNL     1       2.616  -1.445   9.685  0.00  0.00    +0.048 C 
ENDBRANCH   1   3
BRANCH   1  16
ATOM     15  N   UNL     1       0.025  -0.015   2.417  0.00  0.00    -0.284 N 
ATOM     16  C   UNL     1      -0.056  -0.694   3.578  0.00  0.00    +0.240 C 
ATOM     17  O   UNL     1      -0.040  -1.907   3.573  0.00  0.00    -0.273 OA
ATOM     18  H   UNL     1       0.078   0.954   2.425  0.00  0.00    +0.155 HD
BRANCH  15  25
ATOM     19  C   UNL     1      -1.264   1.184   0.181  0.00  0.00    +0.045 C 
ATOM     20  C   UNL     1      -0.584  -0.158   0.084  0.00  0.00    -0.029 A 
ATOM     21  C   UNL     1      -0.569  -0.840  -1.117  0.00  0.00    +0.005 A 
ATOM     22  C   UNL     1       0.055  -2.071  -1.206  0.00  0.00    +0.000 A 
ATOM     23  C   UNL     1       0.666  -2.622  -0.095  0.00  0.00    +0.002 A 
ATOM     24  C   UNL     1       0.655  -1.945   1.108  0.00  0.00    +0.023 A 
ATOM     25  C   UNL     1       0.034  -0.706   1.201  0.00  0.00    +0.036 A 
ENDBRANCH  15  25
ENDBRANCH   1  16
TORSDOF 3
