REMARK  Name = ZINC65396701
REMARK  7 active torsions:
REMARK  status: ('A' for Active; 'I' for Inactive)
REMARK    1  A    between atoms: C_1  and  C_2
REMARK    2  A    between atoms: N_5  and  C_7
REMARK    3  A    between atoms: C_16  and  N_19
REMARK    4  A    between atoms: N_19  and  C_20
REMARK    5  A    between atoms: C_20  and  C_21
REMARK    6  A    between atoms: N_23  and  C_24
REMARK    7  A    between atoms: C_24  and  C_25
REMARK                            x       y       z     vdW  Elec       q    Type
REMARK                         _______ _______ _______ _____ _____    ______ ____
ROOT
ATOM      1  C   UNL     1       0.051  -3.200   1.485  0.00  0.00    +0.084 C 
ATOM      2  C   UNL     1      -1.195  -3.212   2.373  0.00  0.00    +0.035 C 
ATOM      3  C   UNL     1      -1.175  -4.455   3.263  0.00  0.00    -0.010 C 
ATOM      4  C   UNL     1       0.077  -4.433   4.142  0.00  0.00    +0.007 C 
ATOM      5  C   UNL     1       1.323  -4.422   3.254  0.00  0.00    -0.010 C 
ATOM      6  C   UNL     1       1.303  -3.178   2.364  0.00  0.00    +0.035 C 
ATOM      7  C   UNL     1       1.337  -5.676   2.378  0.00  0.00    -0.009 C 
ATOM      8  C   UNL     1       0.085  -5.698   1.500  0.00  0.00    -0.065 C 
ATOM      9  C   UNL     1      -1.161  -5.710   2.387  0.00  0.00    -0.009 C 
ATOM     10  C   UNL     1       0.065  -4.454   0.609  0.00  0.00    +0.020 C 
ENDROOT
BRANCH   1  15
ATOM     11  C   UNL     1      -0.018   1.503   0.010  0.00  0.00    +0.092 C 
ATOM     12  C   UNL     1       0.002  -0.004   0.002  0.00  0.00    +0.172 A 
ATOM     13  N   UNL     1       0.008  -0.792  -1.073  0.00  0.00    -0.113 NA
ATOM     14  N   UNL     1       0.027  -2.013  -0.656  0.00  0.00    -0.046 NA
ATOM     15  N   UNL     1       0.032  -2.009   0.632  0.00  0.00    -0.157 N 
ATOM     16  N   UNL     1       0.023  -0.790   1.050  0.00  0.00    -0.135 NA
ENDBRANCH   1  15
BRANCH   8  17
ATOM     17  N   UNL     1       0.098  -6.902   0.658  0.00  0.00    +0.389 N 
ATOM     18  H   UNL     1      -0.728  -6.917   0.079  0.00  0.00    -0.084 HD
ATOM     19  H   UNL     1       0.919  -6.895   0.073  0.00  0.00    -0.084 HD
BRANCH  17  20
ATOM     20  C   UNL     1       0.117  -8.097   1.514  0.00  0.00    +0.016 C 
BRANCH  20  21
ATOM     21  C   UNL     1       0.131  -9.332   0.651  0.00  0.00    +0.196 C 
ATOM     22  O   UNL     1       0.125  -9.228  -0.557  0.00  0.00    -0.278 OA
ATOM     23  N   UNL     1       0.149 -10.553   1.222  0.00  0.00    -0.313 N 
ATOM     24  H   UNL     1       0.154 -10.636   2.188  0.00  0.00    +0.149 HD
BRANCH  23  25
ATOM     25  C   UNL     1       0.162 -11.754   0.383  0.00  0.00    +0.142 C 
BRANCH  25  26
ATOM     26  C   UNL     1       0.182 -12.979   1.261  0.00  0.00    +0.005 A 
ATOM     27  C   UNL     1       1.371 -13.643   1.494  0.00  0.00    +0.008 A 
ATOM     28  C   UNL     1       1.390 -14.767   2.299  0.00  0.00    +0.000 A 
ATOM     29  C   UNL     1       0.218 -15.228   2.871  0.00  0.00    +0.003 A 
ATOM     30  C   UNL     1      -0.972 -14.566   2.639  0.00  0.00    +0.038 A 
ATOM     31  C   UNL     1      -0.991 -13.437   1.837  0.00  0.00    +0.128 A 
ATOM     32  F   UNL     1      -2.153 -12.786   1.614  0.00  0.00    -0.205 F 
ENDBRANCH  25  26
ENDBRANCH  23  25
ENDBRANCH  20  21
ENDBRANCH  17  20
ENDBRANCH   8  17
TORSDOF 6
