REMARK  Name = ZINC37791643
REMARK  4 active torsions:
REMARK  status: ('A' for Active; 'I' for Inactive)
REMARK    1  A    between atoms: C_1  and  C_2
REMARK    2  A    between atoms: C_2  and  C_4
REMARK    3  A    between atoms: C_2  and  N_12
REMARK    4  A    between atoms: C_13  and  C_15
REMARK                            x       y       z     vdW  Elec       q    Type
REMARK                         _______ _______ _______ _____ _____    ______ ____
ROOT
ATOM      1  N   UNL     1       0.767  -0.346   1.203  0.00  0.00    -0.299 N 
ATOM      2  C   UNL     1       2.109  -0.451   1.140  0.00  0.00    +0.260 C 
ATOM      3  O   UNL     1       2.685  -0.262   0.085  0.00  0.00    -0.269 OA
ATOM      4  H   UNL     1       0.308  -0.497   2.044  0.00  0.00    +0.150 HD
ENDROOT
BRANCH   2   5
ATOM      5  C   UNL     1       2.876  -0.795   2.343  0.00  0.00    +0.121 C 
ATOM      6  N   UNL     1       2.252  -1.000   3.462  0.00  0.00    -0.180 NA
ATOM      7  N   UNL     1       2.950  -1.328   4.629  0.00  0.00    -0.207 N 
ATOM      8  C   UNL     1       4.268  -1.069   4.731  0.00  0.00    +0.233 C 
ATOM      9  O   UNL     1       4.867  -1.351   5.747  0.00  0.00    -0.274 OA
ATOM     10  C   UNL     1       4.996  -0.428   3.577  0.00  0.00    +0.104 C 
ATOM     11  C   UNL     1       4.375  -0.910   2.261  0.00  0.00    +0.071 C 
ATOM     12  H   UNL     1       2.482  -1.744   5.370  0.00  0.00    +0.177 HD
ENDBRANCH   2   5
BRANCH   1  14
ATOM     13  C   UNL     1      -0.033   1.518  -0.163  0.00  0.00    +0.038 C 
ATOM     14  C   UNL     1       0.002  -0.003   0.002  0.00  0.00    +0.156 C 
BRANCH  14  15
ATOM     15  C   UNL     1      -1.405  -0.526   0.137  0.00  0.00    +0.236 C 
ATOM     16  O   UNL     1      -1.838  -0.828   1.228  0.00  0.00    -0.274 OA
ATOM     17  N   UNL     1      -2.182  -0.659  -0.957  0.00  0.00    -0.300 N 
ATOM     18  C   UNL     1      -1.636  -0.410  -2.298  0.00  0.00    +0.108 C 
ATOM     19  C   UNL     1      -1.909  -1.635  -3.177  0.00  0.00    +0.019 C 
ATOM     20  C   UNL     1      -3.407  -1.948  -3.157  0.00  0.00    +0.003 C 
ATOM     21  C   UNL     1      -3.842  -2.274  -1.726  0.00  0.00    +0.019 C 
ATOM     22  C   UNL     1      -3.589  -1.063  -0.831  0.00  0.00    +0.108 C 
ENDBRANCH  14  15
ENDBRANCH   1  14
TORSDOF 3
