REMARK  Name = ZINC39991051
REMARK  6 active torsions:
REMARK  status: ('A' for Active; 'I' for Inactive)
REMARK    1  A    between atoms: C_7  and  C_10
REMARK    2  A    between atoms: C_13  and  S_19
REMARK    3  A    between atoms: N_15  and  C_16
REMARK    4  A    between atoms: S_19  and  C_20
REMARK    5  A    between atoms: C_20  and  C_21
REMARK    6  A    between atoms: C_29  and  C_31
REMARK                            x       y       z     vdW  Elec       q    Type
REMARK                         _______ _______ _______ _____ _____    ______ ____
ROOT
ATOM      1  C   UNL     1      -0.870  -2.665  -0.337  0.00  0.00    +0.147 C 
ATOM      2  N   UNL     1      -2.096  -2.299  -0.601  0.00  0.00    -0.169 NA
ATOM      3  N   UNL     1      -2.870  -3.386  -1.026  0.00  0.00    -0.237 N 
ATOM      4  C   UNL     1      -1.984  -4.561  -1.014  0.00  0.00    +0.237 C 
ATOM      5  N   UNL     1      -0.686  -4.032  -0.561  0.00  0.00    -0.282 N 
ATOM      6  H   UNL     1      -3.806  -3.368  -1.280  0.00  0.00    +0.171 HD
ENDROOT
BRANCH   1  13
ATOM      7  C   UNL     1      -0.849   1.806   0.434  0.00  0.00    +0.001 A 
ATOM      8  C   UNL     1       0.382   2.291   0.881  0.00  0.00    +0.002 A 
ATOM      9  C   UNL     1       1.451   1.475   1.057  0.00  0.00    +0.026 A 
ATOM     10  C   UNL     1       1.331   0.087   0.784  0.00  0.00    +0.043 A 
ATOM     11  N   UNL     1       2.204  -0.897   0.873  0.00  0.00    -0.380 N 
ATOM     12  C   UNL     1       1.561  -2.151   0.469  0.00  0.00    +0.152 C 
ATOM     13  C   UNL     1       0.136  -1.794   0.110  0.00  0.00    +0.022 C 
ATOM     14  C   UNL     1       0.031  -0.418   0.314  0.00  0.00    +0.006 A 
ATOM     15  C   UNL     1      -1.036   0.491   0.154  0.00  0.00    +0.010 A 
ATOM     16  H   UNL     1       3.126  -0.806   1.161  0.00  0.00    +0.160 HD
ENDBRANCH   1  13
BRANCH   5  17
ATOM     17  C   UNL     1       0.553  -4.791  -0.378  0.00  0.00    +0.078 C 
ATOM     18  C   UNL     1       0.527  -6.281  -0.723  0.00  0.00    +0.024 C 
ATOM     19  C   UNL     1       0.584  -5.835   0.740  0.00  0.00    +0.024 C 
ENDBRANCH   5  17
BRANCH   4  20
ATOM     20  S   UNL     1      -1.833  -5.261  -2.680  0.00  0.00    -0.109 S 
BRANCH  20  21
ATOM     21  C   UNL     1      -1.178  -3.891  -3.674  0.00  0.00    +0.168 C 
BRANCH  21  22
ATOM     22  C   UNL     1      -1.003  -4.344  -5.100  0.00  0.00    +0.226 C 
ATOM     23  O   UNL     1      -1.292  -5.479  -5.416  0.00  0.00    -0.275 OA
ATOM     24  N   UNL     1      -0.525  -3.488  -6.025  0.00  0.00    -0.298 N 
ATOM     25  C   UNL     1      -0.165  -2.112  -5.656  0.00  0.00    +0.127 C 
ATOM     26  C   UNL     1       1.289  -1.858  -6.072  0.00  0.00    +0.127 C 
ATOM     27  N   UNL     1       1.460  -2.284  -7.468  0.00  0.00    -0.292 N 
ATOM     28  C   UNL     1       1.100  -3.660  -7.837  0.00  0.00    +0.127 C 
ATOM     29  C   UNL     1      -0.349  -3.916  -7.420  0.00  0.00    +0.127 C 
ATOM     30  C   UNL     1       1.938  -1.428  -8.393  0.00  0.00    +0.282 C 
ATOM     31  O   UNL     1       1.947  -1.745  -9.568  0.00  0.00    -0.267 OA
BRANCH  30  32
ATOM     32  C   UNL     1       2.446  -0.115  -7.983  0.00  0.00    +0.189 A 
ATOM     33  C   UNL     1       2.837   0.891  -8.820  0.00  0.00    +0.054 A 
ATOM     34  C   UNL     1       3.248   1.957  -8.005  0.00  0.00    +0.042 A 
ATOM     35  C   UNL     1       3.094   1.560  -6.723  0.00  0.00    +0.196 A 
ATOM     36  O   UNL     1       2.605   0.313  -6.714  0.00  0.00    -0.458 OA
ENDBRANCH  30  32
ENDBRANCH  21  22
ENDBRANCH  20  21
ENDBRANCH   4  20
TORSDOF 6
