REMARK  Name = ZINC24876846
REMARK  6 active torsions:
REMARK  status: ('A' for Active; 'I' for Inactive)
REMARK    1  A    between atoms: C_1  and  C_2
REMARK    2  A    between atoms: C_2  and  C_20
REMARK    3  A    between atoms: N_5  and  C_9
REMARK    4  A    between atoms: C_9  and  C_10
REMARK    5  A    between atoms: N_12  and  C_13
REMARK    6  A    between atoms: C_20  and  C_21
REMARK                            x       y       z     vdW  Elec       q    Type
REMARK                         _______ _______ _______ _____ _____    ______ ____
ROOT
ATOM      1  C   UNL     1       2.839   8.367   0.692  0.00  0.00    +0.042 C 
ATOM      2  C   UNL     1       4.188   7.860   0.178  0.00  0.00    +0.114 C 
ATOM      3  C   UNL     1       4.490   6.486   0.742  0.00  0.00    +0.247 C 
ATOM      4  O   UNL     1       4.626   6.187   1.909  0.00  0.00    -0.273 OA
ATOM      5  N   UNL     1       4.579   5.666  -0.324  0.00  0.00    -0.215 N 
ATOM      6  C   UNL     1       4.381   6.325  -1.471  0.00  0.00    +0.310 C 
ATOM      7  O   UNL     1       4.416   5.799  -2.567  0.00  0.00    -0.252 OA
ATOM      8  N   UNL     1       4.136   7.633  -1.277  0.00  0.00    -0.285 N 
ATOM      9  H   UNL     1       3.925   8.472  -1.957  0.00  0.00    +0.151 HD
ENDROOT
BRANCH   5  10
ATOM     10  C   UNL     1       4.863   4.231  -0.237  0.00  0.00    +0.214 C 
BRANCH  10  11
ATOM     11  C   UNL     1       3.569   3.469  -0.116  0.00  0.00    +0.235 C 
ATOM     12  O   UNL     1       2.513   4.066  -0.102  0.00  0.00    -0.274 OA
ATOM     13  N   UNL     1       3.584   2.125  -0.021  0.00  0.00    -0.284 N 
ATOM     14  H   UNL     1       4.542   1.590   0.054  0.00  0.00    +0.155 HD
BRANCH  13  15
ATOM     15  C   UNL     1       2.381   1.409  -0.019  0.00  0.00    +0.034 A 
ATOM     16  C   UNL     1       2.269   0.239   0.719  0.00  0.00    +0.025 A 
ATOM     17  C   UNL     1       1.081  -0.465   0.719  0.00  0.00    +0.022 A 
ATOM     18  C   UNL     1       0.003  -0.005  -0.016  0.00  0.00    +0.041 A 
ATOM     19  C   UNL     1       0.112   1.161  -0.753  0.00  0.00    +0.022 A 
ATOM     20  C   UNL     1       1.298   1.869  -0.756  0.00  0.00    +0.025 A 
ATOM     21 CL   UNL     1      -1.489  -0.893  -0.014  0.00  0.00    -0.084 Cl
ENDBRANCH  13  15
ENDBRANCH  10  11
ENDBRANCH   5  10
BRANCH   2  22
ATOM     22  C   UNL     1       5.305   8.844   0.530  0.00  0.00    +0.070 C 
BRANCH  22  23
ATOM     23  C   UNL     1       4.978  10.200  -0.042  0.00  0.00    -0.041 A 
ATOM     24  C   UNL     1       5.407  10.533  -1.314  0.00  0.00    +0.007 A 
ATOM     25  C   UNL     1       5.106  11.774  -1.845  0.00  0.00    +0.050 A 
ATOM     26  C   UNL     1       4.382  12.690  -1.099  0.00  0.00    +0.166 A 
ATOM     27  C   UNL     1       3.955  12.356   0.184  0.00  0.00    +0.166 A 
ATOM     28  C   UNL     1       4.255  11.109   0.707  0.00  0.00    +0.053 A 
ATOM     29  O   UNL     1       3.270  13.415   0.705  0.00  0.00    -0.453 OA
ATOM     30  C   UNL     1       2.931  14.246  -0.421  0.00  0.00    +0.466 C 
ATOM     31  O   UNL     1       3.965  13.959  -1.381  0.00  0.00    -0.453 OA
ENDBRANCH  22  23
ENDBRANCH   2  22
TORSDOF 5
