REMARK  Name = ZINC09091437
REMARK  9 active torsions:
REMARK  status: ('A' for Active; 'I' for Inactive)
REMARK    1  A    between atoms: C_1  and  C_2
REMARK    2  A    between atoms: C_2  and  C_3
REMARK    3  A    between atoms: C_2  and  C_4
REMARK    4  A    between atoms: C_4  and  N_5
REMARK    5  A    between atoms: C_15  and  S_16
REMARK    6  A    between atoms: S_16  and  C_17
REMARK    7  A    between atoms: C_17  and  C_18
REMARK    8  A    between atoms: N_20  and  N_21
REMARK    9  A    between atoms: C_22  and  C_24
REMARK                            x       y       z     vdW  Elec       q    Type
REMARK                         _______ _______ _______ _____ _____    ______ ____
ROOT
ATOM      1  N   UNL     1      -0.698   1.558   1.213  0.00  0.00    -0.287 N 
ATOM      2  C   UNL     1      -1.678   0.806   1.767  0.00  0.00    +0.262 A 
ATOM      3  O   UNL     1      -2.004  -0.261   1.281  0.00  0.00    -0.267 OA
ATOM      4  C   UNL     1      -2.333   1.325   2.975  0.00  0.00    +0.066 A 
ATOM      5  C   UNL     1      -3.352   0.625   3.619  0.00  0.00    +0.035 A 
ATOM      6  C   UNL     1      -3.932   1.159   4.749  0.00  0.00    +0.042 A 
ATOM      7  C   UNL     1      -3.508   2.386   5.248  0.00  0.00    +0.022 A 
ATOM      8  C   UNL     1      -2.511   3.088   4.632  0.00  0.00    +0.030 A 
ATOM      9  C   UNL     1      -1.904   2.572   3.484  0.00  0.00    +0.079 A 
ATOM     10  N   UNL     1      -0.913   3.238   2.846  0.00  0.00    -0.223 NA
ATOM     11  C   UNL     1      -0.340   2.752   1.773  0.00  0.00    +0.173 A 
ATOM     12 CL   UNL     1      -5.202   0.294   5.557  0.00  0.00    -0.084 Cl
ENDROOT
BRANCH   1  13
ATOM     13  C   UNL     1      -0.013   1.086   0.008  0.00  0.00    +0.130 C 
BRANCH  13  15
ATOM     14  C   UNL     1      -0.666   3.119  -1.289  0.00  0.00    +0.009 C 
ATOM     15  C   UNL     1      -0.753   1.593  -1.232  0.00  0.00    +0.003 C 
ATOM     16  C   UNL     1      -0.111   0.998  -2.487  0.00  0.00    +0.009 C 
ENDBRANCH  13  15
ENDBRANCH   1  13
BRANCH  11  17
ATOM     17  S   UNL     1       0.947   3.683   1.011  0.00  0.00    -0.078 S 
BRANCH  17  18
ATOM     18  C   UNL     1       1.002   5.110   2.124  0.00  0.00    +0.174 C 
BRANCH  18  19
ATOM     19  C   UNL     1       2.064   6.072   1.655  0.00  0.00    +0.239 C 
ATOM     20  O   UNL     1       2.718   5.817   0.666  0.00  0.00    -0.273 OA
ATOM     21  N   UNL     1       2.286   7.214   2.335  0.00  0.00    -0.233 N 
ATOM     22  H   UNL     1       1.762   7.418   3.126  0.00  0.00    +0.173 HD
BRANCH  21  23
ATOM     23  N   UNL     1       3.272   8.108   1.899  0.00  0.00    -0.228 N 
ATOM     24  C   UNL     1       3.494   9.251   2.578  0.00  0.00    +0.295 C 
ATOM     25  O   UNL     1       2.837   9.506   3.571  0.00  0.00    -0.265 OA
ATOM     26  H   UNL     1       3.796   7.905   1.108  0.00  0.00    +0.173 HD
BRANCH  24  27
ATOM     27  C   UNL     1       4.527  10.186   2.122  0.00  0.00    +0.190 A 
ATOM     28  C   UNL     1       4.853  11.373   2.714  0.00  0.00    +0.054 A 
ATOM     29  C   UNL     1       5.887  11.935   1.950  0.00  0.00    +0.042 A 
ATOM     30  C   UNL     1       6.144  11.078   0.937  0.00  0.00    +0.196 A 
ATOM     31  O   UNL     1       5.326  10.023   1.047  0.00  0.00    -0.458 OA
ENDBRANCH  24  27
ENDBRANCH  21  23
ENDBRANCH  18  19
ENDBRANCH  17  18
ENDBRANCH  11  17
TORSDOF 7
