REMARK  Name = ZINC13212356
REMARK  8 active torsions:
REMARK  status: ('A' for Active; 'I' for Inactive)
REMARK    1  A    between atoms: C_1  and  N_2
REMARK    2  A    between atoms: N_2  and  C_3
REMARK    3  A    between atoms: N_2  and  S_4
REMARK    4  A    between atoms: S_4  and  C_7
REMARK    5  A    between atoms: C_10  and  N_15
REMARK    6  A    between atoms: C_11  and  C_13
REMARK    7  A    between atoms: N_15  and  C_16
REMARK    8  A    between atoms: C_16  and  C_17
REMARK                            x       y       z     vdW  Elec       q    Type
REMARK                         _______ _______ _______ _____ _____    ______ ____
ROOT
ATOM      1  C   UNL     1      -0.105  11.125  -5.299  0.00  0.00    +0.106 A 
ATOM      2  C   UNL     1       0.873  10.642  -4.443  0.00  0.00    +0.030 A 
ATOM      3  C   UNL     1       0.775   9.370  -3.916  0.00  0.00    +0.025 A 
ATOM      4  C   UNL     1      -0.308   8.563  -4.243  0.00  0.00    +0.042 A 
ATOM      5  C   UNL     1      -1.297   9.047  -5.114  0.00  0.00    +0.086 A 
ATOM      6  C   UNL     1      -1.186  10.340  -5.634  0.00  0.00    +0.045 A 
ENDROOT
BRANCH   1   7
ATOM      7  S   UNL     1       0.036  12.751  -5.962  0.00  0.00    +0.060 S 
ATOM      8  O   UNL     1      -1.279  13.167  -6.302  0.00  0.00    -0.153 OA
ATOM      9  O   UNL     1       0.860  13.485  -5.066  0.00  0.00    -0.153 OA
BRANCH   7  11
ATOM     10  C   UNL     1       0.158  12.413  -8.643  0.00  0.00    +0.131 C 
ATOM     11  N   UNL     1       0.876  12.629  -7.384  0.00  0.00    -0.183 NA
ATOM     12  C   UNL     1       2.337  12.736  -7.384  0.00  0.00    +0.131 C 
ENDBRANCH   7  11
ENDBRANCH   1   7
BRANCH   5  13
ATOM     13  C   UNL     1      -2.447   8.200  -5.474  0.00  0.00    +0.388 C 
ATOM     14  O   UNL     1      -2.596   7.119  -4.939  0.00  0.00    -0.241 OA
ATOM     15  O   UNL     1      -3.334   8.623  -6.396  0.00  0.00    -0.241 OA
ENDBRANCH   5  13
BRANCH   4  16
ATOM     16  N   UNL     1      -0.409   7.283  -3.715  0.00  0.00    -0.339 N 
ATOM     17  H   UNL     1      -1.204   6.752  -3.878  0.00  0.00    +0.146 HD
BRANCH  16  18
ATOM     18  C   UNL     1       0.686   6.735  -2.910  0.00  0.00    +0.137 C 
BRANCH  18  19
ATOM     19  C   UNL     1       0.329   5.341  -2.461  0.00  0.00    -0.025 A 
ATOM     20  C   UNL     1      -0.339   5.153  -1.263  0.00  0.00    +0.054 A 
ATOM     21  C   UNL     1      -0.664   3.871  -0.853  0.00  0.00    +0.164 A 
ATOM     22  C   UNL     1      -0.322   2.781  -1.640  0.00  0.00    +0.180 A 
ATOM     23  C   UNL     1       0.345   2.973  -2.839  0.00  0.00    +0.086 A 
ATOM     24  C   UNL     1       0.670   4.256  -3.246  0.00  0.00    +0.029 A 
ATOM     25 CL   UNL     1       0.774   1.611  -3.826  0.00  0.00    -0.080 Cl
ATOM     26  O   UNL     1      -0.648   1.522  -1.227  0.00  0.00    -0.487 OA
ATOM     27  C   UNL     1       0.049   1.043  -0.075  0.00  0.00    +0.232 C 
ATOM     28  C   UNL     1      -0.630   1.516   1.201  0.00  0.00    +0.082 C 
ATOM     29  C   UNL     1      -0.576   3.028   1.359  0.00  0.00    +0.232 C 
ATOM     30  O   UNL     1      -1.324   3.672   0.325  0.00  0.00    -0.488 OA
ENDBRANCH  18  19
ENDBRANCH  16  18
ENDBRANCH   4  16
TORSDOF 6
