REMARK  Name = ZINC03450660
REMARK  11 active torsions:
REMARK  status: ('A' for Active; 'I' for Inactive)
REMARK    1  A    between atoms: C_1  and  C_2
REMARK    2  A    between atoms: C_5  and  O_34
REMARK    3  A    between atoms: C_6  and  N_8
REMARK    4  A    between atoms: C_12  and  C_33
REMARK    5  A    between atoms: C_13  and  C_32
REMARK    6  A    between atoms: C_17  and  S_18
REMARK    7  A    between atoms: S_18  and  C_19
REMARK    8  A    between atoms: C_19  and  C_20
REMARK    9  A    between atoms: N_22  and  C_23
REMARK   10  A    between atoms: N_22  and  C_24
REMARK   11  A    between atoms: O_34  and  C_35
REMARK                            x       y       z     vdW  Elec       q    Type
REMARK                         _______ _______ _______ _____ _____    ______ ____
ROOT
ATOM      1  N   UNL     1      -4.120   2.446   2.346  0.00  0.00    -0.252 N 
ATOM      2  C   UNL     1      -4.950   1.438   2.671  0.00  0.00    +0.268 A 
ATOM      3  O   UNL     1      -4.504   0.346   2.979  0.00  0.00    -0.267 OA
ATOM      4  C   UNL     1      -6.362   1.663   2.649  0.00  0.00    +0.076 A 
ATOM      5  C   UNL     1      -7.445   0.744   2.955  0.00  0.00    -0.026 A 
ATOM      6  C   UNL     1      -8.713   1.173   2.869  0.00  0.00    -0.008 A 
ATOM      7  S   UNL     1      -8.541   2.873   2.360  0.00  0.00    -0.073 S 
ATOM      8  C   UNL     1      -6.770   2.959   2.278  0.00  0.00    +0.117 A 
ATOM      9  N   UNL     1      -5.898   3.911   1.969  0.00  0.00    -0.215 NA
ATOM     10  C   UNL     1      -4.602   3.678   2.003  0.00  0.00    +0.178 A 
ATOM     11  C   UNL     1      -9.979   0.403   3.138  0.00  0.00    +0.052 C 
ATOM     12  C   UNL     1      -7.147  -0.675   3.366  0.00  0.00    +0.045 C 
ENDROOT
BRANCH   1  18
ATOM     13  C   UNL     1      -0.013   1.086   0.008  0.00  0.00    +0.044 C 
ATOM     14  C   UNL     1      -0.718   1.572   1.248  0.00  0.00    -0.048 A 
ATOM     15  C   UNL     1       0.003   1.805   2.405  0.00  0.00    +0.007 A 
ATOM     16  C   UNL     1      -0.639   2.251   3.545  0.00  0.00    +0.048 A 
ATOM     17  C   UNL     1      -2.008   2.465   3.531  0.00  0.00    +0.144 A 
ATOM     18  C   UNL     1      -2.734   2.231   2.366  0.00  0.00    +0.094 A 
ATOM     19  C   UNL     1      -2.083   1.789   1.224  0.00  0.00    +0.033 A 
BRANCH  17  20
ATOM     20  O   UNL     1      -2.640   2.903   4.652  0.00  0.00    -0.493 OA
ATOM     21  C   UNL     1      -1.832   3.121   5.810  0.00  0.00    +0.277 C 
ENDBRANCH  17  20
ENDBRANCH   1  18
BRANCH  10  22
ATOM     22  S   UNL     1      -3.475   4.969   1.593  0.00  0.00    -0.078 S 
BRANCH  22  23
ATOM     23  C   UNL     1      -4.644   6.306   1.240  0.00  0.00    +0.173 C 
BRANCH  23  24
ATOM     24  C   UNL     1      -3.884   7.549   0.856  0.00  0.00    +0.226 C 
ATOM     25  O   UNL     1      -2.672   7.533   0.824  0.00  0.00    -0.275 OA
ATOM     26  N   UNL     1      -4.552   8.678   0.548  0.00  0.00    -0.299 N 
ATOM     27  C   UNL     1      -6.016   8.698   0.587  0.00  0.00    +0.132 C 
BRANCH  26  28
ATOM     28  C   UNL     1      -3.813   9.887   0.174  0.00  0.00    +0.098 C 
ATOM     29  C   UNL     1      -4.164  11.030   1.141  0.00  0.00    +0.046 C 
ATOM     30  C   UNL     1      -3.650  12.376   0.576  0.00  0.00    +0.168 C 
ATOM     31  S   UNL     1      -3.676  12.088  -1.241  0.00  0.00    -0.029 S 
ATOM     32  O   UNL     1      -2.349  12.170  -1.741  0.00  0.00    -0.174 OA
ATOM     33  O   UNL     1      -4.695  12.891  -1.822  0.00  0.00    -0.174 OA
ATOM     34  C   UNL     1      -4.217  10.326  -1.262  0.00  0.00    +0.188 C 
ENDBRANCH  26  28
ENDBRANCH  23  24
ENDBRANCH  22  23
ENDBRANCH  10  22
TORSDOF 6
