REMARK  Name = ZINC10814084
REMARK  6 active torsions:
REMARK  status: ('A' for Active; 'I' for Inactive)
REMARK    1  A    between atoms: C_1  and  C_2
REMARK    2  A    between atoms: C_2  and  O_3
REMARK    3  A    between atoms: O_3  and  C_4
REMARK    4  A    between atoms: C_15  and  C_17
REMARK    5  A    between atoms: N_23  and  S_24
REMARK    6  A    between atoms: S_24  and  C_27
REMARK                            x       y       z     vdW  Elec       q    Type
REMARK                         _______ _______ _______ _____ _____    ______ ____
ROOT
ATOM      1  C   UNL     1      -0.845   0.314   0.440  0.00  0.00    +0.403 C 
ATOM      2  O   UNL     1      -1.950  -0.191   0.465  0.00  0.00    -0.226 OA
ATOM      3  N   UNL     1      -0.718   1.655   0.377  0.00  0.00    -0.262 N 
ATOM      4  C   UNL     1      -1.898   2.532   0.332  0.00  0.00    +0.117 C 
ATOM      5  C   UNL     1      -1.939   3.402   1.596  0.00  0.00    +0.075 C 
ATOM      6  C   UNL     1      -0.567   4.028   1.819  0.00  0.00    +0.057 A 
ATOM      7  C   UNL     1       0.539   3.492   1.240  0.00  0.00    +0.032 A 
ATOM      8  S   UNL     1       1.836   4.554   1.812  0.00  0.00    -0.055 S 
ATOM      9  C   UNL     1       0.836   5.618   2.757  0.00  0.00    +0.165 A 
ATOM     10  N   UNL     1      -0.362   5.104   2.575  0.00  0.00    -0.229 NA
ATOM     11  N   UNL     1       1.207   6.725   3.512  0.00  0.00    -0.263 N 
ATOM     12  C   UNL     1       2.502   7.095   3.574  0.00  0.00    +0.238 C 
ATOM     13  O   UNL     1       3.343   6.463   2.971  0.00  0.00    -0.274 OA
ATOM     14  C   UNL     1       0.611   2.299   0.346  0.00  0.00    +0.155 C 
ATOM     15  H   UNL     1       0.534   7.231   3.994  0.00  0.00    +0.157 HD
ENDROOT
BRANCH  12  16
ATOM     16  C   UNL     1       2.904   8.295   4.391  0.00  0.00    +0.166 C 
ATOM     17  C   UNL     1       3.848   7.858   5.515  0.00  0.00    +0.030 C 
ATOM     18  C   UNL     1       4.365   9.096   6.253  0.00  0.00    +0.003 C 
ATOM     19  C   UNL     1       5.144   9.985   5.282  0.00  0.00    +0.017 C 
ATOM     20  C   UNL     1       4.212  10.447   4.157  0.00  0.00    +0.110 C 
ATOM     21  N   UNL     1       3.601   9.264   3.535  0.00  0.00    -0.164 NA
BRANCH  21  22
ATOM     22  S   UNL     1       3.696   9.028   1.898  0.00  0.00    +0.068 S 
ATOM     23  O   UNL     1       2.613   8.178   1.547  0.00  0.00    -0.152 OA
ATOM     24  O   UNL     1       3.878  10.310   1.313  0.00  0.00    -0.152 OA
BRANCH  22  25
ATOM     25  C   UNL     1       5.172   8.118   1.588  0.00  0.00    +0.144 A 
ATOM     26  C   UNL     1       5.327   6.787   1.389  0.00  0.00    +0.038 A 
ATOM     27  C   UNL     1       6.595   6.287   1.155  0.00  0.00    +0.030 A 
ATOM     28  C   UNL     1       7.647   7.143   1.144  0.00  0.00    +0.080 A 
ATOM     29  S   UNL     1       6.851   8.709   1.462  0.00  0.00    -0.057 S 
ATOM     30 CL   UNL     1       9.330   6.804   0.887  0.00  0.00    -0.076 Cl
ENDBRANCH  22  25
ENDBRANCH  21  22
ENDBRANCH  12  16
BRANCH   1  31
ATOM     31  O   UNL     1       0.252  -0.465   0.474  0.00  0.00    -0.451 OA
BRANCH  31  33
ATOM     32  C   UNL     1       1.393  -2.615   0.572  0.00  0.00    +0.048 C 
ATOM     33  C   UNL     1       0.040  -1.900   0.541  0.00  0.00    +0.230 C 
ENDBRANCH  31  33
ENDBRANCH   1  31
TORSDOF 5
