REMARK  Name = ZINC08947553
REMARK  11 active torsions:
REMARK  status: ('A' for Active; 'I' for Inactive)
REMARK    1  A    between atoms: C_1  and  C_2
REMARK    2  A    between atoms: C_2  and  C_4
REMARK    3  A    between atoms: C_9  and  N_10
REMARK    4  A    between atoms: C_11  and  C_13
REMARK    5  A    between atoms: C_13  and  N_14
REMARK    6  A    between atoms: C_17  and  C_21
REMARK    7  A    between atoms: C_17  and  C_22
REMARK    8  A    between atoms: C_25  and  C_28
REMARK    9  A    between atoms: C_28  and  C_29
REMARK   10  A    between atoms: C_28  and  C_30
REMARK   11  A    between atoms: C_28  and  C_31
REMARK                            x       y       z     vdW  Elec       q    Type
REMARK                         _______ _______ _______ _____ _____    ______ ____
ROOT
ATOM      1  N   UNL     1       1.322  -0.352  -0.006  0.00  0.00    -0.215 N 
ATOM      2  C   UNL     1       0.019  -0.009   0.021  0.00  0.00    +0.251 C 
ATOM      3  O   UNL     1      -0.935  -0.756   0.038  0.00  0.00    -0.272 OA
ATOM      4  C   UNL     1      -0.006   1.507   0.027  0.00  0.00    +0.135 C 
ATOM      5  N   UNL     1       1.420   1.876  -0.001  0.00  0.00    -0.281 N 
ATOM      6  C   UNL     1       2.115   0.725  -0.019  0.00  0.00    +0.310 C 
ATOM      7  O   UNL     1       3.329   0.669  -0.044  0.00  0.00    -0.252 OA
ATOM      8  C   UNL     1      -0.673   2.030   1.300  0.00  0.00    +0.047 C 
ATOM      9  H   UNL     1       1.786   2.775  -0.005  0.00  0.00    +0.152 HD
ENDROOT
BRANCH   4  10
ATOM     10  C   UNL     1      -0.713   2.030  -1.197  0.00  0.00    -0.015 A 
ATOM     11  C   UNL     1      -1.718   1.286  -1.786  0.00  0.00    +0.006 A 
ATOM     12  C   UNL     1      -2.370   1.769  -2.905  0.00  0.00    +0.004 A 
ATOM     13  C   UNL     1      -2.009   2.990  -3.442  0.00  0.00    -0.042 A 
ATOM     14  C   UNL     1      -1.000   3.732  -2.857  0.00  0.00    +0.004 A 
ATOM     15  C   UNL     1      -0.352   3.252  -1.734  0.00  0.00    +0.006 A 
BRANCH  13  16
ATOM     16  C   UNL     1      -2.716   3.513  -4.667  0.00  0.00    -0.013 C 
ATOM     17  C   UNL     1      -1.701   3.713  -5.794  0.00  0.00    +0.015 C 
ATOM     18  C   UNL     1      -3.780   2.507  -5.110  0.00  0.00    +0.015 C 
ATOM     19  C   UNL     1      -3.383   4.850  -4.338  0.00  0.00    +0.015 C 
ENDBRANCH  13  16
ENDBRANCH   4  10
BRANCH   1  20
ATOM     20  C   UNL     1       1.808  -1.733  -0.021  0.00  0.00    +0.214 C 
BRANCH  20  22
ATOM     21  N   UNL     1       2.383  -3.450  -1.707  0.00  0.00    -0.284 N 
ATOM     22  C   UNL     1       1.947  -2.202  -1.447  0.00  0.00    +0.235 C 
ATOM     23  O   UNL     1       1.667  -1.455  -2.361  0.00  0.00    -0.274 OA
ATOM     24  H   UNL     1       2.669  -4.025  -0.980  0.00  0.00    +0.155 HD
BRANCH  21  30
ATOM     25  C   UNL     1       2.147  -5.265  -3.298  0.00  0.00    +0.038 A 
ATOM     26  C   UNL     1       2.183  -5.717  -4.623  0.00  0.00    +0.013 A 
ATOM     27  C   UNL     1       2.497  -4.841  -5.638  0.00  0.00    +0.001 A 
ATOM     28  C   UNL     1       2.773  -3.512  -5.357  0.00  0.00    +0.002 A 
ATOM     29  C   UNL     1       2.736  -3.049  -4.057  0.00  0.00    +0.024 A 
ATOM     30  C   UNL     1       2.421  -3.915  -3.018  0.00  0.00    +0.044 A 
BRANCH  25  32
ATOM     31  C   UNL     1       1.640  -7.661  -2.499  0.00  0.00    +0.091 C 
ATOM     32  C   UNL     1       1.818  -6.193  -2.209  0.00  0.00    +0.162 C 
ATOM     33  O   UNL     1       1.690  -5.778  -1.077  0.00  0.00    -0.292 OA
ENDBRANCH  25  32
ENDBRANCH  21  30
ENDBRANCH  20  22
ENDBRANCH   1  20
TORSDOF 6
