REMARK  Name = ZINC26687206
REMARK  8 active torsions:
REMARK  status: ('A' for Active; 'I' for Inactive)
REMARK    1  A    between atoms: C_1  and  C_2
REMARK    2  A    between atoms: C_3  and  N_15
REMARK    3  A    between atoms: N_6  and  C_9
REMARK    4  A    between atoms: N_7  and  C_8
REMARK    5  A    between atoms: C_19  and  C_20
REMARK    6  A    between atoms: C_23  and  O_26
REMARK    7  A    between atoms: O_26  and  C_27
REMARK    8  A    between atoms: C_27  and  C_28
REMARK                            x       y       z     vdW  Elec       q    Type
REMARK                         _______ _______ _______ _____ _____    ______ ____
ROOT
ATOM      1  N   UNL     1      -0.359  -5.331   0.703  0.00  0.00    -0.217 N 
ATOM      2  C   UNL     1      -1.663  -5.184   0.534  0.00  0.00    +0.263 C 
ATOM      3  O   UNL     1      -2.207  -4.103   0.662  0.00  0.00    -0.269 OA
ATOM      4  C   UNL     1      -2.425  -6.398   0.179  0.00  0.00    +0.078 C 
ATOM      5  C   UNL     1      -3.753  -6.548  -0.056  0.00  0.00    +0.028 C 
ATOM      6  S   UNL     1      -1.117  -7.617   0.148  0.00  0.00    -0.061 S 
ATOM      7  C   UNL     1       0.238  -6.532   0.566  0.00  0.00    +0.125 C 
ATOM      8  S   UNL     1       1.895  -6.923   0.749  0.00  0.00    -0.027 S 
ENDROOT
BRANCH   1  11
ATOM      9  C   UNL     1      -0.617  -3.761   3.321  0.00  0.00    +0.067 C 
ATOM     10  C   UNL     1       0.335  -3.493   2.184  0.00  0.00    +0.060 A 
ATOM     11  C   UNL     1       0.422  -4.207   1.040  0.00  0.00    +0.129 A 
ATOM     12  C   UNL     1       1.439  -3.628   0.238  0.00  0.00    +0.294 A 
ATOM     13  O   UNL     1       1.792  -4.011  -0.862  0.00  0.00    -0.264 OA
ATOM     14  N   UNL     1       1.944  -2.577   0.915  0.00  0.00    -0.216 N 
ATOM     15  N   UNL     1       1.264  -2.487   2.136  0.00  0.00    -0.282 N 
ATOM     16  C   UNL     1       1.504  -1.489   3.181  0.00  0.00    +0.171 C 
BRANCH  14  17
ATOM     17  C   UNL     1       2.968  -1.730   0.477  0.00  0.00    +0.067 A 
ATOM     18  C   UNL     1       2.817  -0.352   0.565  0.00  0.00    +0.028 A 
ATOM     19  C   UNL     1       3.830   0.480   0.131  0.00  0.00    +0.002 A 
ATOM     20  C   UNL     1       4.993  -0.056  -0.388  0.00  0.00    +0.000 A 
ATOM     21  C   UNL     1       5.147  -1.427  -0.476  0.00  0.00    +0.002 A 
ATOM     22  C   UNL     1       4.138  -2.266  -0.045  0.00  0.00    +0.028 A 
ENDBRANCH  14  17
ENDBRANCH   1  11
BRANCH   5  23
ATOM     23  C   UNL     1      -4.622  -5.367  -0.140  0.00  0.00    -0.024 A 
ATOM     24  C   UNL     1      -5.925  -5.416   0.370  0.00  0.00    +0.011 A 
ATOM     25  C   UNL     1      -6.733  -4.304   0.293  0.00  0.00    +0.046 A 
ATOM     26  C   UNL     1      -6.262  -3.138  -0.300  0.00  0.00    +0.121 A 
ATOM     27  C   UNL     1      -4.971  -3.086  -0.813  0.00  0.00    +0.046 A 
ATOM     28  C   UNL     1      -4.152  -4.190  -0.736  0.00  0.00    +0.011 A 
BRANCH  26  29
ATOM     29  O   UNL     1      -7.065  -2.047  -0.379  0.00  0.00    -0.487 OA
BRANCH  29  30
ATOM     30  C   UNL     1      -8.380  -2.168   0.167  0.00  0.00    +0.264 C 
BRANCH  30  31
ATOM     31  C   UNL     1      -9.120  -0.867  -0.010  0.00  0.00    -0.010 A 
ATOM     32  C   UNL     1      -9.057   0.103   0.973  0.00  0.00    +0.007 A 
ATOM     33  C   UNL     1      -9.732   1.298   0.809  0.00  0.00    +0.000 A 
ATOM     34  C   UNL     1     -10.477   1.520  -0.334  0.00  0.00    +0.000 A 
ATOM     35  C   UNL     1     -10.544   0.548  -1.315  0.00  0.00    +0.000 A 
ATOM     36  C   UNL     1      -9.865  -0.646  -1.153  0.00  0.00    +0.007 A 
ENDBRANCH  30  31
ENDBRANCH  29  30
ENDBRANCH  26  29
ENDBRANCH   5  23
TORSDOF 6
