REMARK  Name = ZINC16924485
REMARK  8 active torsions:
REMARK  status: ('A' for Active; 'I' for Inactive)
REMARK    1  A    between atoms: C_1  and  C_2
REMARK    2  A    between atoms: C_2  and  O_3
REMARK    3  A    between atoms: O_3  and  C_4
REMARK    4  A    between atoms: C_9  and  N_10
REMARK    5  A    between atoms: C_13  and  C_18
REMARK    6  A    between atoms: C_18  and  C_19
REMARK    7  A    between atoms: N_21  and  C_22
REMARK    8  A    between atoms: C_27  and  O_28
REMARK                            x       y       z     vdW  Elec       q    Type
REMARK                         _______ _______ _______ _____ _____    ______ ____
ROOT
ATOM      1  N   UNL     1      -0.570   0.433   3.365  0.00  0.00    -0.197 N 
ATOM      2  C   UNL     1       0.060   1.236   2.524  0.00  0.00    +0.241 C 
ATOM      3  O   UNL     1       1.178   1.652   2.740  0.00  0.00    -0.274 OA
ATOM      4  C   UNL     1      -0.715   1.602   1.266  0.00  0.00    +0.151 C 
ATOM      5  S   UNL     1      -2.267   0.667   1.571  0.00  0.00    -0.054 S 
ATOM      6  C   UNL     1      -1.810  -0.042   3.146  0.00  0.00    +0.286 C 
ATOM      7  O   UNL     1      -2.466  -0.780   3.854  0.00  0.00    -0.262 OA
ENDROOT
BRANCH   1  13
ATOM      8  C   UNL     1       0.882  -1.088   4.568  0.00  0.00    +0.142 A 
ATOM      9  C   UNL     1       1.530  -1.456   5.736  0.00  0.00    +0.047 A 
ATOM     10  C   UNL     1       1.388  -0.687   6.876  0.00  0.00    +0.004 A 
ATOM     11  C   UNL     1       0.601   0.449   6.855  0.00  0.00    +0.002 A 
ATOM     12  C   UNL     1      -0.044   0.825   5.692  0.00  0.00    +0.027 A 
ATOM     13  C   UNL     1       0.089   0.056   4.545  0.00  0.00    +0.086 A 
BRANCH   8  14
ATOM     14  O   UNL     1       1.020  -1.844   3.446  0.00  0.00    -0.490 OA
BRANCH  14  16
ATOM     15  C   UNL     1       1.883  -3.720   2.191  0.00  0.00    +0.048 C 
ATOM     16  C   UNL     1       1.850  -3.003   3.542  0.00  0.00    +0.226 C 
ENDBRANCH  14  16
ENDBRANCH   8  14
ENDBRANCH   1  13
BRANCH   4  17
ATOM     17  C   UNL     1      -0.002   1.103   0.008  0.00  0.00    +0.120 C 
BRANCH  17  18
ATOM     18  C   UNL     1      -0.738   1.591  -1.213  0.00  0.00    +0.219 C 
ATOM     19  O   UNL     1      -1.734   2.272  -1.089  0.00  0.00    -0.275 OA
ATOM     20  N   UNL     1      -0.288   1.272  -2.443  0.00  0.00    -0.283 N 
ATOM     21  H   UNL     1       0.543   0.783  -2.544  0.00  0.00    +0.155 HD
BRANCH  20  22
ATOM     22  C   UNL     1      -1.023   1.647  -3.576  0.00  0.00    +0.077 A 
ATOM     23  C   UNL     1      -1.723   2.844  -3.587  0.00  0.00    +0.047 A 
ATOM     24  C   UNL     1      -2.443   3.214  -4.708  0.00  0.00    +0.043 A 
ATOM     25  C   UNL     1      -2.475   2.387  -5.817  0.00  0.00    +0.023 A 
ATOM     26  C   UNL     1      -1.783   1.190  -5.811  0.00  0.00    +0.049 A 
ATOM     27  C   UNL     1      -1.056   0.815  -4.693  0.00  0.00    +0.138 A 
ATOM     28 CL   UNL     1      -3.313   4.716  -4.722  0.00  0.00    -0.083 Cl
BRANCH  27  29
ATOM     29  O   UNL     1      -0.375  -0.362  -4.686  0.00  0.00    -0.505 OA
ATOM     30  H   UNL     1      -0.889  -1.112  -4.358  0.00  0.00    +0.292 HD
ENDBRANCH  27  29
ENDBRANCH  20  22
ENDBRANCH  17  18
ENDBRANCH   4  17
TORSDOF 7
