REMARK  Name = ZINC32759605
REMARK  7 active torsions:
REMARK  status: ('A' for Active; 'I' for Inactive)
REMARK    1  A    between atoms: C_1  and  C_2
REMARK    2  A    between atoms: C_3  and  C_14
REMARK    3  A    between atoms: C_4  and  C_13
REMARK    4  A    between atoms: N_5  and  C_7
REMARK    5  A    between atoms: N_21  and  C_22
REMARK    6  A    between atoms: C_22  and  C_23
REMARK    7  A    between atoms: N_25  and  C_26
REMARK                            x       y       z     vdW  Elec       q    Type
REMARK                         _______ _______ _______ _____ _____    ______ ____
ROOT
ATOM      1  C   UNL     1       0.849   3.399  -6.840  0.00  0.00    +0.054 C 
ATOM      2  C   UNL     1       0.320   4.625  -7.529  0.00  0.00    +0.204 C 
ATOM      3  O   UNL     1      -0.717   4.540  -8.152  0.00  0.00    -0.277 OA
ATOM      4  N   UNL     1       0.944   5.807  -7.482  0.00  0.00    -0.318 N 
ATOM      5  C   UNL     1       2.214   6.007  -6.790  0.00  0.00    +0.085 C 
ATOM      6  C   UNL     1       2.458   4.864  -5.802  0.00  0.00    -0.058 C 
ATOM      7  N   UNL     1       2.266   3.584  -6.503  0.00  0.00    +0.397 N 
ATOM      8  H   UNL     1       0.459   6.650  -7.996  0.00  0.00    +0.149 HD
ATOM      9  H   UNL     1       2.846   3.606  -7.438  0.00  0.00    -0.079 HD
ENDROOT
BRANCH   1  12
ATOM     10  C   UNL     1       2.663   2.753  -9.357  0.00  0.00    +0.068 C 
ATOM     11  C   UNL     1       1.504   1.924  -8.866  0.00  0.00    +0.063 A 
ATOM     12  C   UNL     1       0.703   2.210  -7.755  0.00  0.00    -0.009 A 
ATOM     13  C   UNL     1      -0.221   1.228  -7.644  0.00  0.00    +0.044 A 
ATOM     14  N   UNL     1      -0.018   0.354  -8.655  0.00  0.00    -0.237 N 
ATOM     15  N   UNL     1       1.073   0.812  -9.406  0.00  0.00    -0.171 NA
ATOM     16  C   UNL     1      -1.289   1.128  -6.584  0.00  0.00    +0.066 C 
BRANCH  14  17
ATOM     17  C   UNL     1      -0.762  -0.807  -8.905  0.00  0.00    +0.066 A 
ATOM     18  C   UNL     1      -0.119  -1.978  -9.283  0.00  0.00    +0.028 A 
ATOM     19  C   UNL     1      -0.854  -3.122  -9.523  0.00  0.00    +0.002 A 
ATOM     20  C   UNL     1      -2.231  -3.099  -9.398  0.00  0.00    +0.000 A 
ATOM     21  C   UNL     1      -2.875  -1.933  -9.027  0.00  0.00    +0.002 A 
ATOM     22  C   UNL     1      -2.145  -0.787  -8.780  0.00  0.00    +0.028 A 
ENDBRANCH  14  17
ENDBRANCH   1  12
BRANCH   7  23
ATOM     23  C   UNL     1       2.767   2.462  -5.698  0.00  0.00    +0.020 C 
BRANCH  23  24
ATOM     24  C   UNL     1       4.265   2.566  -5.569  0.00  0.00    +0.197 C 
ATOM     25  O   UNL     1       4.870   3.415  -6.188  0.00  0.00    -0.278 OA
ATOM     26  N   UNL     1       4.932   1.715  -4.765  0.00  0.00    -0.314 N 
ATOM     27  H   UNL     1       4.384   0.944  -4.203  0.00  0.00    +0.149 HD
BRANCH  26  28
ATOM     28  C   UNL     1       6.388   1.816  -4.639  0.00  0.00    +0.073 C 
ATOM     29  C   UNL     1       7.043   1.088  -5.829  0.00  0.00    +0.022 C 
ATOM     30  C   UNL     1       8.529   0.760  -5.584  0.00  0.00    +0.002 C 
ATOM     31  C   UNL     1       9.266   1.891  -4.921  0.00  0.00    +0.000 C 
ATOM     32  C   UNL     1       9.259   1.653  -3.397  0.00  0.00    +0.000 C 
ATOM     33  C   UNL     1       8.002   2.050  -2.779  0.00  0.00    +0.002 C 
ATOM     34  C   UNL     1       6.803   1.239  -3.312  0.00  0.00    +0.022 C 
ENDBRANCH  26  28
ENDBRANCH  23  24
ENDBRANCH   7  23
TORSDOF 5
