REMARK  Name = ZINC22293215
REMARK  6 active torsions:
REMARK  status: ('A' for Active; 'I' for Inactive)
REMARK    1  A    between atoms: C_1  and  C_2
REMARK    2  A    between atoms: C_5  and  C_30
REMARK    3  A    between atoms: N_8  and  C_10
REMARK    4  A    between atoms: C_10  and  C_11
REMARK    5  A    between atoms: C_17  and  C_19
REMARK    6  A    between atoms: C_19  and  N_20
REMARK                            x       y       z     vdW  Elec       q    Type
REMARK                         _______ _______ _______ _____ _____    ______ ____
ROOT
ATOM      1  C   UNL     1       4.634   0.918  -0.037  0.00  0.00    +0.034 A 
ATOM      2  C   UNL     1       4.435  -0.422  -0.043  0.00  0.00    +0.070 A 
ATOM      3  S   UNL     1       2.649  -0.492  -0.026  0.00  0.00    -0.060 S 
ATOM      4  C   UNL     1       2.357   1.220  -0.014  0.00  0.00    +0.165 A 
ATOM      5  N   UNL     1       3.580   1.711  -0.028  0.00  0.00    -0.231 NA
ATOM      6  N   UNL     1       1.143   1.898   0.001  0.00  0.00    -0.263 N 
ATOM      7  C   UNL     1      -0.014   1.209   0.009  0.00  0.00    +0.239 C 
ATOM      8  O   UNL     1       0.002  -0.004   0.002  0.00  0.00    -0.273 OA
ATOM      9  H   UNL     1       1.129   2.998   0.007  0.00  0.00    +0.157 HD
ENDROOT
BRANCH   1  10
ATOM     10  C   UNL     1       6.029   1.490  -0.047  0.00  0.00    -0.022 C 
BRANCH  10  16
ATOM     11  C   UNL     1       6.947  -0.347  -4.516  0.00  0.00    +0.005 C 
ATOM     12  C   UNL     1       6.806   0.932  -3.688  0.00  0.00    -0.031 C 
ATOM     13  C   UNL     1       8.101   1.744  -3.778  0.00  0.00    +0.003 C 
ATOM     14  C   UNL     1       7.974   2.992  -2.900  0.00  0.00    -0.031 C 
ATOM     15  C   UNL     1       7.671   2.568  -1.461  0.00  0.00    -0.075 C 
ATOM     16  N   UNL     1       6.423   1.795  -1.428  0.00  0.00    +0.384 N 
ATOM     17  C   UNL     1       6.538   0.568  -2.226  0.00  0.00    -0.075 C 
ATOM     18  C   UNL     1       6.836   3.870  -3.423  0.00  0.00    +0.005 C 
ATOM     19  H   UNL     1       5.633   2.415  -1.878  0.00  0.00    -0.081 HD
ENDBRANCH  10  16
ENDBRANCH   1  10
BRANCH   7  20
ATOM     20  C   UNL     1      -1.330   1.944   0.019  0.00  0.00    +0.224 C 
BRANCH  20  21
ATOM     21  N   UNL     1      -2.430   0.977   0.019  0.00  0.00    -0.265 N 
ATOM     22  C   UNL     1      -3.044   0.427   1.143  0.00  0.00    +0.091 A 
ATOM     23  C   UNL     1      -2.850   0.584   2.507  0.00  0.00    +0.030 A 
ATOM     24  C   UNL     1      -3.638  -0.118   3.398  0.00  0.00    +0.002 A 
ATOM     25  C   UNL     1      -4.620  -0.976   2.934  0.00  0.00    +0.004 A 
ATOM     26  C   UNL     1      -4.819  -1.137   1.577  0.00  0.00    +0.048 A 
ATOM     27  C   UNL     1      -4.033  -0.437   0.674  0.00  0.00    +0.157 A 
ATOM     28  O   UNL     1      -3.998  -0.393  -0.680  0.00  0.00    -0.407 OA
ATOM     29  C   UNL     1      -3.038   0.462  -1.068  0.00  0.00    +0.422 A 
ATOM     30  O   UNL     1      -2.758   0.727  -2.221  0.00  0.00    -0.223 OA
ENDBRANCH  20  21
ENDBRANCH   7  20
TORSDOF 4
