REMARK  Name = ZINC44388565
REMARK  4 active torsions:
REMARK  status: ('A' for Active; 'I' for Inactive)
REMARK    1  A    between atoms: C_1  and  C_2
REMARK    2  A    between atoms: N_8  and  C_13
REMARK    3  A    between atoms: C_15  and  C_17
REMARK    4  A    between atoms: C_17  and  C_18
REMARK                            x       y       z     vdW  Elec       q    Type
REMARK                         _______ _______ _______ _____ _____    ______ ____
ROOT
ATOM      1  C   UNL     1      -0.019   1.526   0.010  0.00  0.00    +0.017 C 
ATOM      2  C   UNL     1       0.002  -0.004   0.002  0.00  0.00    +0.077 C 
ATOM      3  C   UNL     1      -1.438  -0.525  -0.009  0.00  0.00    +0.054 C 
ATOM      4  C   UNL     1      -2.004  -0.386   1.382  0.00  0.00    +0.035 A 
ATOM      5  C   UNL     1      -3.321  -0.199   1.790  0.00  0.00    +0.152 A 
ATOM      6  N   UNL     1      -3.337  -0.143   3.106  0.00  0.00    -0.154 NA
ATOM      7  N   UNL     1      -2.021  -0.291   3.572  0.00  0.00    -0.251 N 
ATOM      8  C   UNL     1      -1.218  -0.432   2.501  0.00  0.00    +0.128 A 
ATOM      9  N   UNL     1       0.166  -0.589   2.424  0.00  0.00    -0.270 N 
ATOM     10  C   UNL     1       0.749  -0.493   1.211  0.00  0.00    +0.221 C 
ATOM     11  O   UNL     1       1.913  -0.811   1.093  0.00  0.00    -0.275 OA
ATOM     12  C   UNL     1      -1.598  -0.293   4.975  0.00  0.00    +0.174 C 
ATOM     13  N   UNL     1      -4.436  -0.089   0.949  0.00  0.00    -0.268 N 
ATOM     14  C   UNL     1      -5.664   0.091   1.476  0.00  0.00    +0.223 C 
ATOM     15  O   UNL     1      -5.803   0.158   2.679  0.00  0.00    -0.275 OA
ATOM     16  H   UNL     1       0.694  -0.763   3.219  0.00  0.00    +0.156 HD
ATOM     17  H   UNL     1      -4.325  -0.142  -0.013  0.00  0.00    +0.156 HD
ENDROOT
BRANCH  14  18
ATOM     18  C   UNL     1      -6.863   0.209   0.571  0.00  0.00    +0.133 C 
BRANCH  18  19
ATOM     19  C   UNL     1      -8.104   0.404   1.403  0.00  0.00    -0.014 A 
ATOM     20  C   UNL     1      -8.948  -0.556   1.815  0.00  0.00    +0.087 A 
ATOM     21  N   UNL     1      -9.960  -0.003   2.550  0.00  0.00    -0.360 N 
ATOM     22  H   UNL     1     -10.690  -0.498   2.954  0.00  0.00    +0.165 HD
ATOM     23  C   UNL     1      -9.788   1.361   2.632  0.00  0.00    +0.047 A 
ATOM     24  C   UNL     1      -8.614   1.675   1.923  0.00  0.00    +0.003 A 
ATOM     25  C   UNL     1      -8.183   3.000   1.841  0.00  0.00    +0.010 A 
ATOM     26  C   UNL     1      -8.903   3.986   2.453  0.00  0.00    +0.001 A 
ATOM     27  C   UNL     1     -10.060   3.682   3.158  0.00  0.00    +0.002 A 
ATOM     28  C   UNL     1     -10.508   2.382   3.244  0.00  0.00    +0.026 A 
ENDBRANCH  18  19
ENDBRANCH  14  18
TORSDOF 2
