REMARK  Name = ZINC38994445
REMARK  8 active torsions:
REMARK  status: ('A' for Active; 'I' for Inactive)
REMARK    1  A    between atoms: C_1  and  O_2
REMARK    2  A    between atoms: O_2  and  C_3
REMARK    3  A    between atoms: C_3  and  C_5
REMARK    4  A    between atoms: C_5  and  S_6
REMARK    5  A    between atoms: S_6  and  C_7
REMARK    6  A    between atoms: C_11  and  C_15
REMARK    7  A    between atoms: N_13  and  N_14
REMARK    8  A    between atoms: C_18  and  C_21
REMARK                            x       y       z     vdW  Elec       q    Type
REMARK                         _______ _______ _______ _____ _____    ______ ____
ROOT
ATOM      1  C   UNL     1      -2.873  -4.484   0.005  0.00  0.00    +0.214 C 
ATOM      2  N   UNL     1      -2.059  -4.972   1.149  0.00  0.00    -0.228 NA
ATOM      3  N   UNL     1      -1.572  -6.286   0.718  0.00  0.00    -0.234 NA
ATOM      4  C   UNL     1      -1.594  -6.288  -0.758  0.00  0.00    +0.185 C 
ATOM      5  N   UNL     1      -2.109  -4.962  -1.177  0.00  0.00    -0.197 NA
ATOM      6  H   UNL     1      -1.290  -4.346   1.339  0.00  0.00    +0.143 HD
ATOM      7  H   UNL     1      -0.641  -6.458   1.067  0.00  0.00    +0.143 HD
ENDROOT
BRANCH   4   8
ATOM      8  C   UNL     1      -0.180  -6.500  -1.303  0.00  0.00    +0.187 C 
ATOM      9  C   UNL     1       0.346  -7.870  -0.910  0.00  0.00    +0.034 C 
ATOM     10  C   UNL     1       1.430  -7.596  -0.159  0.00  0.00    +0.091 C 
ATOM     11  N   UNL     1       1.611  -6.253  -0.059  0.00  0.00    -0.154 NA
ATOM     12  N   UNL     1       0.769  -5.576  -0.662  0.00  0.00    -0.176 NA
BRANCH  10  13
ATOM     13  C   UNL     1       2.304  -8.617   0.470  0.00  0.00    +0.002 A 
ATOM     14  C   UNL     1       2.030  -9.973   0.299  0.00  0.00    +0.011 A 
ATOM     15  C   UNL     1       2.845 -10.918   0.886  0.00  0.00    +0.020 A 
ATOM     16  C   UNL     1       3.933 -10.522   1.645  0.00  0.00    +0.041 A 
ATOM     17  C   UNL     1       4.209  -9.176   1.818  0.00  0.00    +0.020 A 
ATOM     18  C   UNL     1       3.404  -8.223   1.230  0.00  0.00    +0.011 A 
ATOM     19 CL   UNL     1       4.955 -11.716   2.383  0.00  0.00    -0.084 Cl
ENDBRANCH  10  13
ENDBRANCH   4   8
BRANCH   5  20
ATOM     20  N   UNL     1      -2.971  -5.077  -2.343  0.00  0.00    -0.264 NA
ATOM     21  H   UNL     1      -3.384  -4.187  -2.577  0.00  0.00    +0.137 HD
ATOM     22  H   UNL     1      -2.467  -5.460  -3.129  0.00  0.00    +0.137 HD
ENDBRANCH   5  20
BRANCH   1  23
ATOM     23  S   UNL     1      -2.976  -2.674   0.016  0.00  0.00    -0.113 S 
BRANCH  23  24
ATOM     24  C   UNL     1      -1.244  -2.135   0.003  0.00  0.00    +0.192 C 
BRANCH  24  25
ATOM     25  C   UNL     1      -1.185  -0.630   0.010  0.00  0.00    +0.317 C 
ATOM     26  O   UNL     1      -2.208   0.015   0.023  0.00  0.00    -0.250 OA
BRANCH  25  28
ATOM     27  C   UNL     1      -0.017   1.425   0.010  0.00  0.00    +0.280 C 
ATOM     28  O   UNL     1       0.002  -0.004   0.002  0.00  0.00    -0.467 OA
ENDBRANCH  25  28
ENDBRANCH  24  25
ENDBRANCH  23  24
ENDBRANCH   1  23
TORSDOF 7
