REMARK  Name = ZINC37064951
REMARK  5 active torsions:
REMARK  status: ('A' for Active; 'I' for Inactive)
REMARK    1  A    between atoms: C_1  and  C_2
REMARK    2  A    between atoms: C_3  and  C_20
REMARK    3  A    between atoms: C_7  and  O_11
REMARK    4  A    between atoms: O_11  and  C_12
REMARK    5  A    between atoms: C_15  and  N_19
REMARK                            x       y       z     vdW  Elec       q    Type
REMARK                         _______ _______ _______ _____ _____    ______ ____
ROOT
ATOM      1  C   UNL     1      -0.116   1.481   0.010  0.00  0.00    +0.045 C 
ATOM      2  C   UNL     1       0.013  -0.020   0.008  0.00  0.00    -0.026 A 
ATOM      3  C   UNL     1       0.038  -0.698  -1.149  0.00  0.00    -0.008 A 
ATOM      4  S   UNL     1       0.199  -2.397  -0.634  0.00  0.00    -0.073 S 
ATOM      5  C   UNL     1       0.228  -2.152   1.121  0.00  0.00    +0.116 A 
ATOM      6  C   UNL     1       0.117  -0.750   1.260  0.00  0.00    +0.073 A 
ATOM      7  C   UNL     1       0.120  -0.268   2.595  0.00  0.00    +0.232 A 
ATOM      8  N   UNL     1       0.228  -1.129   3.592  0.00  0.00    -0.201 NA
ATOM      9  C   UNL     1       0.333  -2.431   3.389  0.00  0.00    +0.226 A 
ATOM     10  N   UNL     1       0.326  -2.940   2.173  0.00  0.00    -0.228 NA
ATOM     11  C   UNL     1      -0.050  -0.152  -2.551  0.00  0.00    +0.052 C 
ENDROOT
BRANCH   7  12
ATOM     12  O   UNL     1       0.015   1.059   2.845  0.00  0.00    -0.434 OA
BRANCH  12  13
ATOM     13  C   UNL     1      -0.083   1.459   4.141  0.00  0.00    +0.166 A 
ATOM     14  C   UNL     1      -1.330   1.667   4.710  0.00  0.00    +0.051 A 
ATOM     15  C   UNL     1      -1.431   2.073   6.027  0.00  0.00    +0.026 A 
ATOM     16  C   UNL     1      -0.282   2.273   6.782  0.00  0.00    +0.028 A 
ATOM     17  C   UNL     1       0.967   2.066   6.213  0.00  0.00    +0.064 A 
ATOM     18  C   UNL     1       1.067   1.654   4.897  0.00  0.00    +0.167 A 
ATOM     19  F   UNL     1       2.282   1.446   4.344  0.00  0.00    -0.202 F 
BRANCH  16  20
ATOM     20  N   UNL     1      -0.385   2.685   8.115  0.00  0.00    -0.358 N 
ATOM     21  H   UNL     1      -1.258   2.831   8.512  0.00  0.00    +0.142 HD
ATOM     22  H   UNL     1       0.417   2.826   8.642  0.00  0.00    +0.142 HD
ENDBRANCH  16  20
ENDBRANCH  12  13
ENDBRANCH   7  12
TORSDOF 3
