REMARK  Name = ZINC01320753
REMARK  6 active torsions:
REMARK  status: ('A' for Active; 'I' for Inactive)
REMARK    1  A    between atoms: C_1  and  C_2
REMARK    2  A    between atoms: C_2  and  C_31
REMARK    3  A    between atoms: C_8  and  N_13
REMARK    4  A    between atoms: N_13  and  S_14
REMARK    5  A    between atoms: S_14  and  C_17
REMARK    6  A    between atoms: N_26  and  C_27
REMARK                            x       y       z     vdW  Elec       q    Type
REMARK                         _______ _______ _______ _____ _____    ______ ____
ROOT
ATOM      1  C   UNL     1       6.180   2.143  -2.038  0.00  0.00    +0.012 C 
ATOM      2  C   UNL     1       6.547   1.989  -0.561  0.00  0.00    -0.021 C 
ATOM      3  C   UNL     1       6.036   0.639  -0.052  0.00  0.00    +0.082 C 
ATOM      4  C   UNL     1       4.526   0.648  -0.036  0.00  0.00    +0.117 A 
ATOM      5  C   UNL     1       3.794   1.809  -0.023  0.00  0.00    +0.066 A 
ATOM      6  C   UNL     1       2.384   1.415  -0.013  0.00  0.00    +0.033 A 
ATOM      7  C   UNL     1       1.172   2.098   0.002  0.00  0.00    +0.036 A 
ATOM      8  C   UNL     1      -0.017   1.389   0.010  0.00  0.00    +0.049 A 
ATOM      9  C   UNL     1       0.002  -0.004   0.002  0.00  0.00    +0.028 A 
ATOM     10  C   UNL     1       1.198  -0.686  -0.013  0.00  0.00    +0.049 A 
ATOM     11  C   UNL     1       2.400   0.010  -0.021  0.00  0.00    +0.136 A 
ATOM     12  O   UNL     1       3.693  -0.391  -0.034  0.00  0.00    -0.459 OA
ATOM     13  C   UNL     1       4.421   3.132  -0.018  0.00  0.00    +0.168 C 
ATOM     14  O   UNL     1       3.789   4.151  -0.206  0.00  0.00    -0.292 OA
ATOM     15  C   UNL     1       5.921   3.138   0.237  0.00  0.00    +0.086 C 
ATOM     16  C   UNL     1       8.068   2.041  -0.410  0.00  0.00    +0.012 C 
ENDROOT
BRANCH   8  17
ATOM     17  N   UNL     1      -1.238   2.071   0.019  0.00  0.00    -0.216 N 
ATOM     18  H   UNL     1      -1.374   2.829  -0.570  0.00  0.00    +0.174 HD
BRANCH  17  19
ATOM     19  S   UNL     1      -2.450   1.584   1.036  0.00  0.00    +0.072 S 
ATOM     20  O   UNL     1      -3.535   2.479   0.833  0.00  0.00    -0.150 OA
ATOM     21  O   UNL     1      -2.581   0.179   0.870  0.00  0.00    -0.150 OA
BRANCH  19  22
ATOM     22  C   UNL     1      -1.885   1.845   2.684  0.00  0.00    +0.112 A 
ATOM     23  C   UNL     1      -1.208   0.836   3.348  0.00  0.00    +0.031 A 
ATOM     24  C   UNL     1      -0.757   1.035   4.638  0.00  0.00    +0.031 A 
ATOM     25  C   UNL     1      -0.993   2.245   5.272  0.00  0.00    +0.090 A 
ATOM     26  C   UNL     1      -1.679   3.260   4.606  0.00  0.00    +0.159 A 
ATOM     27  C   UNL     1      -2.123   3.053   3.310  0.00  0.00    +0.077 A 
ATOM     28  O   UNL     1      -1.762   4.314   5.455  0.00  0.00    -0.407 OA
ATOM     29  C   UNL     1      -1.161   3.997   6.612  0.00  0.00    +0.421 A 
ATOM     30  O   UNL     1      -1.066   4.729   7.578  0.00  0.00    -0.223 OA
ATOM     31  N   UNL     1      -0.679   2.740   6.538  0.00  0.00    -0.277 N 
ATOM     32  C   UNL     1       0.044   2.026   7.593  0.00  0.00    +0.156 C 
ENDBRANCH  19  22
ENDBRANCH  17  19
ENDBRANCH   8  17
TORSDOF 3
