REMARK  Name = ZINC09532253
REMARK  8 active torsions:
REMARK  status: ('A' for Active; 'I' for Inactive)
REMARK    1  A    between atoms: N_9  and  C_33
REMARK    2  A    between atoms: C_10  and  C_12
REMARK    3  A    between atoms: C_12  and  S_13
REMARK    4  A    between atoms: S_13  and  C_14
REMARK    5  A    between atoms: C_17  and  C_26
REMARK    6  A    between atoms: N_18  and  C_19
REMARK    7  A    between atoms: C_19  and  C_20
REMARK    8  A    between atoms: C_33  and  C_34
REMARK                            x       y       z     vdW  Elec       q    Type
REMARK                         _______ _______ _______ _____ _____    ______ ____
ROOT
ATOM      1  C   UNL     1       5.174   1.361  -0.089  0.00  0.00    +0.192 A 
ATOM      2  N   UNL     1       5.084   0.050  -0.072  0.00  0.00    -0.122 NA
ATOM      3  N   UNL     1       6.258  -0.472  -0.033  0.00  0.00    -0.128 NA
ATOM      4  C   UNL     1       7.168   0.473  -0.013  0.00  0.00    +0.165 A 
ATOM      5  N   UNL     1       6.502   1.677  -0.048  0.00  0.00    -0.300 N 
ENDROOT
BRANCH   4   6
ATOM      6  C   UNL     1       8.633   0.281   0.038  0.00  0.00    +0.019 A 
ATOM      7  C   UNL     1       9.462   1.322   0.461  0.00  0.00    +0.013 A 
ATOM      8  C   UNL     1      10.828   1.135   0.512  0.00  0.00    +0.021 A 
ATOM      9  C   UNL     1      11.377  -0.078   0.134  0.00  0.00    +0.041 A 
ATOM     10  C   UNL     1      10.561  -1.113  -0.291  0.00  0.00    +0.021 A 
ATOM     11  C   UNL     1       9.193  -0.939  -0.341  0.00  0.00    +0.013 A 
ATOM     12 CL   UNL     1      13.098  -0.304   0.195  0.00  0.00    -0.084 Cl
ENDBRANCH   4   6
BRANCH   1  13
ATOM     13  S   UNL     1       3.830   2.500  -0.145  0.00  0.00    -0.078 S 
BRANCH  13  14
ATOM     14  C   UNL     1       2.439   1.343  -0.179  0.00  0.00    +0.151 C 
BRANCH  14  24
ATOM     15  C   UNL     1      -2.262   5.668  -0.382  0.00  0.00    +0.001 A 
ATOM     16  C   UNL     1      -1.025   6.300  -0.347  0.00  0.00    +0.002 A 
ATOM     17  C   UNL     1       0.140   5.567  -0.300  0.00  0.00    +0.028 A 
ATOM     18  C   UNL     1       0.079   4.173  -0.287  0.00  0.00    +0.078 A 
ATOM     19  C   UNL     1      -1.180   3.534  -0.322  0.00  0.00    +0.065 A 
ATOM     20  C   UNL     1      -2.347   4.293  -0.371  0.00  0.00    +0.015 A 
ATOM     21  C   UNL     1      -1.209   2.063  -0.313  0.00  0.00    +0.263 A 
ATOM     22  O   UNL     1      -2.260   1.451  -0.347  0.00  0.00    -0.267 OA
ATOM     23  N   UNL     1      -0.020   1.418  -0.261  0.00  0.00    -0.282 N 
ATOM     24  C   UNL     1       1.145   2.115  -0.230  0.00  0.00    +0.124 A 
ATOM     25  N   UNL     1       1.202   3.412  -0.242  0.00  0.00    -0.233 NA
BRANCH  23  26
ATOM     26  C   UNL     1       0.009  -0.047  -0.244  0.00  0.00    +0.245 C 
BRANCH  26  27
ATOM     27  C   UNL     1      -0.026  -0.522   1.148  0.00  0.00    +0.084 C 
ATOM     28  N   UNL     1      -0.054  -0.889   2.223  0.00  0.00    -0.195 NA
ENDBRANCH  26  27
ENDBRANCH  23  26
ENDBRANCH  14  24
ENDBRANCH  13  14
ENDBRANCH   1  13
BRANCH   5  29
ATOM     29  C   UNL     1       7.094   3.017  -0.043  0.00  0.00    +0.157 C 
BRANCH  29  30
ATOM     30  C   UNL     1       7.197   3.523   1.398  0.00  0.00    +0.138 C 
ATOM     31  C   UNL     1       7.872   4.918   1.431  0.00  0.00    +0.035 C 
ATOM     32  C   UNL     1       7.307   5.486   2.761  0.00  0.00    +0.031 C 
ATOM     33  C   UNL     1       5.889   4.878   2.802  0.00  0.00    +0.160 C 
ATOM     34  O   UNL     1       5.887   3.726   1.950  0.00  0.00    -0.375 OA
ENDBRANCH  29  30
ENDBRANCH   5  29
TORSDOF 8
