REMARK  Name = ZINC14556830
REMARK  6 active torsions:
REMARK  status: ('A' for Active; 'I' for Inactive)
REMARK    1  A    between atoms: C_5  and  C_7
REMARK    2  A    between atoms: N_11  and  C_15
REMARK    3  A    between atoms: C_15  and  C_16
REMARK    4  A    between atoms: C_16  and  N_17
REMARK    5  A    between atoms: C_18  and  C_20
REMARK    6  A    between atoms: C_20  and  N_21
REMARK                            x       y       z     vdW  Elec       q    Type
REMARK                         _______ _______ _______ _____ _____    ______ ____
ROOT
ATOM      1  N   UNL     1      -2.754   2.394   3.129  0.00  0.00    -0.312 N 
ATOM      2  C   UNL     1      -3.186   2.423   4.405  0.00  0.00    +0.231 C 
ATOM      3  O   UNL     1      -2.524   1.908   5.281  0.00  0.00    -0.274 OA
ATOM      4  H   UNL     1      -3.284   2.806   2.428  0.00  0.00    +0.149 HD
ENDROOT
BRANCH   1   5
ATOM      5  C   UNL     1      -1.486   1.740   2.799  0.00  0.00    +0.123 C 
BRANCH   5   6
ATOM      6  C   UNL     1      -1.232   1.847   1.294  0.00  0.00    +0.136 C 
BRANCH   6  11
ATOM      7  C   UNL     1       1.655  -1.965  -0.025  0.00  0.00    +0.031 C 
ATOM      8  C   UNL     1       1.350  -0.691   0.326  0.00  0.00    +0.080 C 
ATOM      9  C   UNL     1       0.040  -0.092   0.654  0.00  0.00    +0.260 C 
ATOM     10  O   UNL     1      -0.985  -0.749   0.640  0.00  0.00    -0.269 OA
ATOM     11  N   UNL     1       0.037   1.193   0.965  0.00  0.00    -0.227 N 
ATOM     12  C   UNL     1       1.175   1.917   0.980  0.00  0.00    +0.286 C 
ATOM     13  O   UNL     1       1.317   3.096   1.244  0.00  0.00    -0.262 OA
ATOM     14  S   UNL     1       2.423   0.727   0.517  0.00  0.00    -0.026 S 
BRANCH   7  19
ATOM     15  C   UNL     1       5.388  -2.006   0.320  0.00  0.00    +0.001 A 
ATOM     16  C   UNL     1       5.711  -3.150  -0.390  0.00  0.00    +0.003 A 
ATOM     17  C   UNL     1       4.718  -3.911  -0.981  0.00  0.00    +0.039 A 
ATOM     18  C   UNL     1       3.394  -3.533  -0.868  0.00  0.00    +0.131 A 
ATOM     19  C   UNL     1       3.060  -2.376  -0.151  0.00  0.00    +0.011 A 
ATOM     20  C   UNL     1       4.073  -1.611   0.439  0.00  0.00    +0.011 A 
ATOM     21  F   UNL     1       2.425  -4.276  -1.446  0.00  0.00    -0.205 F 
ENDBRANCH   7  19
ENDBRANCH   6  11
ENDBRANCH   5   6
ENDBRANCH   1   5
BRANCH   2  22
ATOM     22  C   UNL     1      -4.491   3.096   4.744  0.00  0.00    +0.213 C 
BRANCH  22  23
ATOM     23  N   UNL     1      -4.734   2.993   6.185  0.00  0.00    -0.215 N 
ATOM     24  C   UNL     1      -5.403   1.978   6.771  0.00  0.00    +0.247 C 
ATOM     25  O   UNL     1      -5.899   1.015   6.226  0.00  0.00    -0.273 OA
ATOM     26  C   UNL     1      -5.401   2.293   8.248  0.00  0.00    +0.113 C 
ATOM     27  C   UNL     1      -6.830   2.455   8.755  0.00  0.00    +0.035 C 
ATOM     28  C   UNL     1      -6.808   2.811  10.244  0.00  0.00    +0.003 C 
ATOM     29  C   UNL     1      -6.095   1.702  11.021  0.00  0.00    +0.000 C 
ATOM     30  C   UNL     1      -4.657   1.566  10.517  0.00  0.00    +0.003 C 
ATOM     31  C   UNL     1      -4.672   1.205   9.029  0.00  0.00    +0.035 C 
ATOM     32  N   UNL     1      -4.676   3.567   8.341  0.00  0.00    -0.285 N 
ATOM     33  C   UNL     1      -4.325   3.897   7.084  0.00  0.00    +0.310 C 
ATOM     34  O   UNL     1      -3.705   4.903   6.797  0.00  0.00    -0.252 OA
ATOM     35  H   UNL     1      -4.487   4.070   9.148  0.00  0.00    +0.151 HD
ENDBRANCH  22  23
ENDBRANCH   2  22
TORSDOF 6
