REMARK  Name = ZINC38918035
REMARK  7 active torsions:
REMARK  status: ('A' for Active; 'I' for Inactive)
REMARK    1  A    between atoms: C_1  and  C_2
REMARK    2  A    between atoms: C_5  and  C_8
REMARK    3  A    between atoms: C_10  and  C_14
REMARK    4  A    between atoms: N_16  and  N_17
REMARK    5  A    between atoms: C_18  and  C_19
REMARK    6  A    between atoms: C_22  and  O_26
REMARK    7  A    between atoms: C_24  and  O_25
REMARK                            x       y       z     vdW  Elec       q    Type
REMARK                         _______ _______ _______ _____ _____    ______ ____
ROOT
ATOM      1  C   UNL     1      -1.137  -7.203   0.967  0.00  0.00    +0.263 C 
ATOM      2  O   UNL     1      -2.073  -7.332   0.205  0.00  0.00    -0.271 OA
ATOM      3  N   UNL     1      -1.196  -7.736   2.203  0.00  0.00    -0.205 N 
ATOM      4  H   UNL     1      -0.448  -7.632   2.812  0.00  0.00    +0.177 HD
ENDROOT
BRANCH   1   7
ATOM      5  C   UNL     1       0.061  -4.256  -0.021  0.00  0.00    +0.092 C 
ATOM      6  C   UNL     1       0.071  -5.030   1.081  0.00  0.00    +0.041 C 
ATOM      7  C   UNL     1       0.090  -6.445   0.530  0.00  0.00    +0.240 C 
ATOM      8  N   UNL     1       0.087  -6.239  -0.927  0.00  0.00    -0.170 NA
ATOM      9  N   UNL     1       0.065  -5.025  -1.142  0.00  0.00    -0.153 NA
BRANCH   5  14
ATOM     10  C   UNL     1      -0.018   1.503   0.010  0.00  0.00    +0.044 C 
ATOM     11  C   UNL     1       0.002  -0.004   0.002  0.00  0.00    -0.050 A 
ATOM     12  C   UNL     1       0.006  -0.686  -1.201  0.00  0.00    +0.004 A 
ATOM     13  C   UNL     1       0.025  -2.066  -1.215  0.00  0.00    +0.010 A 
ATOM     14  C   UNL     1       0.041  -2.772  -0.013  0.00  0.00    +0.002 A 
ATOM     15  C   UNL     1       0.037  -2.080   1.196  0.00  0.00    +0.010 A 
ATOM     16  C   UNL     1       0.023  -0.700   1.198  0.00  0.00    +0.004 A 
ENDBRANCH   5  14
ENDBRANCH   1   7
BRANCH   3  17
ATOM     17  N   UNL     1      -2.337  -8.440   2.609  0.00  0.00    -0.188 NA
ATOM     18  C   UNL     1      -2.394  -8.954   3.800  0.00  0.00    +0.142 C 
BRANCH  18  19
ATOM     19  C   UNL     1      -3.594  -9.694   4.226  0.00  0.00    +0.036 A 
ATOM     20  C   UNL     1      -3.661 -10.243   5.510  0.00  0.00    +0.016 A 
ATOM     21  C   UNL     1      -4.785 -10.934   5.905  0.00  0.00    +0.046 A 
ATOM     22  C   UNL     1      -5.855 -11.088   5.031  0.00  0.00    +0.120 A 
ATOM     23  C   UNL     1      -5.799 -10.546   3.755  0.00  0.00    +0.091 A 
ATOM     24  C   UNL     1      -4.677  -9.845   3.348  0.00  0.00    +0.129 A 
BRANCH  24  25
ATOM     25  O   UNL     1      -4.623  -9.310   2.101  0.00  0.00    -0.506 OA
ATOM     26  H   UNL     1      -4.254  -9.905   1.434  0.00  0.00    +0.292 HD
ENDBRANCH  24  25
BRANCH  22  27
ATOM     27  O   UNL     1      -6.960 -11.771   5.428  0.00  0.00    -0.507 OA
ATOM     28  H   UNL     1      -7.635 -11.218   5.846  0.00  0.00    +0.292 HD
ENDBRANCH  22  27
ENDBRANCH  18  19
ENDBRANCH   3  17
TORSDOF 6
