REMARK  Name = ZINC16255769
REMARK  4 active torsions:
REMARK  status: ('A' for Active; 'I' for Inactive)
REMARK    1  A    between atoms: C_1  and  C_2
REMARK    2  A    between atoms: C_2  and  C_16
REMARK    3  A    between atoms: N_5  and  C_9
REMARK    4  A    between atoms: C_9  and  C_10
REMARK                            x       y       z     vdW  Elec       q    Type
REMARK                         _______ _______ _______ _____ _____    ______ ____
ROOT
ATOM      1  C   UNL     1      -2.290   4.002   2.902  0.00  0.00    +0.047 C 
ATOM      2  C   UNL     1      -1.366   2.788   3.019  0.00  0.00    +0.135 C 
ATOM      3  C   UNL     1      -0.418   2.719   1.838  0.00  0.00    +0.251 C 
ATOM      4  O   UNL     1       0.418   3.538   1.521  0.00  0.00    -0.272 OA
ATOM      5  N   UNL     1      -0.698   1.558   1.213  0.00  0.00    -0.215 N 
ATOM      6  C   UNL     1      -1.677   0.888   1.833  0.00  0.00    +0.310 C 
ATOM      7  O   UNL     1      -2.101  -0.188   1.459  0.00  0.00    -0.252 OA
ATOM      8  N   UNL     1      -2.138   1.538   2.917  0.00  0.00    -0.281 N 
ATOM      9  H   UNL     1      -2.842   1.241   3.514  0.00  0.00    +0.152 HD
ENDROOT
BRANCH   2  10
ATOM     10  C   UNL     1      -0.593   2.830   4.312  0.00  0.00    -0.014 A 
ATOM     11  C   UNL     1      -1.099   2.210   5.440  0.00  0.00    +0.008 A 
ATOM     12  C   UNL     1      -0.392   2.248   6.626  0.00  0.00    +0.022 A 
ATOM     13  C   UNL     1       0.824   2.906   6.686  0.00  0.00    +0.059 A 
ATOM     14  C   UNL     1       1.330   3.527   5.557  0.00  0.00    +0.060 A 
ATOM     15  C   UNL     1       0.623   3.483   4.369  0.00  0.00    +0.027 A 
ATOM     16 CL   UNL     1       2.855   4.354   5.631  0.00  0.00    -0.082 Cl
ATOM     17 CL   UNL     1       1.713   2.955   8.177  0.00  0.00    -0.082 Cl
ENDBRANCH   2  10
BRANCH   5  18
ATOM     18  C   UNL     1      -0.013   1.086   0.008  0.00  0.00    +0.214 C 
BRANCH  18  19
ATOM     19  C   UNL     1      -0.742   1.585  -1.213  0.00  0.00    +0.238 C 
ATOM     20  O   UNL     1      -1.736   2.268  -1.089  0.00  0.00    -0.274 OA
ATOM     21  N   UNL     1      -0.288   1.272  -2.443  0.00  0.00    -0.239 N 
ATOM     22  C   UNL     1      -0.940   1.719  -3.535  0.00  0.00    +0.303 C 
ATOM     23  O   UNL     1      -1.937   2.403  -3.410  0.00  0.00    -0.253 OA
ATOM     24  N   UNL     1      -0.487   1.406  -4.765  0.00  0.00    -0.313 N 
ATOM     25  H   UNL     1       0.507   0.726  -2.543  0.00  0.00    +0.159 HD
ATOM     26  H   UNL     1       0.308   0.860  -4.865  0.00  0.00    +0.146 HD
ATOM     27  H   UNL     1      -0.956   1.727  -5.551  0.00  0.00    +0.146 HD
ENDBRANCH  18  19
ENDBRANCH   5  18
TORSDOF 3
