REMARK  Name = ZINC49509378
REMARK  5 active torsions:
REMARK  status: ('A' for Active; 'I' for Inactive)
REMARK    1  A    between atoms: C_2  and  N_14
REMARK    2  A    between atoms: C_15  and  C_17
REMARK    3  A    between atoms: N_19  and  C_20
REMARK    4  A    between atoms: C_20  and  C_21
REMARK    5  A    between atoms: N_24  and  C_27
REMARK                            x       y       z     vdW  Elec       q    Type
REMARK                         _______ _______ _______ _____ _____    ______ ____
ROOT
ATOM      1  N   UNL     1       1.175   3.465   0.001  0.00  0.00    -0.278 N 
ATOM      2  C   UNL     1       0.005   4.127  -0.094  0.00  0.00    +0.303 C 
ATOM      3  O   UNL     1      -1.042   3.513  -0.087  0.00  0.00    -0.265 OA
ATOM      4  H   UNL     1       2.008   3.959   0.062  0.00  0.00    +0.155 HD
ENDROOT
BRANCH   1   6
ATOM      5  C   UNL     1       2.236   1.385  -0.604  0.00  0.00    +0.028 A 
ATOM      6  C   UNL     1       1.188   2.067   0.012  0.00  0.00    +0.034 A 
ATOM      7  C   UNL     1       0.156   1.376   0.638  0.00  0.00    +0.028 A 
ATOM      8  C   UNL     1       0.173  -0.005   0.664  0.00  0.00    -0.022 A 
ATOM      9  C   UNL     1       1.225  -0.667   0.078  0.00  0.00    +0.043 A 
ATOM     10  C   UNL     1       2.250   0.014  -0.585  0.00  0.00    -0.023 A 
ATOM     11  C   UNL     1       3.287  -0.832  -1.272  0.00  0.00    +0.046 C 
ATOM     12  C   UNL     1       3.471  -2.167  -0.558  0.00  0.00    +0.101 C 
ATOM     13  C   UNL     1       2.162  -2.835  -0.214  0.00  0.00    +0.220 C 
ATOM     14  O   UNL     1       2.030  -4.036  -0.320  0.00  0.00    -0.275 OA
ATOM     15  N   UNL     1       1.141  -2.063   0.216  0.00  0.00    -0.271 N 
ATOM     16  C   UNL     1      -0.111  -2.400   0.876  0.00  0.00    +0.118 C 
ATOM     17  C   UNL     1      -0.770  -1.047   1.220  0.00  0.00    +0.056 C 
ENDBRANCH   1   6
BRANCH   2  18
ATOM     18  C   UNL     1      -0.004   5.616  -0.207  0.00  0.00    +0.299 C 
ATOM     19  O   UNL     1       1.043   6.230  -0.213  0.00  0.00    -0.265 OA
ATOM     20  N   UNL     1      -1.174   6.278  -0.302  0.00  0.00    -0.307 N 
ATOM     21  H   UNL     1      -2.011   5.787  -0.297  0.00  0.00    +0.149 HD
BRANCH  20  22
ATOM     22  C   UNL     1      -1.183   7.739  -0.413  0.00  0.00    +0.108 C 
BRANCH  22  23
ATOM     23  C   UNL     1      -2.627   8.235  -0.506  0.00  0.00    +0.003 C 
ATOM     24  C   UNL     1      -3.257   7.736  -1.809  0.00  0.00    -0.014 C 
ATOM     25  C   UNL     1      -4.674   8.300  -1.933  0.00  0.00    -0.078 C 
ATOM     26  N   UNL     1      -4.620   9.767  -1.945  0.00  0.00    +0.382 N 
ATOM     27  C   UNL     1      -4.083  10.256  -0.669  0.00  0.00    -0.078 C 
ATOM     28  C   UNL     1      -2.644   9.766  -0.496  0.00  0.00    -0.014 C 
ATOM     29  H   UNL     1      -4.025  10.075  -2.699  0.00  0.00    -0.081 HD
BRANCH  26  30
ATOM     30  C   UNL     1      -5.973  10.304  -2.143  0.00  0.00    -0.069 C 
ATOM     31  C   UNL     1      -6.521   9.864  -3.516  0.00  0.00    -0.015 C 
ATOM     32  C   UNL     1      -7.324  11.090  -4.015  0.00  0.00    -0.002 C 
ATOM     33  C   UNL     1      -6.458  12.283  -3.539  0.00  0.00    -0.002 C 
ATOM     34  C   UNL     1      -5.934  11.842  -2.157  0.00  0.00    -0.015 C 
ENDBRANCH  26  30
ENDBRANCH  22  23
ENDBRANCH  20  22
ENDBRANCH   2  18
TORSDOF 5
