REMARK  Name = ZINC05749371
REMARK  3 active torsions:
REMARK  status: ('A' for Active; 'I' for Inactive)
REMARK    1  A    between atoms: C_6  and  C_7
REMARK    2  A    between atoms: N_8  and  N_9
REMARK    3  A    between atoms: C_10  and  C_12
REMARK                            x       y       z     vdW  Elec       q    Type
REMARK                         _______ _______ _______ _____ _____    ______ ____
ROOT
ATOM      1  N   UNL     1      -2.444  -2.779   0.011  0.00  0.00    -0.203 N 
ATOM      2  C   UNL     1      -2.423  -4.127   0.003  0.00  0.00    +0.265 C 
ATOM      3  O   UNL     1      -1.360  -4.718  -0.010  0.00  0.00    -0.268 OA
ATOM      4  H   UNL     1      -3.292  -2.308   0.021  0.00  0.00    +0.178 HD
ENDROOT
BRANCH   2   5
ATOM      5  C   UNL     1      -3.689  -4.885   0.011  0.00  0.00    +0.057 A 
ATOM      6  C   UNL     1      -4.912  -4.210   0.021  0.00  0.00    +0.016 A 
ATOM      7  C   UNL     1      -6.091  -4.923   0.028  0.00  0.00    +0.021 A 
ATOM      8  C   UNL     1      -6.066  -6.309   0.026  0.00  0.00    +0.042 A 
ATOM      9  C   UNL     1      -4.859  -6.986   0.016  0.00  0.00    +0.040 A 
ATOM     10  C   UNL     1      -3.671  -6.283   0.003  0.00  0.00    +0.054 A 
ATOM     11 CL   UNL     1      -2.157  -7.133  -0.016  0.00  0.00    -0.083 Cl
ATOM     12 CL   UNL     1      -7.557  -7.199   0.036  0.00  0.00    -0.083 Cl
ENDBRANCH   2   5
BRANCH   1  14
ATOM     13  C   UNL     1      -1.263  -0.762   0.010  0.00  0.00    +0.138 C 
ATOM     14  N   UNL     1      -1.242  -2.059   0.003  0.00  0.00    -0.187 NA
BRANCH  13  20
ATOM     15  C   UNL     1      -0.017   1.393   0.010  0.00  0.00    +0.011 A 
ATOM     16  C   UNL     1       1.170   2.096   0.002  0.00  0.00    +0.022 A 
ATOM     17  C   UNL     1       2.378   1.421  -0.013  0.00  0.00    +0.059 A 
ATOM     18  C   UNL     1       2.405   0.035  -0.021  0.00  0.00    +0.060 A 
ATOM     19  C   UNL     1       1.225  -0.680  -0.014  0.00  0.00    +0.031 A 
ATOM     20  C   UNL     1       0.002  -0.004   0.002  0.00  0.00    -0.004 A 
ATOM     21 CL   UNL     1       3.925  -0.803  -0.041  0.00  0.00    -0.082 Cl
ATOM     22 CL   UNL     1       3.867   2.314  -0.024  0.00  0.00    -0.082 Cl
ENDBRANCH  13  20
ENDBRANCH   1  14
TORSDOF 3
