REMARK  Name = ZINC38074025
REMARK  5 active torsions:
REMARK  status: ('A' for Active; 'I' for Inactive)
REMARK    1  A    between atoms: C_1  and  O_2
REMARK    2  A    between atoms: O_2  and  C_3
REMARK    3  A    between atoms: C_6  and  C_10
REMARK    4  A    between atoms: C_10  and  C_12
REMARK    5  A    between atoms: C_10  and  N_22
REMARK                            x       y       z     vdW  Elec       q    Type
REMARK                         _______ _______ _______ _____ _____    ______ ____
ROOT
ATOM      1  C   UNL     1       2.588  -2.550   4.311  0.00  0.00    -0.013 C 
ENDROOT
BRANCH   1   2
ATOM      2  C   UNL     1       3.972  -2.970   3.888  0.00  0.00    -0.057 A 
ATOM      3  C   UNL     1       4.149  -4.121   3.141  0.00  0.00    +0.004 A 
ATOM      4  C   UNL     1       5.413  -4.511   2.751  0.00  0.00    +0.024 A 
ATOM      5  C   UNL     1       6.523  -3.747   3.107  0.00  0.00    +0.037 A 
ATOM      6  C   UNL     1       6.332  -2.594   3.857  0.00  0.00    -0.017 A 
ATOM      7  C   UNL     1       5.069  -2.203   4.241  0.00  0.00    +0.008 A 
ATOM      8  C   UNL     1       7.703  -1.998   4.077  0.00  0.00    +0.133 C 
ATOM      9  C   UNL     1       8.638  -2.954   3.367  0.00  0.00    +0.222 C 
ATOM     10  O   UNL     1       9.845  -2.857   3.290  0.00  0.00    -0.275 OA
ATOM     11  N   UNL     1       7.880  -3.929   2.838  0.00  0.00    -0.285 N 
ATOM     12  H   UNL     1       8.235  -4.673   2.328  0.00  0.00    +0.155 HD
ENDBRANCH   1   2
BRANCH   1  16
ATOM     13  C   UNL     1       0.626  -0.618   1.042  0.00  0.00    +0.134 A 
ATOM     14  C   UNL     1       1.202   0.138   2.051  0.00  0.00    +0.047 A 
ATOM     15  C   UNL     1       1.836  -0.488   3.107  0.00  0.00    +0.006 A 
ATOM     16  C   UNL     1       1.896  -1.869   3.158  0.00  0.00    -0.056 A 
ATOM     17  C   UNL     1       1.323  -2.626   2.153  0.00  0.00    +0.021 A 
ATOM     18  C   UNL     1       0.682  -2.004   1.098  0.00  0.00    +0.060 A 
ATOM     19 BR   UNL     1      -0.109  -3.040  -0.272  0.00  0.00    -0.047 Br
BRANCH  13  21
ATOM     20  C   UNL     1      -0.017   1.425   0.010  0.00  0.00    +0.277 C 
ATOM     21  O   UNL     1       0.002  -0.004   0.002  0.00  0.00    -0.494 OA
ENDBRANCH  13  21
ENDBRANCH   1  16
BRANCH   1  22
ATOM     22  N   UNL     1       1.818  -3.734   4.714  0.00  0.00    +0.385 N 
ATOM     23  H   UNL     1       0.892  -3.452   4.997  0.00  0.00    -0.089 HD
ATOM     24  H   UNL     1       1.752  -4.373   3.936  0.00  0.00    -0.089 HD
ATOM     25  H   UNL     1       2.282  -4.189   5.486  0.00  0.00    -0.089 HD
ENDBRANCH   1  22
TORSDOF 4
