REMARK  Name = ZINC44924338
REMARK  4 active torsions:
REMARK  status: ('A' for Active; 'I' for Inactive)
REMARK    1  A    between atoms: C_1  and  C_2
REMARK    2  A    between atoms: C_2  and  N_9
REMARK    3  A    between atoms: N_9  and  C_10
REMARK    4  A    between atoms: C_13  and  N_19
REMARK                            x       y       z     vdW  Elec       q    Type
REMARK                         _______ _______ _______ _____ _____    ______ ____
ROOT
ATOM      1  C   UNL     1      -2.122  -0.073   1.279  0.00  0.00    +0.059 A 
ATOM      2  C   UNL     1      -1.629   0.867   2.129  0.00  0.00    +0.027 A 
ATOM      3  C   UNL     1      -2.342   1.318   3.241  0.00  0.00    +0.027 A 
ATOM      4  C   UNL     1      -3.579   0.849   3.553  0.00  0.00    +0.056 A 
ATOM      5  C   UNL     1      -4.203  -0.168   2.701  0.00  0.00    +0.156 A 
ATOM      6  C   UNL     1      -3.451  -0.641   1.522  0.00  0.00    +0.157 A 
ATOM      7  N   UNL     1      -4.184  -1.533   0.902  0.00  0.00    -0.047 NA
ATOM      8  O   UNL     1      -5.400  -1.672   1.617  0.00  0.00    -0.241 OA
ATOM      9  N   UNL     1      -5.350  -0.801   2.734  0.00  0.00    -0.047 NA
ENDROOT
BRANCH   4  10
ATOM     10  N   UNL     1      -4.252   1.333   4.679  0.00  0.00    -0.356 N 
ATOM     11  H   UNL     1      -3.836   2.005   5.240  0.00  0.00    +0.142 HD
ATOM     12  H   UNL     1      -5.134   0.996   4.899  0.00  0.00    +0.142 HD
ENDBRANCH   4  10
BRANCH   1  13
ATOM     13  N   UNL     1      -1.368  -0.492   0.179  0.00  0.00    -0.335 N 
ATOM     14  H   UNL     1      -1.713  -1.178  -0.412  0.00  0.00    +0.147 HD
BRANCH  13  16
ATOM     15  C   UNL     1      -0.247   1.598  -0.364  0.00  0.00    +0.033 C 
ATOM     16  C   UNL     1      -0.056   0.107  -0.080  0.00  0.00    +0.050 C 
ATOM     17  C   UNL     1       0.543  -0.555  -1.320  0.00  0.00    +0.049 C 
ATOM     18  C   UNL     1       2.096  -0.526  -1.249  0.00  0.00    +0.168 C 
ATOM     19  S   UNL     1       2.328  -0.886   0.548  0.00  0.00    -0.029 S 
ATOM     20  O   UNL     1       3.477  -0.194   1.018  0.00  0.00    -0.174 OA
ATOM     21  O   UNL     1       2.213  -2.286   0.763  0.00  0.00    -0.174 OA
ATOM     22  C   UNL     1       0.816  -0.049   1.181  0.00  0.00    +0.191 C 
ENDBRANCH  13  16
ENDBRANCH   1  13
TORSDOF 3
