REMARK  Name = ZINC14280007
REMARK  7 active torsions:
REMARK  status: ('A' for Active; 'I' for Inactive)
REMARK    1  A    between atoms: C_1  and  C_2
REMARK    2  A    between atoms: C_2  and  C_4
REMARK    3  A    between atoms: C_2  and  N_14
REMARK    4  A    between atoms: C_15  and  C_17
REMARK    5  A    between atoms: C_17  and  C_18
REMARK    6  A    between atoms: C_18  and  C_20
REMARK    7  A    between atoms: C_18  and  N_25
REMARK                            x       y       z     vdW  Elec       q    Type
REMARK                         _______ _______ _______ _____ _____    ______ ____
ROOT
ATOM      1  N   UNL     1       1.356   2.033   0.000  0.00  0.00    -0.312 N 
ATOM      2  C   UNL     1       2.012   2.177  -1.168  0.00  0.00    +0.215 C 
ATOM      3  O   UNL     1       1.465   1.887  -2.211  0.00  0.00    -0.276 OA
ATOM      4  H   UNL     1       1.793   2.265   0.834  0.00  0.00    +0.149 HD
ENDROOT
BRANCH   1   6
ATOM      5  C   UNL     1       0.002  -0.004   0.002  0.00  0.00    +0.028 C 
ATOM      6  C   UNL     1      -0.019   1.526   0.010  0.00  0.00    +0.076 C 
BRANCH   6   7
ATOM      7  C   UNL     1      -0.735   2.019   1.269  0.00  0.00    -0.010 C 
ATOM      8  C   UNL     1      -0.756   3.549   1.278  0.00  0.00    +0.012 C 
ATOM      9  C   UNL     1      -1.472   4.042   2.536  0.00  0.00    -0.010 C 
ATOM     10  C   UNL     1      -2.907   3.513   2.547  0.00  0.00    +0.007 C 
ATOM     11  C   UNL     1      -2.886   1.983   2.539  0.00  0.00    -0.010 C 
ATOM     12  C   UNL     1      -2.170   1.490   1.280  0.00  0.00    +0.012 C 
ATOM     13  C   UNL     1      -2.146   1.476   3.778  0.00  0.00    +0.007 C 
ATOM     14  C   UNL     1      -0.711   2.006   3.768  0.00  0.00    -0.010 C 
ATOM     15  C   UNL     1      -0.732   3.536   3.776  0.00  0.00    +0.007 C 
ATOM     16  C   UNL     1       0.005   1.512   2.509  0.00  0.00    +0.012 C 
ENDBRANCH   6   7
ENDBRANCH   1   6
BRANCH   2  17
ATOM     17  C   UNL     1       3.426   2.699  -1.179  0.00  0.00    +0.123 C 
BRANCH  17  18
ATOM     18  C   UNL     1       3.934   2.765  -2.621  0.00  0.00    +0.120 C 
BRANCH  18  19
ATOM     19  N   UNL     1       3.151   3.751  -3.369  0.00  0.00    -0.292 N 
ATOM     20  C   UNL     1       3.044   3.649  -4.709  0.00  0.00    +0.298 C 
ATOM     21  O   UNL     1       3.596   2.739  -5.296  0.00  0.00    -0.253 OA
ATOM     22  N   UNL     1       2.324   4.557  -5.398  0.00  0.00    -0.313 N 
ATOM     23  H   UNL     1       2.711   4.477  -2.901  0.00  0.00    +0.151 HD
ATOM     24  H   UNL     1       1.883   5.283  -4.930  0.00  0.00    +0.146 HD
ATOM     25  H   UNL     1       2.246   4.484  -6.362  0.00  0.00    +0.146 HD
ENDBRANCH  18  19
BRANCH  18  26
ATOM     26  C   UNL     1       5.386   3.169  -2.623  0.00  0.00    +0.010 A 
ATOM     27  C   UNL     1       6.488   2.391  -2.755  0.00  0.00    +0.013 A 
ATOM     28  C   UNL     1       7.736   2.986  -2.729  0.00  0.00    +0.008 A 
ATOM     29  C   UNL     1       7.820   4.330  -2.571  0.00  0.00    +0.045 A 
ATOM     30  S   UNL     1       6.100   4.797  -2.461  0.00  0.00    -0.100 S 
ENDBRANCH  18  26
ENDBRANCH  17  18
ENDBRANCH   2  17
TORSDOF 6
