REMARK  Name = ZINC35808795
REMARK  5 active torsions:
REMARK  status: ('A' for Active; 'I' for Inactive)
REMARK    1  A    between atoms: C_1  and  N_2
REMARK    2  A    between atoms: C_4  and  C_31
REMARK    3  A    between atoms: N_14  and  C_17
REMARK    4  A    between atoms: N_21  and  C_25
REMARK    5  A    between atoms: C_25  and  C_26
REMARK                            x       y       z     vdW  Elec       q    Type
REMARK                         _______ _______ _______ _____ _____    ______ ____
ROOT
ATOM      1  C   UNL     1      -0.018   1.465   0.010  0.00  0.00    +0.106 C 
ATOM      2  N   UNL     1       0.002  -0.004   0.002  0.00  0.00    -0.286 NA
ATOM      3  C   UNL     1      -1.378  -0.557   0.079  0.00  0.00    +0.098 C 
ATOM      4  C   UNL     1      -1.165  -1.996   0.624  0.00  0.00    +0.097 C 
ATOM      5  C   UNL     1       0.009  -1.813   1.590  0.00  0.00    +0.141 C 
ATOM      6  C   UNL     1       0.710  -0.530   1.187  0.00  0.00    +0.150 C 
ATOM      7  C   UNL     1       2.167  -0.757   0.882  0.00  0.00    +0.006 A 
ATOM      8  C   UNL     1       2.829  -1.559  -0.020  0.00  0.00    +0.027 A 
ATOM      9  C   UNL     1       4.213  -1.552  -0.067  0.00  0.00    +0.041 A 
ATOM     10  C   UNL     1       4.926  -0.738   0.795  0.00  0.00    +0.022 A 
ATOM     11  C   UNL     1       4.266   0.067   1.700  0.00  0.00    +0.025 A 
ATOM     12  C   UNL     1       2.874   0.065   1.753  0.00  0.00    +0.042 A 
ATOM     13  N   UNL     1       1.991   0.777   2.568  0.00  0.00    -0.272 N 
ATOM     14  C   UNL     1       0.705   0.485   2.301  0.00  0.00    +0.246 C 
ATOM     15  O   UNL     1      -0.271   0.950   2.851  0.00  0.00    -0.273 OA
ATOM     16  C   UNL     1       2.416   1.732   3.595  0.00  0.00    +0.138 C 
ATOM     17 CL   UNL     1       5.050  -2.563  -1.203  0.00  0.00    -0.084 Cl
ATOM     18  C   UNL     1      -0.414  -1.844   3.034  0.00  0.00    +0.241 C 
ATOM     19  O   UNL     1      -1.184  -1.035   3.506  0.00  0.00    -0.274 OA
ATOM     20  N   UNL     1       0.121  -2.825   3.752  0.00  0.00    -0.251 N 
ATOM     21  C   UNL     1       0.979  -3.733   3.242  0.00  0.00    +0.117 C 
ATOM     22  S   UNL     1       1.737  -5.040   4.047  0.00  0.00    -0.028 S 
ATOM     23  S   UNL     1       1.138  -3.251   1.526  0.00  0.00    -0.083 S 
ENDROOT
BRANCH   4  24
ATOM     24  C   UNL     1      -2.392  -2.481   1.352  0.00  0.00    +0.111 A 
ATOM     25  C   UNL     1      -3.103  -3.582   1.049  0.00  0.00    +0.045 A 
ATOM     26  C   UNL     1      -4.163  -3.655   1.982  0.00  0.00    +0.041 A 
ATOM     27  C   UNL     1      -4.036  -2.594   2.799  0.00  0.00    +0.195 A 
ATOM     28  O   UNL     1      -2.958  -1.890   2.417  0.00  0.00    -0.467 OA
ENDBRANCH   4  24
BRANCH  20  29
ATOM     29  C   UNL     1      -0.238  -2.927   5.169  0.00  0.00    +0.188 C 
BRANCH  29  30
ATOM     30  C   UNL     1      -1.454  -3.805   5.317  0.00  0.00    +0.122 A 
ATOM     31  C   UNL     1      -1.444  -5.137   5.500  0.00  0.00    +0.046 A 
ATOM     32  C   UNL     1      -2.794  -5.548   5.588  0.00  0.00    +0.041 A 
ATOM     33  C   UNL     1      -3.548  -4.442   5.452  0.00  0.00    +0.195 A 
ATOM     34  O   UNL     1      -2.730  -3.389   5.294  0.00  0.00    -0.466 OA
ENDBRANCH  29  30
ENDBRANCH  20  29
TORSDOF 3
