REMARK  Name = ZINC23145827
REMARK  4 active torsions:
REMARK  status: ('A' for Active; 'I' for Inactive)
REMARK    1  A    between atoms: C_1  and  C_2
REMARK    2  A    between atoms: C_4  and  C_7
REMARK    3  A    between atoms: C_18  and  C_22
REMARK    4  A    between atoms: C_22  and  C_23
REMARK                            x       y       z     vdW  Elec       q    Type
REMARK                         _______ _______ _______ _____ _____    ______ ____
ROOT
ATOM      1  C   UNL     1      -2.802   3.684  -4.226  0.00  0.00    +0.044 A 
ATOM      2  C   UNL     1      -2.032   4.760  -4.687  0.00  0.00    +0.031 A 
ATOM      3  C   UNL     1      -0.973   5.204  -3.925  0.00  0.00    +0.085 A 
ATOM      4  N   UNL     1      -0.677   4.630  -2.773  0.00  0.00    -0.350 N 
ATOM      5  C   UNL     1      -1.376   3.611  -2.298  0.00  0.00    +0.100 A 
ATOM      6  C   UNL     1      -2.456   3.099  -3.007  0.00  0.00    +0.055 A 
ATOM      7  N   UNL     1      -1.021   3.043  -1.080  0.00  0.00    -0.312 N 
ATOM      8  C   UNL     1      -0.772   1.602  -1.223  0.00  0.00    +0.113 C 
ATOM      9  C   UNL     1      -0.014   1.085   0.008  0.00  0.00    +0.076 C 
ATOM     10  C   UNL     1      -0.735   1.579   1.237  0.00  0.00    +0.069 A 
ATOM     11  C   UNL     1      -1.652   2.584   1.207  0.00  0.00    +0.013 A 
ATOM     12  C   UNL     1      -2.118   2.779   2.503  0.00  0.00    +0.041 A 
ATOM     13  N   UNL     1      -1.503   1.923   3.288  0.00  0.00    -0.281 N 
ATOM     14  N   UNL     1      -0.625   1.159   2.505  0.00  0.00    -0.178 NA
ATOM     15  H   UNL     1      -1.727   1.907   4.365  0.00  0.00    +0.189 HD
ATOM     16  C   UNL     1      -2.043   3.314  -0.054  0.00  0.00    +0.145 C 
ATOM     17  H   UNL     1       0.172   4.997  -2.178  0.00  0.00    +0.166 HD
ENDROOT
BRANCH   1  21
ATOM     18  C   UNL     1      -6.262   3.003  -7.752  0.00  0.00    +0.091 C 
ATOM     19  C   UNL     1      -5.424   2.875  -6.505  0.00  0.00    +0.169 A 
ATOM     20  N   UNL     1      -4.373   3.641  -6.175  0.00  0.00    -0.192 NA
ATOM     21  C   UNL     1      -3.947   3.177  -5.014  0.00  0.00    +0.259 A 
ATOM     22  O   UNL     1      -4.759   2.160  -4.686  0.00  0.00    -0.333 OA
ATOM     23  N   UNL     1      -5.594   2.007  -5.552  0.00  0.00    -0.061 NA
ENDBRANCH   1  21
BRANCH  12  24
ATOM     24  C   UNL     1      -3.147   3.793   2.931  0.00  0.00    +0.058 C 
BRANCH  24  25
ATOM     25  C   UNL     1      -4.542   3.171   2.844  0.00  0.00    -0.005 C 
ATOM     26  C   UNL     1      -4.907   2.893   1.371  0.00  0.00    +0.004 C 
ATOM     27  C   UNL     1      -6.421   3.213   1.289  0.00  0.00    +0.000 C 
ATOM     28  C   UNL     1      -6.561   4.447   2.214  0.00  0.00    +0.000 C 
ATOM     29  C   UNL     1      -5.594   4.158   3.380  0.00  0.00    +0.004 C 
ENDBRANCH  24  25
ENDBRANCH  12  24
TORSDOF 3
