REMARK  Name = ZINC44889671
REMARK  2 active torsions:
REMARK  status: ('A' for Active; 'I' for Inactive)
REMARK    1  A    between atoms: C_1  and  C_2
REMARK    2  A    between atoms: C_13  and  C_15
REMARK                            x       y       z     vdW  Elec       q    Type
REMARK                         _______ _______ _______ _____ _____    ______ ____
ROOT
ATOM      1  C   UNL     1      -0.140   1.554  -0.019  0.00  0.00    +0.068 C 
ATOM      2  C   UNL     1      -0.120   0.048   0.004  0.00  0.00    +0.066 A 
ATOM      3  C   UNL     1      -0.159  -0.793  -1.128  0.00  0.00    +0.032 A 
ATOM      4  C   UNL     1      -0.125  -2.072  -0.693  0.00  0.00    +0.125 A 
ATOM      5  N   UNL     1      -0.063  -2.031   0.674  0.00  0.00    -0.263 N 
ATOM      6  H   UNL     1      -0.026  -2.800   1.265  0.00  0.00    +0.190 HD
ATOM      7  N   UNL     1      -0.058  -0.694   1.073  0.00  0.00    -0.177 NA
ATOM      8  N   UNL     1      -0.145  -3.270  -1.366  0.00  0.00    -0.270 N 
ATOM      9  C   UNL     1      -0.152  -3.620  -2.617  0.00  0.00    +0.228 C 
ATOM     10  O   UNL     1      -0.064  -4.814  -2.814  0.00  0.00    -0.275 OA
ATOM     11  C   UNL     1      -0.250  -2.795  -3.840  0.00  0.00    +0.166 C 
ATOM     12  S   UNL     1       0.660  -1.249  -3.718  0.00  0.00    -0.138 S 
ATOM     13  C   UNL     1      -0.224  -0.247  -2.519  0.00  0.00    +0.112 C 
ATOM     14  H   UNL     1      -0.157  -4.033  -0.767  0.00  0.00    +0.156 HD
ENDROOT
BRANCH  13  15
ATOM     15  C   UNL     1       0.364   1.141  -2.522  0.00  0.00    -0.022 A 
ATOM     16  C   UNL     1       1.695   1.321  -2.301  0.00  0.00    +0.005 A 
ATOM     17  C   UNL     1       2.256   2.596  -2.300  0.00  0.00    +0.001 A 
ATOM     18  C   UNL     1       1.489   3.699  -2.519  0.00  0.00    +0.008 A 
ATOM     19  C   UNL     1       0.111   3.554  -2.751  0.00  0.00    -0.018 A 
ATOM     20  C   UNL     1      -0.459   2.256  -2.758  0.00  0.00    -0.013 A 
ATOM     21  C   UNL     1      -1.836   2.109  -2.996  0.00  0.00    +0.009 A 
ATOM     22  C   UNL     1      -2.601   3.212  -3.221  0.00  0.00    +0.001 A 
ATOM     23  C   UNL     1      -2.040   4.488  -3.220  0.00  0.00    +0.001 A 
ATOM     24  C   UNL     1      -0.712   4.669  -2.980  0.00  0.00    +0.008 A 
ENDBRANCH  13  15
TORSDOF 1
