REMARK  Name = ZINC13415295
REMARK  9 active torsions:
REMARK  status: ('A' for Active; 'I' for Inactive)
REMARK    1  A    between atoms: C_1  and  C_2
REMARK    2  A    between atoms: C_3  and  C_31
REMARK    3  A    between atoms: C_5  and  C_7
REMARK    4  A    between atoms: C_8  and  C_9
REMARK    5  A    between atoms: N_11  and  C_12
REMARK    6  A    between atoms: C_15  and  S_18
REMARK    7  A    between atoms: S_18  and  N_21
REMARK    8  A    between atoms: C_22  and  C_30
REMARK    9  A    between atoms: C_27  and  C_29
REMARK                            x       y       z     vdW  Elec       q    Type
REMARK                         _______ _______ _______ _____ _____    ______ ____
ROOT
ATOM      1  C   UNL     1       1.421  -0.336  -5.301  0.00  0.00    +0.034 A 
ATOM      2  C   UNL     1       1.728  -1.373  -4.431  0.00  0.00    +0.025 A 
ATOM      3  C   UNL     1       1.071  -1.474  -3.220  0.00  0.00    +0.030 A 
ATOM      4  C   UNL     1       0.108  -0.543  -2.875  0.00  0.00    +0.106 A 
ATOM      5  C   UNL     1      -0.204   0.488  -3.742  0.00  0.00    +0.030 A 
ATOM      6  C   UNL     1       0.454   0.598  -4.952  0.00  0.00    +0.025 A 
ENDROOT
BRANCH   1   9
ATOM      7  C   UNL     1       2.362   0.983  -7.042  0.00  0.00    +0.241 C 
ATOM      8  O   UNL     1       2.109   1.988  -6.402  0.00  0.00    -0.270 OA
ATOM      9  N   UNL     1       2.084  -0.231  -6.528  0.00  0.00    -0.282 N 
ATOM     10  H   UNL     1       2.344  -1.032  -7.009  0.00  0.00    +0.155 HD
BRANCH   7  12
ATOM     11  C   UNL     1       3.227   2.312  -8.844  0.00  0.00    +0.051 C 
ATOM     12  C   UNL     1       2.947   1.091  -8.327  0.00  0.00    +0.071 C 
BRANCH  11  17
ATOM     13  C   UNL     1       5.161   1.004 -13.220  0.00  0.00    +0.087 C 
ATOM     14  C   UNL     1       4.671   1.847 -12.071  0.00  0.00    +0.117 A 
ATOM     15  C   UNL     1       4.696   3.225 -12.014  0.00  0.00    +0.104 A 
ATOM     16  C   UNL     1       4.141   3.585 -10.760  0.00  0.00    +0.064 A 
ATOM     17  C   UNL     1       3.813   2.420 -10.130  0.00  0.00    +0.129 A 
ATOM     18  O   UNL     1       4.145   1.388 -10.933  0.00  0.00    -0.460 OA
BRANCH  15  19
ATOM     19  C   UNL     1       5.200   4.142 -13.052  0.00  0.00    +0.390 C 
ATOM     20  O   UNL     1       5.652   3.697 -14.088  0.00  0.00    -0.240 OA
ATOM     21  O   UNL     1       5.158   5.474 -12.852  0.00  0.00    -0.240 OA
ENDBRANCH  15  19
ENDBRANCH  11  17
ENDBRANCH   7  12
ENDBRANCH   1   9
BRANCH   4  22
ATOM     22  S   UNL     1      -0.729  -0.676  -1.330  0.00  0.00    +0.061 S 
ATOM     23  O   UNL     1      -0.800  -2.062  -1.024  0.00  0.00    -0.153 OA
ATOM     24  O   UNL     1      -1.886   0.143  -1.423  0.00  0.00    -0.153 OA
BRANCH  22  25
ATOM     25  N   UNL     1       0.247   0.012  -0.183  0.00  0.00    -0.171 NA
ATOM     26  C   UNL     1       1.134  -0.819   0.642  0.00  0.00    +0.077 C 
ATOM     27  C   UNL     1       0.865  -0.511   2.118  0.00  0.00    +0.020 C 
ATOM     28  C   UNL     1       1.013   0.993   2.357  0.00  0.00    +0.003 C 
ATOM     29  C   UNL     1      -0.015   1.749   1.511  0.00  0.00    +0.020 C 
ATOM     30  C   UNL     1       0.244   1.466   0.027  0.00  0.00    +0.077 C 
ATOM     31  C   UNL     1      -0.861   2.104  -0.817  0.00  0.00    +0.026 C 
ATOM     32  C   UNL     1       2.593  -0.501   0.309  0.00  0.00    +0.026 C 
ENDBRANCH  22  25
ENDBRANCH   4  22
TORSDOF 6
