REMARK  Name = ZINC00841324
REMARK  4 active torsions:
REMARK  status: ('A' for Active; 'I' for Inactive)
REMARK    1  A    between atoms: C_4  and  N_24
REMARK    2  A    between atoms: C_6  and  C_7
REMARK    3  A    between atoms: C_13  and  C_15
REMARK    4  A    between atoms: C_15  and  C_16
REMARK                            x       y       z     vdW  Elec       q    Type
REMARK                         _______ _______ _______ _____ _____    ______ ____
ROOT
ATOM      1  C   UNL     1       3.656   2.161  -0.022  0.00  0.00    +0.250 C 
ATOM      2  O   UNL     1       4.715   1.565  -0.036  0.00  0.00    -0.270 OA
ATOM      3  N   UNL     1       3.641   3.508  -0.015  0.00  0.00    -0.259 N 
ATOM      4  C   UNL     1       4.836   4.217  -0.023  0.00  0.00    +0.188 A 
ATOM      5  N   UNL     1       6.088   3.778  -0.038  0.00  0.00    -0.126 NA
ATOM      6  N   UNL     1       7.070   4.570  -0.044  0.00  0.00    -0.144 NA
ATOM      7  C   UNL     1       6.916   5.879  -0.035  0.00  0.00    +0.108 A 
ATOM      8  S   UNL     1       5.129   5.983  -0.023  0.00  0.00    -0.035 S 
ATOM      9  H   UNL     1       2.795   3.984  -0.004  0.00  0.00    +0.157 HD
ENDROOT
BRANCH   1  15
ATOM     10  C   UNL     1       1.167   2.089   0.002  0.00  0.00    +0.014 A 
ATOM     11  C   UNL     1      -0.017   1.381   0.010  0.00  0.00    +0.023 A 
ATOM     12  C   UNL     1       0.002  -0.004   0.002  0.00  0.00    +0.071 A 
ATOM     13  C   UNL     1       1.208  -0.686  -0.013  0.00  0.00    +0.145 A 
ATOM     14  C   UNL     1       2.397   0.011  -0.021  0.00  0.00    +0.047 A 
ATOM     15  C   UNL     1       2.385   1.408  -0.013  0.00  0.00    +0.039 A 
ATOM     16 CL   UNL     1      -1.492  -0.889   0.011  0.00  0.00    -0.081 Cl
BRANCH  13  17
ATOM     17  N   UNL     1       1.219  -2.166  -0.021  0.00  0.00    +0.058 N 
ATOM     18  O   UNL     1       2.279  -2.767  -0.034  0.00  0.00    -0.126 OA
ATOM     19  O   UNL     1       0.169  -2.783  -0.014  0.00  0.00    -0.126 OA
ENDBRANCH  13  17
ENDBRANCH   1  15
BRANCH   7  20
ATOM     20  C   UNL     1       7.950   6.975  -0.039  0.00  0.00    +0.101 C 
BRANCH  20  21
ATOM     21  C   UNL     1       8.281   7.349  -1.461  0.00  0.00    -0.023 A 
ATOM     22  C   UNL     1       9.371   6.777  -2.090  0.00  0.00    +0.007 A 
ATOM     23  C   UNL     1       9.672   7.115  -3.396  0.00  0.00    +0.020 A 
ATOM     24  C   UNL     1       8.888   8.034  -4.071  0.00  0.00    +0.042 A 
ATOM     25  C   UNL     1       7.800   8.611  -3.441  0.00  0.00    +0.040 A 
ATOM     26  C   UNL     1       7.497   8.268  -2.135  0.00  0.00    +0.046 A 
ATOM     27 CL   UNL     1       6.131   8.990  -1.343  0.00  0.00    -0.083 Cl
ATOM     28 CL   UNL     1       9.270   8.464  -5.709  0.00  0.00    -0.083 Cl
ENDBRANCH  20  21
ENDBRANCH   7  20
TORSDOF 4
