REMARK  Name = ZINC59292204
REMARK  6 active torsions:
REMARK  status: ('A' for Active; 'I' for Inactive)
REMARK    1  A    between atoms: C_1  and  C_2
REMARK    2  A    between atoms: C_8  and  C_12
REMARK    3  A    between atoms: C_12  and  C_13
REMARK    4  A    between atoms: C_13  and  N_14
REMARK    5  A    between atoms: C_15  and  C_17
REMARK    6  A    between atoms: C_20  and  N_24
REMARK                            x       y       z     vdW  Elec       q    Type
REMARK                         _______ _______ _______ _____ _____    ______ ____
ROOT
ATOM      1  N   UNL     1      -1.373  -2.446   5.650  0.00  0.00    -0.311 N 
ATOM      2  C   UNL     1      -2.535  -2.253   6.305  0.00  0.00    +0.245 C 
ATOM      3  O   UNL     1      -3.587  -2.274   5.696  0.00  0.00    -0.270 OA
ATOM      4  H   UNL     1      -0.534  -2.430   6.136  0.00  0.00    +0.149 HD
ENDROOT
BRANCH   2   5
ATOM      5  C   UNL     1      -2.531  -2.018   7.764  0.00  0.00    +0.055 A 
ATOM      6  C   UNL     1      -1.324  -1.988   8.466  0.00  0.00    +0.017 A 
ATOM      7  C   UNL     1      -1.327  -1.767   9.827  0.00  0.00    +0.033 A 
ATOM      8  C   UNL     1      -2.522  -1.575  10.499  0.00  0.00    +0.128 A 
ATOM      9  C   UNL     1      -3.721  -1.603   9.811  0.00  0.00    +0.053 A 
ATOM     10  C   UNL     1      -3.733  -1.817   8.446  0.00  0.00    +0.055 A 
ATOM     11 CL   UNL     1      -5.239  -1.845   7.583  0.00  0.00    -0.083 Cl
BRANCH   8  12
ATOM     12  N   UNL     1      -2.516  -1.339  11.960  0.00  0.00    +0.056 N 
ATOM     13  O   UNL     1      -1.469  -1.314  12.564  0.00  0.00    -0.126 OA
ATOM     14  O   UNL     1      -3.558  -1.171  12.549  0.00  0.00    -0.126 OA
ENDBRANCH   8  12
ENDBRANCH   2   5
BRANCH   1  15
ATOM     15  C   UNL     1      -1.378  -2.680   4.204  0.00  0.00    +0.109 C 
BRANCH  15  16
ATOM     16  C   UNL     1       0.059  -2.867   3.713  0.00  0.00    +0.056 C 
BRANCH  16  24
ATOM     17  C   UNL     1      -0.018   1.503   0.010  0.00  0.00    +0.044 C 
ATOM     18  C   UNL     1       0.002  -0.004   0.002  0.00  0.00    -0.050 A 
ATOM     19  C   UNL     1       0.006  -0.686  -1.207  0.00  0.00    +0.005 A 
ATOM     20  C   UNL     1       0.024  -2.063  -1.237  0.00  0.00    +0.026 A 
ATOM     21  C   UNL     1       0.039  -2.780  -0.045  0.00  0.00    +0.047 A 
ATOM     22  C   UNL     1       0.036  -2.084   1.178  0.00  0.00    +0.003 A 
ATOM     23  C   UNL     1       0.023  -0.688   1.185  0.00  0.00    +0.013 A 
ATOM     24  C   UNL     1       0.055  -3.107   2.226  0.00  0.00    -0.021 A 
ATOM     25  C   UNL     1       0.067  -4.300   1.610  0.00  0.00    +0.087 A 
ATOM     26  N   UNL     1       0.058  -4.124   0.253  0.00  0.00    -0.360 N 
ATOM     27  H   UNL     1       0.065  -4.840  -0.402  0.00  0.00    +0.165 HD
ENDBRANCH  16  24
ENDBRANCH  15  16
ENDBRANCH   1  15
TORSDOF 5
