REMARK  Name = ZINC65265833
REMARK  6 active torsions:
REMARK  status: ('A' for Active; 'I' for Inactive)
REMARK    1  A    between atoms: C_1  and  O_2
REMARK    2  A    between atoms: O_2  and  C_3
REMARK    3  A    between atoms: C_3  and  C_4
REMARK    4  A    between atoms: C_4  and  N_5
REMARK    5  A    between atoms: N_19  and  S_21
REMARK    6  A    between atoms: S_21  and  C_24
REMARK                            x       y       z     vdW  Elec       q    Type
REMARK                         _______ _______ _______ _____ _____    ______ ____
ROOT
ATOM      1  N   UNL     1       1.401  -2.532  -0.162  0.00  0.00    -0.373 N 
ATOM      2  C   UNL     1       1.501  -3.788  -0.450  0.00  0.00    +0.094 C 
ATOM      3  N   UNL     1       0.896  -4.754   0.317  0.00  0.00    -0.303 N 
ATOM      4  C   UNL     1      -0.395  -5.159  -0.009  0.00  0.00    +0.037 A 
ATOM      5  C   UNL     1      -1.351  -5.299   0.988  0.00  0.00    +0.023 A 
ATOM      6  C   UNL     1      -2.629  -5.714   0.671  0.00  0.00    +0.002 A 
ATOM      7  C   UNL     1      -2.946  -5.989  -0.647  0.00  0.00    +0.000 A 
ATOM      8  C   UNL     1      -1.999  -5.845  -1.637  0.00  0.00    +0.007 A 
ATOM      9  C   UNL     1      -0.708  -5.420  -1.337  0.00  0.00    -0.012 A 
ATOM     10  C   UNL     1       0.241  -5.257  -2.496  0.00  0.00    +0.119 C 
ATOM     11  N   UNL     1       1.640  -5.503  -2.124  0.00  0.00    -0.299 NA
ATOM     12  C   UNL     1       2.274  -4.261  -1.635  0.00  0.00    +0.089 C 
ATOM     13  C   UNL     1       2.300  -3.204  -2.755  0.00  0.00    +0.048 C 
ATOM     14  C   UNL     1       3.587  -3.601  -3.523  0.00  0.00    +0.112 C 
ATOM     15  N   UNL     1       4.526  -4.059  -2.481  0.00  0.00    -0.174 NA
ATOM     16  C   UNL     1       3.750  -4.502  -1.309  0.00  0.00    +0.139 C 
ATOM     17  H   UNL     1       1.835  -1.870  -0.723  0.00  0.00    +0.161 HD
ATOM     18  H   UNL     1       1.708  -6.241  -1.438  0.00  0.00    +0.123 HD
ATOM     19  H   UNL     1       1.360  -5.147   1.072  0.00  0.00    +0.153 HD
ENDROOT
BRANCH  15  20
ATOM     20  S   UNL     1       6.177  -4.073  -2.608  0.00  0.00    +0.061 S 
ATOM     21  O   UNL     1       6.646  -5.056  -1.695  0.00  0.00    -0.153 OA
ATOM     22  O   UNL     1       6.478  -4.119  -3.996  0.00  0.00    -0.153 OA
BRANCH  20  23
ATOM     23  C   UNL     1       6.758  -2.518  -2.017  0.00  0.00    +0.107 A 
ATOM     24  C   UNL     1       6.900  -1.456  -2.891  0.00  0.00    +0.028 A 
ATOM     25  C   UNL     1       7.356  -0.236  -2.428  0.00  0.00    +0.003 A 
ATOM     26  C   UNL     1       7.671  -0.077  -1.092  0.00  0.00    +0.020 A 
ATOM     27  C   UNL     1       7.529  -1.140  -0.217  0.00  0.00    +0.043 A 
ATOM     28  C   UNL     1       7.067  -2.359  -0.680  0.00  0.00    +0.048 A 
ATOM     29 CL   UNL     1       7.925  -0.941   1.462  0.00  0.00    -0.083 Cl
ENDBRANCH  20  23
ENDBRANCH  15  20
BRANCH   1  30
ATOM     30  C   UNL     1       0.633  -2.108   1.011  0.00  0.00    +0.141 C 
BRANCH  30  31
ATOM     31  C   UNL     1       0.673  -0.582   1.123  0.00  0.00    +0.180 C 
BRANCH  31  33
ATOM     32  C   UNL     1      -0.017   1.425   0.010  0.00  0.00    +0.194 C 
ATOM     33  O   UNL     1       0.002  -0.004   0.002  0.00  0.00    -0.381 OA
ENDBRANCH  31  33
ENDBRANCH  30  31
ENDBRANCH   1  30
TORSDOF 5
