REMARK  Name = ZINC64502858
REMARK  5 active torsions:
REMARK  status: ('A' for Active; 'I' for Inactive)
REMARK    1  A    between atoms: C_1  and  C_2
REMARK    2  A    between atoms: C_5  and  N_9
REMARK    3  A    between atoms: C_7  and  C_8
REMARK    4  A    between atoms: C_14  and  N_17
REMARK    5  A    between atoms: C_24  and  C_26
REMARK                            x       y       z     vdW  Elec       q    Type
REMARK                         _______ _______ _______ _____ _____    ______ ____
ROOT
ATOM      1  N   UNL     1      -0.366  -7.289  -2.867  0.00  0.00    -0.281 NA
ATOM      2  C   UNL     1       0.309  -8.580  -2.989  0.00  0.00    +0.088 C 
ATOM      3  C   UNL     1      -0.389  -9.406  -4.047  0.00  0.00    +0.034 C 
ATOM      4  C   UNL     1       0.287  -9.179  -5.410  0.00  0.00    +0.109 C 
ATOM      5  N   UNL     1       0.653  -7.761  -5.597  0.00  0.00    -0.298 N 
ATOM      6  C   UNL     1      -0.222  -6.673  -5.210  0.00  0.00    +0.123 C 
ATOM      7  C   UNL     1       0.067  -6.268  -3.745  0.00  0.00    +0.105 C 
ATOM      8  C   UNL     1       1.847  -7.468  -6.150  0.00  0.00    +0.242 C 
ATOM      9  O   UNL     1       2.214  -6.314  -6.223  0.00  0.00    -0.273 OA
ENDROOT
BRANCH   8  10
ATOM     10  C   UNL     1       2.726  -8.573  -6.676  0.00  0.00    +0.190 C 
ATOM     11  C   UNL     1       3.438  -9.261  -5.534  0.00  0.00    +0.016 C 
ATOM     12  C   UNL     1       4.761  -9.088  -5.758  0.00  0.00    -0.004 A 
ATOM     13  C   UNL     1       5.958  -9.512  -5.023  0.00  0.00    +0.010 A 
ATOM     14  C   UNL     1       7.177  -9.181  -5.507  0.00  0.00    +0.001 A 
ATOM     15  C   UNL     1       7.325  -8.444  -6.690  0.00  0.00    +0.002 A 
ATOM     16  C   UNL     1       6.272  -8.020  -7.421  0.00  0.00    +0.026 A 
ATOM     17  C   UNL     1       4.944  -8.312  -7.006  0.00  0.00    +0.043 A 
ATOM     18  N   UNL     1       3.779  -8.017  -7.533  0.00  0.00    -0.370 N 
ATOM     19  H   UNL     1       3.637  -7.515  -8.351  0.00  0.00    +0.161 HD
ENDBRANCH   8  10
BRANCH   1  25
ATOM     20  N   UNL     1      -1.255  -5.133  -0.102  0.00  0.00    -0.200 N 
ATOM     21  C   UNL     1      -1.533  -6.017   0.877  0.00  0.00    +0.257 C 
ATOM     22  O   UNL     1      -1.727  -5.637   2.016  0.00  0.00    -0.269 OA
ATOM     23  C   UNL     1      -1.598  -7.453   0.544  0.00  0.00    +0.068 C 
ATOM     24  C   UNL     1      -1.032  -7.852  -0.599  0.00  0.00    +0.014 C 
ATOM     25  C   UNL     1      -0.362  -6.823  -1.474  0.00  0.00    +0.166 C 
ATOM     26  N   UNL     1      -1.085  -5.548  -1.388  0.00  0.00    -0.212 NA
ATOM     27  H   UNL     1      -1.968  -5.596  -1.873  0.00  0.00    +0.147 HD
BRANCH  20  32
ATOM     28  C   UNL     1      -0.812   0.383   1.144  0.00  0.00    +0.044 C 
ATOM     29  C   UNL     1      -0.930  -1.083   0.813  0.00  0.00    -0.047 A 
ATOM     30  C   UNL     1      -1.609  -1.481  -0.324  0.00  0.00    +0.005 A 
ATOM     31  C   UNL     1      -1.719  -2.823  -0.630  0.00  0.00    +0.025 A 
ATOM     32  C   UNL     1      -1.145  -3.773   0.205  0.00  0.00    +0.053 A 
ATOM     33  C   UNL     1      -0.464  -3.370   1.345  0.00  0.00    +0.028 A 
ATOM     34  C   UNL     1      -0.354  -2.026   1.643  0.00  0.00    -0.046 A 
ATOM     35  C   UNL     1       0.391  -1.587   2.878  0.00  0.00    +0.044 C 
ENDBRANCH  20  32
ENDBRANCH   1  25
TORSDOF 3
