REMARK  Name = ZINC16920634
REMARK  8 active torsions:
REMARK  status: ('A' for Active; 'I' for Inactive)
REMARK    1  A    between atoms: C_1  and  C_2
REMARK    2  A    between atoms: C_5  and  C_28
REMARK    3  A    between atoms: C_6  and  N_8
REMARK    4  A    between atoms: C_9  and  C_11
REMARK    5  A    between atoms: C_11  and  N_12
REMARK    6  A    between atoms: C_16  and  C_17
REMARK    7  A    between atoms: C_20  and  O_23
REMARK    8  A    between atoms: O_23  and  C_24
REMARK                            x       y       z     vdW  Elec       q    Type
REMARK                         _______ _______ _______ _____ _____    ______ ____
ROOT
ATOM      1  N   UNL     1       0.834   7.884   0.649  0.00  0.00    -0.219 N 
ATOM      2  C   UNL     1       0.740   8.327   1.892  0.00  0.00    +0.261 C 
ATOM      3  O   UNL     1       0.999   7.616   2.845  0.00  0.00    -0.269 OA
ATOM      4  C   UNL     1       0.306   9.727   2.064  0.00  0.00    +0.080 C 
ATOM      5  C   UNL     1       0.123  10.442   3.203  0.00  0.00    +0.028 C 
ATOM      6  S   UNL     1       0.087  10.222   0.360  0.00  0.00    -0.026 S 
ATOM      7  C   UNL     1       0.551   8.676  -0.404  0.00  0.00    +0.286 C 
ATOM      8  O   UNL     1       0.599   8.404  -1.589  0.00  0.00    -0.262 OA
ENDROOT
BRANCH   5   9
ATOM      9  C   UNL     1      -0.146  11.884   3.129  0.00  0.00    -0.024 A 
ATOM     10  C   UNL     1       0.222  12.610   1.990  0.00  0.00    +0.011 A 
ATOM     11  C   UNL     1      -0.036  13.961   1.924  0.00  0.00    +0.046 A 
ATOM     12  C   UNL     1      -0.652  14.606   2.990  0.00  0.00    +0.120 A 
ATOM     13  C   UNL     1      -1.015  13.891   4.126  0.00  0.00    +0.046 A 
ATOM     14  C   UNL     1      -0.766  12.539   4.200  0.00  0.00    +0.011 A 
BRANCH  12  15
ATOM     15  O   UNL     1      -0.900  15.939   2.922  0.00  0.00    -0.495 OA
ATOM     16  C   UNL     1      -0.502  16.613   1.727  0.00  0.00    +0.277 C 
ENDBRANCH  12  15
ENDBRANCH   5   9
BRANCH   1  17
ATOM     17  C   UNL     1       1.260   6.502   0.412  0.00  0.00    +0.213 C 
BRANCH  17  19
ATOM     18  N   UNL     1       0.202   4.279   0.175  0.00  0.00    -0.283 N 
ATOM     19  C   UNL     1       0.051   5.602   0.381  0.00  0.00    +0.235 C 
ATOM     20  O   UNL     1      -1.056   6.069   0.541  0.00  0.00    -0.274 OA
ATOM     21  H   UNL     1       1.091   3.894   0.124  0.00  0.00    +0.155 HD
BRANCH  18  27
ATOM     22  C   UNL     1      -4.405   3.671  -1.406  0.00  0.00    +0.044 C 
ATOM     23  C   UNL     1      -3.169   3.139  -0.727  0.00  0.00    -0.049 A 
ATOM     24  C   UNL     1      -3.155   1.840  -0.242  0.00  0.00    +0.004 A 
ATOM     25  C   UNL     1      -2.030   1.341   0.376  0.00  0.00    +0.017 A 
ATOM     26  C   UNL     1      -0.900   2.150   0.527  0.00  0.00    +0.084 A 
ATOM     27  C   UNL     1      -0.918   3.464   0.035  0.00  0.00    +0.048 A 
ATOM     28  C   UNL     1      -2.060   3.948  -0.590  0.00  0.00    +0.027 A 
BRANCH  26  29
ATOM     29  C   UNL     1       0.305   1.624   1.193  0.00  0.00    +0.388 C 
ATOM     30  O   UNL     1       1.313   2.300   1.248  0.00  0.00    -0.241 OA
ATOM     31  O   UNL     1       0.291   0.390   1.735  0.00  0.00    -0.241 OA
ENDBRANCH  26  29
ENDBRANCH  18  27
ENDBRANCH  17  19
ENDBRANCH   1  17
TORSDOF 6
