REMARK  Name = ZINC37061124
REMARK  3 active torsions:
REMARK  status: ('A' for Active; 'I' for Inactive)
REMARK    1  A    between atoms: C_4  and  N_16
REMARK    2  A    between atoms: C_6  and  N_7
REMARK    3  A    between atoms: N_7  and  C_8
REMARK                            x       y       z     vdW  Elec       q    Type
REMARK                         _______ _______ _______ _____ _____    ______ ____
ROOT
ATOM      1  C   UNL     1      -0.017   1.385   0.010  0.00  0.00    +0.024 A 
ATOM      2  C   UNL     1       1.171   2.090   0.002  0.00  0.00    +0.024 A 
ATOM      3  C   UNL     1       2.378   1.415  -0.013  0.00  0.00    +0.071 A 
ATOM      4  C   UNL     1       2.400   0.031  -0.021  0.00  0.00    +0.146 A 
ATOM      5  C   UNL     1       1.216  -0.680  -0.013  0.00  0.00    +0.057 A 
ATOM      6  C   UNL     1       0.002  -0.004   0.002  0.00  0.00    +0.030 A 
ATOM      7 CL   UNL     1       3.869   2.305  -0.024  0.00  0.00    -0.081 Cl
ENDROOT
BRANCH   4   8
ATOM      8  N   UNL     1       3.693  -0.688  -0.038  0.00  0.00    +0.058 N 
ATOM      9  O   UNL     1       3.713  -1.897  -0.045  0.00  0.00    -0.126 OA
ATOM     10  O   UNL     1       4.730  -0.067  -0.046  0.00  0.00    -0.126 OA
ENDBRANCH   4   8
BRANCH   6  11
ATOM     11  N   UNL     1      -1.198  -0.721   0.010  0.00  0.00    -0.341 N 
ATOM     12  H   UNL     1      -1.183  -1.690   0.005  0.00  0.00    +0.146 HD
BRANCH  11  13
ATOM     13  C   UNL     1      -2.477  -0.007   0.027  0.00  0.00    +0.073 C 
ATOM     14  C   UNL     1      -2.825   0.367   1.464  0.00  0.00    +0.045 C 
ATOM     15  C   UNL     1      -4.008   1.338   1.480  0.00  0.00    +0.167 C 
ATOM     16  S   UNL     1      -5.464   0.503   0.782  0.00  0.00    -0.031 S 
ATOM     17  O   UNL     1      -6.470   1.477   0.540  0.00  0.00    -0.174 OA
ATOM     18  O   UNL     1      -5.771  -0.623   1.593  0.00  0.00    -0.174 OA
ATOM     19  C   UNL     1      -4.833  -0.086  -0.817  0.00  0.00    +0.167 C 
ATOM     20  C   UNL     1      -3.558  -0.899  -0.576  0.00  0.00    +0.045 C 
ENDBRANCH  11  13
ENDBRANCH   6  11
TORSDOF 3
