REMARK  Name = ZINC39667969
REMARK  12 active torsions:
REMARK  status: ('A' for Active; 'I' for Inactive)
REMARK    1  A    between atoms: C_1  and  C_2
REMARK    2  A    between atoms: C_5  and  C_20
REMARK    3  A    between atoms: C_6  and  C_19
REMARK    4  A    between atoms: N_8  and  C_9
REMARK    5  A    between atoms: C_9  and  C_10
REMARK    6  A    between atoms: C_20  and  C_22
REMARK    7  A    between atoms: C_22  and  S_23
REMARK    8  A    between atoms: S_23  and  C_24
REMARK    9  A    between atoms: C_28  and  C_32
REMARK   10  A    between atoms: C_29  and  C_31
REMARK   11  A    between atoms: C_32  and  C_33
REMARK   12  A    between atoms: C_33  and  C_34
REMARK                            x       y       z     vdW  Elec       q    Type
REMARK                         _______ _______ _______ _____ _____    ______ ____
ROOT
ATOM      1  C   UNL     1      -2.514  -1.786   0.644  0.00  0.00    +0.171 C 
ATOM      2  O   UNL     1      -2.944  -2.154   1.717  0.00  0.00    -0.291 OA
ENDROOT
BRANCH   1   6
ATOM      3  C   UNL     1       0.560   1.512  -0.117  0.00  0.00    +0.029 C 
ATOM      4  C   UNL     1       0.676  -0.011  -0.199  0.00  0.00    +0.078 C 
ATOM      5  C   UNL     1      -0.664  -0.620  -0.544  0.00  0.00    -0.000 C 
ATOM      6  C   UNL     1      -1.216  -1.116   0.567  0.00  0.00    +0.010 C 
ATOM      7  C   UNL     1      -0.283  -0.874   1.731  0.00  0.00    +0.088 C 
ATOM      8  N   UNL     1       1.037  -0.570   1.125  0.00  0.00    -0.285 NA
ATOM      9  C   UNL     1      -0.190  -2.127   2.604  0.00  0.00    +0.029 C 
BRANCH   8  10
ATOM     10  C   UNL     1       1.772   0.415   1.929  0.00  0.00    +0.120 C 
BRANCH  10  11
ATOM     11  C   UNL     1       2.469  -0.284   3.068  0.00  0.00    -0.030 A 
ATOM     12  C   UNL     1       1.876  -0.328   4.316  0.00  0.00    +0.009 A 
ATOM     13  C   UNL     1       2.511  -0.969   5.364  0.00  0.00    +0.050 A 
ATOM     14  C   UNL     1       3.743  -1.570   5.164  0.00  0.00    +0.166 A 
ATOM     15  C   UNL     1       4.340  -1.526   3.907  0.00  0.00    +0.167 A 
ATOM     16  C   UNL     1       3.695  -0.887   2.860  0.00  0.00    +0.054 A 
ATOM     17  O   UNL     1       5.535  -2.183   3.968  0.00  0.00    -0.453 OA
ATOM     18  C   UNL     1       5.852  -2.274   5.370  0.00  0.00    +0.466 C 
ATOM     19  O   UNL     1       4.565  -2.253   6.013  0.00  0.00    -0.453 OA
ENDBRANCH  10  11
ENDBRANCH   8  10
ENDBRANCH   1   6
BRANCH   1  20
ATOM     20  C   UNL     1      -3.317  -2.019  -0.610  0.00  0.00    +0.156 C 
BRANCH  20  21
ATOM     21  S   UNL     1      -4.930  -2.723  -0.172  0.00  0.00    -0.080 S 
BRANCH  21  22
ATOM     22  C   UNL     1      -5.738  -2.935  -1.724  0.00  0.00    +0.170 A 
ATOM     23  N   UNL     1      -6.999  -3.449  -1.758  0.00  0.00    -0.302 N 
ATOM     24  C   UNL     1      -7.624  -3.613  -2.943  0.00  0.00    +0.256 A 
ATOM     25  O   UNL     1      -8.753  -4.072  -2.992  0.00  0.00    -0.267 OA
ATOM     26  C   UNL     1      -6.949  -3.245  -4.120  0.00  0.00    +0.038 A 
ATOM     27  C   UNL     1      -5.686  -2.735  -4.025  0.00  0.00    +0.049 A 
ATOM     28  N   UNL     1      -5.114  -2.587  -2.833  0.00  0.00    -0.228 NA
ATOM     29  C   UNL     1      -4.941  -2.333  -5.272  0.00  0.00    +0.066 C 
ATOM     30  H   UNL     1      -7.446  -3.697  -0.933  0.00  0.00    +0.171 HD
BRANCH  26  31
ATOM     31  C   UNL     1      -7.608  -3.411  -5.465  0.00  0.00    +0.053 C 
BRANCH  31  32
ATOM     32  C   UNL     1      -7.390  -4.840  -5.967  0.00  0.00    +0.130 C 
BRANCH  32  33
ATOM     33  C   UNL     1      -8.049  -5.006  -7.312  0.00  0.00    +0.356 C 
ATOM     34  O   UNL     1      -8.639  -4.069  -7.821  0.00  0.00    -0.246 OA
ATOM     35  O   UNL     1      -7.992  -6.078  -7.890  0.00  0.00    -0.246 OA
ENDBRANCH  32  33
ENDBRANCH  31  32
ENDBRANCH  26  31
ENDBRANCH  21  22
ENDBRANCH  20  21
ENDBRANCH   1  20
TORSDOF 9
