REMARK  Name = ZINC50700239
REMARK  3 active torsions:
REMARK  status: ('A' for Active; 'I' for Inactive)
REMARK    1  A    between atoms: C_3  and  N_8
REMARK    2  A    between atoms: C_9  and  C_11
REMARK    3  A    between atoms: C_13  and  N_18
REMARK                            x       y       z     vdW  Elec       q    Type
REMARK                         _______ _______ _______ _____ _____    ______ ____
ROOT
ATOM      1  N   UNL     1       3.596   2.001  -0.022  0.00  0.00    -0.266 N 
ATOM      2  C   UNL     1       3.628   3.345  -0.117  0.00  0.00    +0.250 C 
ATOM      3  O   UNL     1       2.592   3.980  -0.104  0.00  0.00    -0.270 OA
ATOM      4  H   UNL     1       4.424   1.500   0.042  0.00  0.00    +0.157 HD
ENDROOT
BRANCH   1   7
ATOM      5  C   UNL     1       1.130  -0.710  -0.017  0.00  0.00    +0.020 A 
ATOM      6  C   UNL     1       2.350  -0.058  -0.024  0.00  0.00    +0.045 A 
ATOM      7  C   UNL     1       2.374   1.332  -0.015  0.00  0.00    +0.125 A 
ATOM      8  N   UNL     1       1.247   2.026  -0.001  0.00  0.00    -0.239 NA
ATOM      9  C   UNL     1       0.069   1.433   0.006  0.00  0.00    +0.128 A 
ATOM     10  C   UNL     1      -0.030   0.054  -0.001  0.00  0.00    +0.036 A 
ATOM     11 BR   UNL     1      -1.726  -0.783   0.008  0.00  0.00    -0.049 Br
ENDBRANCH   1   7
BRANCH   2  12
ATOM     12  C   UNL     1       4.926   4.049  -0.238  0.00  0.00    +0.043 A 
ATOM     13  C   UNL     1       4.981   5.440  -0.332  0.00  0.00    +0.056 A 
ATOM     14  C   UNL     1       6.221   6.059  -0.444  0.00  0.00    +0.119 A 
ATOM     15  N   UNL     1       7.335   5.344  -0.462  0.00  0.00    -0.221 NA
ATOM     16  C   UNL     1       7.321   4.027  -0.375  0.00  0.00    +0.132 A 
ATOM     17  C   UNL     1       6.131   3.336  -0.255  0.00  0.00    +0.053 A 
ATOM     18 CL   UNL     1       8.819   3.152  -0.405  0.00  0.00    -0.062 Cl
BRANCH  14  19
ATOM     19  N   UNL     1       6.292   7.444  -0.538  0.00  0.00    -0.343 N 
ATOM     20  H   UNL     1       5.479   7.974  -0.526  0.00  0.00    +0.144 HD
ATOM     21  H   UNL     1       7.154   7.882  -0.617  0.00  0.00    +0.144 HD
ENDBRANCH  14  19
ENDBRANCH   2  12
TORSDOF 3
