REMARK  Name = ZINC13035501
REMARK  10 active torsions:
REMARK  status: ('A' for Active; 'I' for Inactive)
REMARK    1  A    between atoms: C_1  and  C_2
REMARK    2  A    between atoms: C_6  and  C_8
REMARK    3  A    between atoms: C_11  and  S_17
REMARK    4  A    between atoms: N_12  and  C_13
REMARK    5  A    between atoms: C_13  and  C_14
REMARK    6  A    between atoms: C_14  and  C_15
REMARK    7  A    between atoms: S_17  and  C_18
REMARK    8  A    between atoms: C_18  and  C_19
REMARK    9  A    between atoms: N_21  and  C_22
REMARK   10  A    between atoms: C_22  and  C_23
REMARK                            x       y       z     vdW  Elec       q    Type
REMARK                         _______ _______ _______ _____ _____    ______ ____
ROOT
ATOM      1  C   UNL     1      -3.413   6.900   5.847  0.00  0.00    +0.165 A 
ATOM      2  N   UNL     1      -3.480   5.606   6.057  0.00  0.00    -0.128 NA
ATOM      3  N   UNL     1      -2.898   4.976   5.099  0.00  0.00    -0.122 NA
ATOM      4  C   UNL     1      -2.416   5.830   4.225  0.00  0.00    +0.192 A 
ATOM      5  N   UNL     1      -2.729   7.083   4.668  0.00  0.00    -0.302 N 
ENDROOT
BRANCH   1  11
ATOM      6  C   UNL     1      -5.124   8.384  10.294  0.00  0.00    +0.044 C 
ATOM      7  C   UNL     1      -4.792   8.679   8.854  0.00  0.00    -0.050 A 
ATOM      8  C   UNL     1      -5.007   9.946   8.342  0.00  0.00    +0.003 A 
ATOM      9  C   UNL     1      -4.704  10.226   7.021  0.00  0.00    +0.001 A 
ATOM     10  C   UNL     1      -4.182   9.242   6.206  0.00  0.00    +0.011 A 
ATOM     11  C   UNL     1      -3.968   7.960   6.715  0.00  0.00    +0.020 A 
ATOM     12  C   UNL     1      -4.275   7.685   8.049  0.00  0.00    +0.015 A 
ENDBRANCH   1  11
BRANCH   5  13
ATOM     13  C   UNL     1      -2.406   8.357   4.021  0.00  0.00    +0.137 C 
BRANCH  13  14
ATOM     14  C   UNL     1      -3.498   8.708   3.009  0.00  0.00    +0.147 C 
BRANCH  14  15
ATOM     15  C   UNL     1      -3.165  10.019   2.344  0.00  0.00    +0.358 C 
ATOM     16  O   UNL     1      -2.157  10.612   2.648  0.00  0.00    -0.246 OA
ATOM     17  O   UNL     1      -3.988  10.528   1.414  0.00  0.00    -0.246 OA
ENDBRANCH  14  15
ENDBRANCH  13  14
ENDBRANCH   5  13
BRANCH   4  18
ATOM     18  S   UNL     1      -1.536   5.432   2.751  0.00  0.00    -0.077 S 
BRANCH  18  19
ATOM     19  C   UNL     1      -1.526   3.626   2.868  0.00  0.00    +0.173 C 
BRANCH  19  20
ATOM     20  C   UNL     1      -0.804   3.049   1.678  0.00  0.00    +0.223 C 
ATOM     21  O   UNL     1      -0.341   3.787   0.834  0.00  0.00    -0.275 OA
ATOM     22  N   UNL     1      -0.672   1.714   1.552  0.00  0.00    -0.311 N 
ATOM     23  H   UNL     1      -1.042   1.124   2.227  0.00  0.00    +0.149 HD
BRANCH  22  24
ATOM     24  C   UNL     1       0.030   1.153   0.395  0.00  0.00    +0.152 C 
BRANCH  24  25
ATOM     25  C   UNL     1       0.038  -0.374   0.494  0.00  0.00    +0.228 C 
ATOM     26  C   UNL     1       0.785  -0.967  -0.708  0.00  0.00    +0.275 C 
ATOM     27  O   UNL     1       0.785  -2.392  -0.577  0.00  0.00    -0.485 OA
ATOM     28  C   UNL     1       1.106  -2.895   0.646  0.00  0.00    +0.162 A 
ATOM     29  C   UNL     1       1.471  -4.228   0.761  0.00  0.00    +0.049 A 
ATOM     30  C   UNL     1       1.796  -4.753   1.997  0.00  0.00    +0.004 A 
ATOM     31  C   UNL     1       1.759  -3.951   3.123  0.00  0.00    +0.004 A 
ATOM     32  C   UNL     1       1.397  -2.622   3.016  0.00  0.00    +0.049 A 
ATOM     33  C   UNL     1       1.070  -2.088   1.778  0.00  0.00    +0.163 A 
ATOM     34  O   UNL     1       0.718  -0.776   1.688  0.00  0.00    -0.480 OA
ENDBRANCH  24  25
ENDBRANCH  22  24
ENDBRANCH  19  20
ENDBRANCH  18  19
ENDBRANCH   4  18
TORSDOF 9
