REMARK  Name = ZINC12439877
REMARK  5 active torsions:
REMARK  status: ('A' for Active; 'I' for Inactive)
REMARK    1  A    between atoms: C_10  and  C_11
REMARK    2  A    between atoms: C_10  and  N_56
REMARK    3  A    between atoms: N_15  and  C_16
REMARK    4  A    between atoms: C_16  and  C_17
REMARK    5  A    between atoms: C_22  and  C_25
REMARK                            x       y       z     vdW  Elec       q    Type
REMARK                         _______ _______ _______ _____ _____    ______ ____
ROOT
ATOM      1  C   UNL     1       1.383   1.802  -2.407  0.00  0.00    +0.136 A 
ATOM      2  N   UNL     1       2.481   1.266  -1.934  0.00  0.00    -0.115 NA
ATOM      3  N   UNL     1       3.438   2.114  -2.091  0.00  0.00    -0.023 NA
ATOM      4  N   UNL     1       2.979   3.178  -2.651  0.00  0.00    -0.044 NA
ATOM      5  N   UNL     1       1.716   3.023  -2.867  0.00  0.00    -0.222 N 
ENDROOT
BRANCH   1   6
ATOM      6  C   UNL     1       0.014   1.173  -2.436  0.00  0.00    +0.001 C 
BRANCH   6  16
ATOM      7  C   UNL     1      -0.109  -1.391  -8.328  0.00  0.00    +0.000 A 
ATOM      8  C   UNL     1      -0.386  -0.040  -8.425  0.00  0.00    +0.000 A 
ATOM      9  C   UNL     1      -0.357   0.750  -7.293  0.00  0.00    +0.002 A 
ATOM     10  C   UNL     1      -0.055   0.193  -6.056  0.00  0.00    -0.061 A 
ATOM     11  C   UNL     1       0.221  -1.151  -5.962  0.00  0.00    -0.048 A 
ATOM     12  C   UNL     1       0.194  -1.944  -7.100  0.00  0.00    +0.004 A 
ATOM     13  C   UNL     1       0.553  -1.799  -4.643  0.00  0.00    +0.017 C 
ATOM     14  C   UNL     1       0.936  -0.731  -3.618  0.00  0.00    -0.073 C 
ATOM     15  C   UNL     1      -0.030   1.099  -4.853  0.00  0.00    -0.042 C 
ATOM     16  N   UNL     1      -0.124   0.299  -3.621  0.00  0.00    +0.387 N 
ATOM     17  H   UNL     1      -1.041  -0.163  -3.590  0.00  0.00    -0.081 HD
ENDBRANCH   6  16
ENDBRANCH   1   6
BRANCH   5  18
ATOM     18  C   UNL     1       0.815   3.993  -3.491  0.00  0.00    +0.243 C 
BRANCH  18  19
ATOM     19  C   UNL     1       0.332   4.972  -2.452  0.00  0.00    +0.237 C 
ATOM     20  O   UNL     1       0.630   4.815  -1.287  0.00  0.00    -0.274 OA
ATOM     21  N   UNL     1      -0.432   6.021  -2.817  0.00  0.00    -0.299 N 
ATOM     22  C   UNL     1      -0.866   6.329  -4.188  0.00  0.00    +0.108 C 
ATOM     23  C   UNL     1      -1.695   7.629  -4.124  0.00  0.00    +0.028 C 
ATOM     24  C   UNL     1      -1.207   8.288  -2.807  0.00  0.00    +0.038 C 
ATOM     25  C   UNL     1      -0.975   7.046  -1.907  0.00  0.00    +0.116 C 
BRANCH  24  26
ATOM     26  C   UNL     1      -2.271   9.183  -2.225  0.00  0.00    -0.041 A 
ATOM     27  C   UNL     1      -2.007  10.524  -2.014  0.00  0.00    +0.004 A 
ATOM     28  C   UNL     1      -2.982  11.345  -1.480  0.00  0.00    +0.002 A 
ATOM     29  C   UNL     1      -4.222  10.826  -1.157  0.00  0.00    +0.020 A 
ATOM     30  C   UNL     1      -4.486   9.485  -1.367  0.00  0.00    +0.041 A 
ATOM     31  C   UNL     1      -3.511   8.664  -1.906  0.00  0.00    +0.024 A 
ATOM     32 CL   UNL     1      -6.043   8.833  -0.962  0.00  0.00    -0.084 Cl
ENDBRANCH  24  26
ENDBRANCH  18  19
ENDBRANCH   5  18
TORSDOF 5
