REMARK  Name = ZINC11633191
REMARK  1 active torsions:
REMARK  status: ('A' for Active; 'I' for Inactive)
REMARK    1  A    between atoms: C_1  and  C_2
REMARK                            x       y       z     vdW  Elec       q    Type
REMARK                         _______ _______ _______ _____ _____    ______ ____
ROOT
ATOM      1  C   UNL     1      -0.754   2.034  -1.231  0.00  0.00    +0.009 C 
ATOM      2  C   UNL     1      -0.019   1.524   0.010  0.00  0.00    +0.007 C 
ATOM      3  C   UNL     1       0.002  -0.004   0.002  0.00  0.00    +0.042 C 
ATOM      4  C   UNL     1       0.900  -0.526   1.093  0.00  0.00    -0.023 A 
ATOM      5  C   UNL     1       0.732  -1.831   1.531  0.00  0.00    +0.055 A 
ATOM      6  C   UNL     1       1.541  -2.344   2.529  0.00  0.00    +0.167 A 
ATOM      7  C   UNL     1       2.531  -1.548   3.099  0.00  0.00    +0.168 A 
ATOM      8  C   UNL     1       2.700  -0.245   2.664  0.00  0.00    +0.072 A 
ATOM      9  C   UNL     1       1.884   0.267   1.661  0.00  0.00    +0.034 A 
ATOM     10  N   UNL     1       2.072   1.591   1.241  0.00  0.00    -0.343 N 
ATOM     11  C   UNL     1       1.426   2.040  -0.001  0.00  0.00    +0.105 C 
ATOM     12  O   UNL     1       3.186  -2.278   4.048  0.00  0.00    -0.453 OA
ATOM     13  C   UNL     1       2.859  -3.652   3.770  0.00  0.00    +0.466 C 
ATOM     14  O   UNL     1       1.575  -3.574   3.123  0.00  0.00    -0.453 OA
ATOM     15  H   UNL     1       2.619   2.200   1.760  0.00  0.00    +0.146 HD
ENDROOT
TORSDOF 0
