REMARK  Name = ZINC08855488
REMARK  5 active torsions:
REMARK  status: ('A' for Active; 'I' for Inactive)
REMARK    1  A    between atoms: C_15  and  C_16
REMARK    2  A    between atoms: N_17  and  C_18
REMARK    3  A    between atoms: C_23  and  O_24
REMARK    4  A    between atoms: O_24  and  C_25
REMARK    5  A    between atoms: C_28  and  C_31
REMARK                            x       y       z     vdW  Elec       q    Type
REMARK                         _______ _______ _______ _____ _____    ______ ____
ROOT
ATOM      1  C   UNL     1       1.611   7.529   0.182  0.00  0.00    +0.076 C 
ATOM      2  N   UNL     1       1.464   6.189   0.161  0.00  0.00    -0.361 N 
ATOM      3  H   UNL     1       0.458   5.746   0.202  0.00  0.00    +0.165 HD
ENDROOT
BRANCH   1  17
ATOM      4  C   UNL     1      -4.776  12.299  -1.214  0.00  0.00    +0.000 A 
ATOM      5  C   UNL     1      -3.774  12.917  -0.489  0.00  0.00    +0.000 A 
ATOM      6  C   UNL     1      -2.834  12.152   0.171  0.00  0.00    +0.006 A 
ATOM      7  C   UNL     1      -2.883  10.754   0.092  0.00  0.00    -0.023 A 
ATOM      8  C   UNL     1      -3.882  10.150  -0.615  0.00  0.00    -0.041 A 
ATOM      9  C   UNL     1      -4.829  10.922  -1.276  0.00  0.00    +0.004 A 
ATOM     10  C   UNL     1      -3.989   8.652  -0.727  0.00  0.00    +0.054 C 
ATOM     11  C   UNL     1      -3.262   7.969   0.430  0.00  0.00    +0.113 C 
ATOM     12  N   UNL     1      -1.918   8.575   0.543  0.00  0.00    -0.293 N 
ATOM     13  C   UNL     1      -1.841   9.982   0.858  0.00  0.00    +0.114 C 
ATOM     14  C   UNL     1      -0.497  10.645   0.768  0.00  0.00    +0.102 C 
ATOM     15  C   UNL     1       0.660   9.737   0.526  0.00  0.00    +0.152 C 
ATOM     16  O   UNL     1       1.776  10.213   0.470  0.00  0.00    -0.296 OA
ATOM     17  C   UNL     1       0.506   8.344   0.360  0.00  0.00    +0.180 C 
ATOM     18  C   UNL     1      -0.848   7.776   0.374  0.00  0.00    +0.232 C 
ATOM     19  O   UNL     1      -1.004   6.580   0.217  0.00  0.00    -0.274 OA
ENDBRANCH   1  17
BRANCH   2  20
ATOM     20  C   UNL     1       2.590   5.362   0.086  0.00  0.00    +0.082 A 
ATOM     21  C   UNL     1       3.860   5.920   0.035  0.00  0.00    +0.029 A 
ATOM     22  C   UNL     1       4.971   5.101  -0.038  0.00  0.00    +0.002 A 
ATOM     23  C   UNL     1       4.821   3.726  -0.061  0.00  0.00    +0.004 A 
ATOM     24  C   UNL     1       3.560   3.163  -0.005  0.00  0.00    +0.048 A 
ATOM     25  C   UNL     1       2.440   3.977   0.064  0.00  0.00    +0.154 A 
BRANCH  25  26
ATOM     26  O   UNL     1       1.199   3.425   0.114  0.00  0.00    -0.435 OA
BRANCH  26  27
ATOM     27  C   UNL     1       0.525   3.264  -1.053  0.00  0.00    +0.239 A 
ATOM     28  C   UNL     1      -0.701   2.607  -1.056  0.00  0.00    +0.103 A 
ATOM     29  C   UNL     1      -1.377   2.450  -2.254  0.00  0.00    +0.039 A 
ATOM     30  C   UNL     1      -0.800   2.956  -3.411  0.00  0.00    +0.074 A 
ATOM     31  C   UNL     1       0.420   3.596  -3.333  0.00  0.00    +0.127 A 
ATOM     32  N   UNL     1       1.041   3.732  -2.177  0.00  0.00    -0.219 NA
ATOM     33 CL   UNL     1      -1.377   2.001   0.423  0.00  0.00    -0.078 Cl
BRANCH  30  34
ATOM     34  C   UNL     1      -1.500   2.807  -4.737  0.00  0.00    +0.419 C 
ATOM     35  F   UNL     1      -2.332   3.910  -4.952  0.00  0.00    -0.166 F 
ATOM     36  F   UNL     1      -0.548   2.734  -5.761  0.00  0.00    -0.166 F 
ATOM     37  F   UNL     1      -2.268   1.637  -4.731  0.00  0.00    -0.166 F 
ENDBRANCH  30  34
ENDBRANCH  26  27
ENDBRANCH  25  26
ENDBRANCH   2  20
TORSDOF 5
