REMARK  Name = ZINC44606620
REMARK  4 active torsions:
REMARK  status: ('A' for Active; 'I' for Inactive)
REMARK    1  A    between atoms: C_1  and  C_2
REMARK    2  A    between atoms: C_13  and  O_29
REMARK    3  A    between atoms: C_25  and  C_27
REMARK    4  A    between atoms: C_27  and  O_28
REMARK                            x       y       z     vdW  Elec       q    Type
REMARK                         _______ _______ _______ _____ _____    ______ ____
ROOT
ATOM      1  C   UNL     1       0.051   1.468  -0.019  0.00  0.00    +0.035 C 
ATOM      2  C   UNL     1       0.038  -0.039  -0.007  0.00  0.00    -0.032 C 
ATOM      3  C   UNL     1       0.601  -0.691   0.979  0.00  0.00    -0.082 C 
ATOM      4  C   UNL     1       0.634  -2.210   1.056  0.00  0.00    +0.004 C 
ATOM      5  N   UNL     1       1.196  -2.547   2.376  0.00  0.00    +0.433 N 
ATOM      6  O   UNL     1       1.151  -3.999   2.551  0.00  0.00    -0.290 OA
ATOM      7  C   UNL     1       0.393  -1.937   3.435  0.00  0.00    -0.012 C 
ATOM      8  C   UNL     1       0.766  -2.508   4.802  0.00  0.00    +0.028 C 
ATOM      9  C   UNL     1       2.267  -2.589   4.905  0.00  0.00    -0.022 A 
ATOM     10  C   UNL     1       3.095  -2.854   6.061  0.00  0.00    +0.006 A 
ATOM     11  C   UNL     1       2.797  -3.110   7.403  0.00  0.00    +0.055 A 
ATOM     12  C   UNL     1       3.873  -3.326   8.252  0.00  0.00    +0.118 A 
ATOM     13  C   UNL     1       5.185  -3.289   7.795  0.00  0.00    +0.047 A 
ATOM     14  C   UNL     1       5.498  -3.038   6.471  0.00  0.00    +0.030 A 
ATOM     15  C   UNL     1       4.436  -2.819   5.597  0.00  0.00    +0.047 A 
ATOM     16  N   UNL     1       4.396  -2.551   4.256  0.00  0.00    -0.359 N 
ATOM     17  H   UNL     1       5.172  -2.471   3.679  0.00  0.00    +0.166 HD
ATOM     18  C   UNL     1       3.098  -2.413   3.853  0.00  0.00    +0.012 A 
ATOM     19  C   UNL     1       2.594  -2.103   2.459  0.00  0.00    +0.026 C 
ATOM     20  C   UNL     1       2.697  -0.589   2.251  0.00  0.00    +0.004 C 
ATOM     21  C   UNL     1       1.289   0.006   2.151  0.00  0.00    +0.016 C 
ATOM     22  C   UNL     1       0.530  -0.418   3.432  0.00  0.00    +0.013 C 
ENDROOT
BRANCH  12  23
ATOM     23  O   UNL     1       3.637  -3.579   9.567  0.00  0.00    -0.507 OA
ATOM     24  H   UNL     1       3.532  -4.518   9.774  0.00  0.00    +0.292 HD
ENDBRANCH  12  23
BRANCH  22  25
ATOM     25  C   UNL     1       1.288   0.031   4.682  0.00  0.00    +0.158 C 
BRANCH  25  26
ATOM     26  O   UNL     1       1.383   1.457   4.695  0.00  0.00    -0.395 OA
ATOM     27  H   UNL     1       1.853   1.812   5.462  0.00  0.00    +0.209 HD
ENDBRANCH  25  26
ENDBRANCH  22  25
TORSDOF 3
