REMARK  Name = ZINC03414232
REMARK  8 active torsions:
REMARK  status: ('A' for Active; 'I' for Inactive)
REMARK    1  A    between atoms: C_1  and  C_2
REMARK    2  A    between atoms: C_6  and  C_7
REMARK    3  A    between atoms: C_7  and  O_9
REMARK    4  A    between atoms: O_9  and  C_10
REMARK    5  A    between atoms: C_10  and  C_11
REMARK    6  A    between atoms: N_13  and  C_14
REMARK    7  A    between atoms: C_17  and  S_21
REMARK    8  A    between atoms: S_21  and  N_24
REMARK                            x       y       z     vdW  Elec       q    Type
REMARK                         _______ _______ _______ _____ _____    ______ ____
ROOT
ATOM      1  C   UNL     1       2.369   5.180  -0.392  0.00  0.00    +0.255 C 
ATOM      2  O   UNL     1       1.327   5.744  -0.651  0.00  0.00    -0.272 OA
ATOM      3  N   UNL     1       2.357   3.891   0.001  0.00  0.00    -0.280 N 
ATOM      4  H   UNL     1       3.181   3.461   0.278  0.00  0.00    +0.155 HD
ENDROOT
BRANCH   3   5
ATOM      5  C   UNL     1       1.156   3.172   0.008  0.00  0.00    +0.071 A 
ATOM      6  C   UNL     1       0.748   2.485  -1.129  0.00  0.00    +0.065 A 
ATOM      7  C   UNL     1      -0.439   1.776  -1.118  0.00  0.00    +0.050 A 
ATOM      8  C   UNL     1      -1.222   1.754   0.021  0.00  0.00    +0.108 A 
ATOM      9  C   UNL     1      -0.817   2.432   1.157  0.00  0.00    +0.050 A 
ATOM     10  C   UNL     1       0.369   3.143   1.153  0.00  0.00    +0.065 A 
ATOM     11 CL   UNL     1       0.873   3.998   2.577  0.00  0.00    -0.082 Cl
ATOM     12 CL   UNL     1       1.728   2.517  -2.561  0.00  0.00    -0.082 Cl
BRANCH   8  13
ATOM     13  S   UNL     1      -2.738   0.855   0.029  0.00  0.00    +0.056 S 
ATOM     14  O   UNL     1      -3.552   1.440   1.036  0.00  0.00    -0.153 OA
ATOM     15  O   UNL     1      -3.156   0.754  -1.326  0.00  0.00    -0.153 OA
BRANCH  13  16
ATOM     16  N   UNL     1      -2.392  -0.683   0.533  0.00  0.00    -0.204 NA
ATOM     17  H   UNL     1      -1.480  -0.927   0.757  0.00  0.00    +0.144 HD
ATOM     18  H   UNL     1      -3.102  -1.341   0.605  0.00  0.00    +0.144 HD
ENDBRANCH  13  16
ENDBRANCH   8  13
ENDBRANCH   3   5
BRANCH   1  19
ATOM     19  C   UNL     1       3.676   5.921  -0.507  0.00  0.00    +0.328 C 
BRANCH  19  20
ATOM     20  O   UNL     1       3.424   7.282  -0.944  0.00  0.00    -0.451 OA
BRANCH  20  21
ATOM     21  C   UNL     1       4.497   8.085  -1.098  0.00  0.00    +0.347 C 
ATOM     22  O   UNL     1       5.613   7.657  -0.874  0.00  0.00    -0.244 OA
BRANCH  21  28
ATOM     23  C   UNL     1       6.742  10.177  -1.534  0.00  0.00    +0.045 C 
ATOM     24  C   UNL     1       5.276  10.451  -1.748  0.00  0.00    -0.029 A 
ATOM     25  C   UNL     1       4.830  11.680  -2.166  0.00  0.00    +0.012 A 
ATOM     26  C   UNL     1       3.497  11.878  -2.339  0.00  0.00    +0.046 A 
ATOM     27  S   UNL     1       2.810  10.340  -1.928  0.00  0.00    -0.090 S 
ATOM     28  C   UNL     1       4.318   9.470  -1.536  0.00  0.00    +0.099 A 
ENDBRANCH  21  28
ENDBRANCH  20  21
ENDBRANCH  19  20
ENDBRANCH   1  19
TORSDOF 7
