REMARK  Name = ZINC65137699
REMARK  9 active torsions:
REMARK  status: ('A' for Active; 'I' for Inactive)
REMARK    1  A    between atoms: C_1  and  C_2
REMARK    2  A    between atoms: C_3  and  S_14
REMARK    3  A    between atoms: C_5  and  C_7
REMARK    4  A    between atoms: C_10  and  C_13
REMARK    5  A    between atoms: S_14  and  N_17
REMARK    6  A    between atoms: N_20  and  C_23
REMARK    7  A    between atoms: C_23  and  C_24
REMARK    8  A    between atoms: C_24  and  O_25
REMARK    9  A    between atoms: O_25  and  C_26
REMARK                            x       y       z     vdW  Elec       q    Type
REMARK                         _______ _______ _______ _____ _____    ______ ____
ROOT
ATOM      1  N   UNL     1      -2.599   0.854   1.505  0.00  0.00    -0.174 NA
ATOM      2  C   UNL     1      -3.218  -0.012   2.520  0.00  0.00    +0.125 C 
ATOM      3  C   UNL     1      -4.481   0.679   3.044  0.00  0.00    +0.101 C 
ATOM      4  N   UNL     1      -4.140   2.031   3.507  0.00  0.00    -0.297 NA
ATOM      5  C   UNL     1      -3.649   2.864   2.401  0.00  0.00    +0.101 C 
ATOM      6  C   UNL     1      -2.346   2.261   1.852  0.00  0.00    +0.125 C 
ENDROOT
BRANCH   1   7
ATOM      7  S   UNL     1      -2.191   0.259   0.014  0.00  0.00    +0.062 S 
ATOM      8  O   UNL     1      -2.157   1.371  -0.871  0.00  0.00    -0.153 OA
ATOM      9  O   UNL     1      -3.023  -0.870  -0.214  0.00  0.00    -0.153 OA
BRANCH   7  12
ATOM     10  C   UNL     1       0.459   1.997   0.570  0.00  0.00    +0.053 C 
ATOM     11  C   UNL     1       0.488   0.504   0.369  0.00  0.00    +0.013 A 
ATOM     12  C   UNL     1      -0.540  -0.345   0.128  0.00  0.00    +0.116 A 
ATOM     13  C   UNL     1      -0.275  -1.693  -0.026  0.00  0.00    +0.042 A 
ATOM     14  C   UNL     1       1.006  -2.126   0.068  0.00  0.00    +0.022 A 
ATOM     15  S   UNL     1       1.888  -0.604   0.377  0.00  0.00    -0.094 S 
BRANCH  14  16
ATOM     16  C   UNL     1       1.547  -3.526  -0.060  0.00  0.00    +0.189 C 
ATOM     17  C   UNL     1       2.186  -3.733  -1.422  0.00  0.00    +0.031 C 
ATOM     18  C   UNL     1       3.462  -4.008  -1.140  0.00  0.00    +0.059 C 
ATOM     19  N   UNL     1       3.672  -3.995   0.195  0.00  0.00    -0.159 NA
ATOM     20  N   UNL     1       2.668  -3.740   0.872  0.00  0.00    -0.175 NA
ATOM     21  C   UNL     1       4.523  -4.295  -2.171  0.00  0.00    +0.067 C 
ENDBRANCH  14  16
ENDBRANCH   7  12
ENDBRANCH   1   7
BRANCH   4  22
ATOM     22  C   UNL     1      -5.285   2.664   4.174  0.00  0.00    +0.125 C 
BRANCH  22  23
ATOM     23  C   UNL     1      -5.454   2.066   5.573  0.00  0.00    +0.244 C 
BRANCH  23  24
ATOM     24  O   UNL     1      -4.314   2.392   6.371  0.00  0.00    -0.491 OA
BRANCH  24  25
ATOM     25  C   UNL     1      -4.306   1.933   7.650  0.00  0.00    +0.121 A 
ATOM     26  C   UNL     1      -5.370   1.181   8.126  0.00  0.00    +0.047 A 
ATOM     27  C   UNL     1      -5.359   0.716   9.426  0.00  0.00    +0.023 A 
ATOM     28  C   UNL     1      -4.288   1.001  10.255  0.00  0.00    +0.041 A 
ATOM     29  C   UNL     1      -3.226   1.751   9.783  0.00  0.00    +0.023 A 
ATOM     30  C   UNL     1      -3.230   2.212   8.481  0.00  0.00    +0.047 A 
ATOM     31 CL   UNL     1      -4.278   0.416  11.889  0.00  0.00    -0.084 Cl
ENDBRANCH  24  25
ENDBRANCH  23  24
ENDBRANCH  22  23
ENDBRANCH   4  22
TORSDOF 7
