REMARK  Name = ZINC33332416
REMARK  9 active torsions:
REMARK  status: ('A' for Active; 'I' for Inactive)
REMARK    1  A    between atoms: C_1  and  C_2
REMARK    2  A    between atoms: N_6  and  N_7
REMARK    3  A    between atoms: C_8  and  C_19
REMARK    4  A    between atoms: N_11  and  C_12
REMARK    5  A    between atoms: C_12  and  C_13
REMARK    6  A    between atoms: C_14  and  C_15
REMARK    7  A    between atoms: C_15  and  C_16
REMARK    8  A    between atoms: C_15  and  C_17
REMARK    9  A    between atoms: C_15  and  O_18
REMARK                            x       y       z     vdW  Elec       q    Type
REMARK                         _______ _______ _______ _____ _____    ______ ____
ROOT
ATOM      1  C   UNL     1      -2.509   4.757   1.541  0.00  0.00    +0.024 C 
ATOM      2  C   UNL     1      -2.286   3.298   1.139  0.00  0.00    +0.060 C 
ATOM      3  C   UNL     1      -1.780   3.237  -0.307  0.00  0.00    +0.071 C 
ATOM      4  C   UNL     1      -1.422   1.801  -0.625  0.00  0.00    +0.042 C 
ATOM      5  N   UNL     1      -1.844   1.234  -1.693  0.00  0.00    -0.198 NA
ATOM      6  C   UNL     1      -0.549   1.056   0.363  0.00  0.00    +0.046 C 
ATOM      7  C   UNL     1      -1.133   1.255   1.766  0.00  0.00    +0.094 C 
ATOM      8  N   UNL     1      -1.290   2.691   2.030  0.00  0.00    -0.288 NA
ATOM      9  C   UNL     1      -0.534  -0.434   0.017  0.00  0.00    +0.015 C 
ENDROOT
BRANCH   5  10
ATOM     10  N   UNL     1      -1.227   0.065  -2.155  0.00  0.00    -0.283 N 
ATOM     11  H   UNL     1      -1.590  -0.422  -3.073  0.00  0.00    +0.164 HD
ATOM     12  H   UNL     1      -0.381  -0.368  -1.601  0.00  0.00    +0.164 HD
ENDBRANCH   5  10
BRANCH   8  13
ATOM     13  C   UNL     1      -1.626   2.934   3.439  0.00  0.00    +0.174 C 
BRANCH  13  14
ATOM     14  C   UNL     1      -2.958   2.377   3.729  0.00  0.00    -0.084 C 
ATOM     15  C   UNL     1      -4.020   1.933   3.959  0.00  0.00    -0.067 C 
BRANCH  15  16
ATOM     16  C   UNL     1      -5.352   1.377   4.249  0.00  0.00    +0.121 C 
ATOM     17  C   UNL     1      -5.702   1.630   5.716  0.00  0.00    +0.055 C 
ATOM     18  C   UNL     1      -6.392   2.051   3.352  0.00  0.00    +0.055 C 
BRANCH  16  19
ATOM     19  O   UNL     1      -5.345  -0.030   3.996  0.00  0.00    -0.377 OA
ATOM     20  H   UNL     1      -6.259  -0.621   4.157  0.00  0.00    +0.211 HD
ENDBRANCH  16  19
ENDBRANCH  15  16
ENDBRANCH  13  14
ENDBRANCH   8  13
TORSDOF 5
