REMARK  Name = ZINC33482463
REMARK  5 active torsions:
REMARK  status: ('A' for Active; 'I' for Inactive)
REMARK    1  A    between atoms: C_1  and  N_2
REMARK    2  A    between atoms: C_6  and  C_13
REMARK    3  A    between atoms: N_9  and  C_12
REMARK    4  A    between atoms: N_17  and  C_21
REMARK    5  A    between atoms: C_21  and  C_22
REMARK                            x       y       z     vdW  Elec       q    Type
REMARK                         _______ _______ _______ _____ _____    ______ ____
ROOT
ATOM      1  C   UNL     1       0.464   0.959   1.159  0.00  0.00    +0.154 C 
ATOM      2  N   UNL     1       0.350  -0.477   0.889  0.00  0.00    -0.295 N 
ATOM      3  C   UNL     1      -0.836  -1.175   0.695  0.00  0.00    +0.070 A 
ATOM      4  C   UNL     1      -2.172  -0.795   0.691  0.00  0.00    +0.028 A 
ATOM      5  C   UNL     1      -3.150  -1.722   0.466  0.00  0.00    +0.010 A 
ATOM      6  C   UNL     1      -2.813  -3.063   0.239  0.00  0.00    -0.021 A 
ATOM      7  C   UNL     1      -1.470  -3.454   0.241  0.00  0.00    +0.036 A 
ATOM      8  C   UNL     1      -0.485  -2.511   0.469  0.00  0.00    +0.070 A 
ATOM      9  N   UNL     1       0.905  -2.578   0.533  0.00  0.00    -0.295 N 
ATOM     10  C   UNL     1       1.377  -1.341   0.782  0.00  0.00    +0.330 A 
ATOM     11  O   UNL     1       2.552  -1.049   0.895  0.00  0.00    -0.246 OA
ATOM     12  C   UNL     1       1.716  -3.785   0.356  0.00  0.00    +0.154 C 
ENDROOT
BRANCH   6  13
ATOM     13  C   UNL     1      -3.868  -4.056  -0.001  0.00  0.00    +0.036 C 
ATOM     14  C   UNL     1      -3.585  -5.195  -0.683  0.00  0.00    +0.098 C 
ATOM     15  C   UNL     1      -4.463  -6.358  -0.883  0.00  0.00    +0.269 C 
ATOM     16  O   UNL     1      -5.599  -6.496  -0.469  0.00  0.00    -0.268 OA
ATOM     17  N   UNL     1      -3.757  -7.240  -1.619  0.00  0.00    -0.217 N 
ATOM     18  C   UNL     1      -2.542  -6.738  -1.889  0.00  0.00    +0.313 C 
ATOM     19  O   UNL     1      -1.688  -7.312  -2.536  0.00  0.00    -0.252 OA
ATOM     20  N   UNL     1      -2.396  -5.513  -1.353  0.00  0.00    -0.265 N 
ATOM     21  H   UNL     1      -1.608  -4.951  -1.418  0.00  0.00    +0.157 HD
BRANCH  17  22
ATOM     22  C   UNL     1      -4.242  -8.550  -2.058  0.00  0.00    +0.145 C 
BRANCH  22  23
ATOM     23  C   UNL     1      -4.916  -8.413  -3.399  0.00  0.00    -0.015 C 
ATOM     24  C   UNL     1      -4.524  -9.150  -4.408  0.00  0.00    +0.005 C 
ENDBRANCH  22  23
ENDBRANCH  17  22
ENDBRANCH   6  13
TORSDOF 3
