REMARK  Name = ZINC48733526
REMARK  3 active torsions:
REMARK  status: ('A' for Active; 'I' for Inactive)
REMARK    1  A    between atoms: C_6  and  N_7
REMARK    2  A    between atoms: N_7  and  N_8
REMARK    3  A    between atoms: C_9  and  C_11
REMARK                            x       y       z     vdW  Elec       q    Type
REMARK                         _______ _______ _______ _____ _____    ______ ____
ROOT
ATOM      1  N   UNL     1      -1.198  -0.720   0.010  0.00  0.00    -0.264 N 
ATOM      2  H   UNL     1      -2.045  -0.248   0.021  0.00  0.00    +0.170 HD
ENDROOT
BRANCH   1   8
ATOM      3  C   UNL     1      -0.017   1.385   0.010  0.00  0.00    +0.025 A 
ATOM      4  C   UNL     1       1.171   2.090   0.002  0.00  0.00    +0.017 A 
ATOM      5  C   UNL     1       2.378   1.415  -0.013  0.00  0.00    +0.018 A 
ATOM      6  C   UNL     1       2.400   0.031  -0.021  0.00  0.00    +0.017 A 
ATOM      7  C   UNL     1       1.216  -0.679  -0.013  0.00  0.00    +0.025 A 
ATOM      8  C   UNL     1       0.002  -0.004   0.002  0.00  0.00    +0.044 A 
ATOM      9 BR   UNL     1       4.002   2.384  -0.025  0.00  0.00    -0.050 Br
ENDBRANCH   1   8
BRANCH   1  10
ATOM     10  N   UNL     1      -1.177  -2.121   0.002  0.00  0.00    -0.232 N 
ATOM     11  C   UNL     1      -2.334  -2.812   0.010  0.00  0.00    +0.270 C 
ATOM     12  O   UNL     1      -3.396  -2.220   0.024  0.00  0.00    -0.268 OA
ATOM     13  H   UNL     1      -0.330  -2.594  -0.009  0.00  0.00    +0.173 HD
BRANCH  11  14
ATOM     14  C   UNL     1      -2.312  -4.284   0.002  0.00  0.00    +0.115 A 
ATOM     15  C   UNL     1      -3.365  -5.192   0.002  0.00  0.00    +0.157 A 
ATOM     16  N   UNL     1      -2.995  -6.449  -0.007  0.00  0.00    -0.149 NA
ATOM     17  N   UNL     1      -1.759  -6.802  -0.016  0.00  0.00    -0.110 NA
ATOM     18  S   UNL     1      -0.928  -5.410  -0.018  0.00  0.00    +0.041 S 
ENDBRANCH  11  14
ENDBRANCH   1  10
TORSDOF 3
