REMARK  Name = ZINC65189158
REMARK  5 active torsions:
REMARK  status: ('A' for Active; 'I' for Inactive)
REMARK    1  A    between atoms: C_1  and  C_2
REMARK    2  A    between atoms: C_2  and  N_3
REMARK    3  A    between atoms: N_6  and  N_7
REMARK    4  A    between atoms: C_8  and  C_10
REMARK    5  A    between atoms: C_10  and  C_16
REMARK                            x       y       z     vdW  Elec       q    Type
REMARK                         _______ _______ _______ _____ _____    ______ ____
ROOT
ATOM      1  C   UNL     1      -6.425  -0.990  -0.001  0.00  0.00    +0.073 C 
ATOM      2  C   UNL     1      -6.421  -0.176  -1.296  0.00  0.00    +0.021 C 
ATOM      3  C   UNL     1      -6.439  -1.125  -2.496  0.00  0.00    +0.001 C 
ATOM      4  C   UNL     1      -7.699  -1.992  -2.442  0.00  0.00    +0.000 C 
ATOM      5  C   UNL     1      -7.702  -2.806  -1.146  0.00  0.00    +0.001 C 
ATOM      6  C   UNL     1      -7.684  -1.857   0.053  0.00  0.00    +0.021 C 
ENDROOT
BRANCH   1   7
ATOM      7  C   UNL     1      -6.407  -0.055   1.181  0.00  0.00    -0.029 A 
ATOM      8  C   UNL     1      -7.383  -0.156   2.155  0.00  0.00    +0.008 A 
ATOM      9  C   UNL     1      -7.371   0.699   3.240  0.00  0.00    +0.050 A 
ATOM     10  C   UNL     1      -6.380   1.660   3.355  0.00  0.00    +0.166 A 
ATOM     11  C   UNL     1      -5.396   1.762   2.374  0.00  0.00    +0.167 A 
ATOM     12  C   UNL     1      -5.411   0.897   1.292  0.00  0.00    +0.054 A 
ATOM     13  O   UNL     1      -4.545   2.774   2.713  0.00  0.00    -0.453 OA
ATOM     14  C   UNL     1      -5.249   3.555   3.696  0.00  0.00    +0.466 C 
ATOM     15  O   UNL     1      -6.144   2.609   4.309  0.00  0.00    -0.453 OA
ENDBRANCH   1   7
BRANCH   1  17
ATOM     16  N   UNL     1      -5.067  -2.788   1.020  0.00  0.00    -0.232 N 
ATOM     17  C   UNL     1      -5.205  -1.874   0.040  0.00  0.00    +0.240 C 
ATOM     18  O   UNL     1      -4.347  -1.763  -0.811  0.00  0.00    -0.273 OA
ATOM     19  H   UNL     1      -5.715  -2.828   1.741  0.00  0.00    +0.173 HD
BRANCH  16  23
ATOM     20  N   UNL     1      -4.750  -4.649   2.982  0.00  0.00    -0.298 N 
ATOM     21  C   UNL     1      -3.849  -4.594   1.981  0.00  0.00    +0.316 C 
ATOM     22  O   UNL     1      -2.911  -5.368   1.963  0.00  0.00    -0.251 OA
ATOM     23  N   UNL     1      -3.986  -3.680   1.000  0.00  0.00    -0.218 N 
ATOM     24  H   UNL     1      -5.498  -4.032   2.996  0.00  0.00    +0.150 HD
ATOM     25  H   UNL     1      -3.338  -3.640   0.280  0.00  0.00    +0.174 HD
BRANCH  20  27
ATOM     26  C   UNL     1      -5.747  -5.493   5.050  0.00  0.00    +0.024 C 
ATOM     27  C   UNL     1      -4.600  -5.643   4.048  0.00  0.00    +0.102 C 
ENDBRANCH  20  27
ENDBRANCH  16  23
ENDBRANCH   1  17
TORSDOF 4
