REMARK  Name = ZINC16401737
REMARK  5 active torsions:
REMARK  status: ('A' for Active; 'I' for Inactive)
REMARK    1  A    between atoms: C_3  and  N_24
REMARK    2  A    between atoms: C_6  and  C_7
REMARK    3  A    between atoms: C_7  and  O_8
REMARK    4  A    between atoms: O_8  and  C_9
REMARK    5  A    between atoms: C_14  and  C_15
REMARK                            x       y       z     vdW  Elec       q    Type
REMARK                         _______ _______ _______ _____ _____    ______ ____
ROOT
ATOM      1  C   UNL     1      -3.353  -1.321  -1.607  0.00  0.00    +0.128 A 
ATOM      2  C   UNL     1      -4.266  -1.617  -0.608  0.00  0.00    +0.047 A 
ATOM      3  C   UNL     1      -5.367  -2.405  -0.885  0.00  0.00    +0.019 A 
ATOM      4  C   UNL     1      -5.568  -2.906  -2.162  0.00  0.00    +0.019 A 
ATOM      5  C   UNL     1      -4.671  -2.623  -3.170  0.00  0.00    +0.026 A 
ATOM      6  C   UNL     1      -3.555  -1.821  -2.904  0.00  0.00    +0.019 A 
ATOM      7 BR   UNL     1      -7.079  -3.984  -2.523  0.00  0.00    -0.050 Br
ENDROOT
BRANCH   6   8
ATOM      8  C   UNL     1      -2.598  -1.509  -3.973  0.00  0.00    +0.032 C 
ATOM      9  C   UNL     1      -2.566  -2.268  -5.098  0.00  0.00    +0.078 C 
ATOM     10  C   UNL     1      -1.802  -2.063  -6.343  0.00  0.00    +0.256 C 
ATOM     11  O   UNL     1      -1.064  -1.106  -6.486  0.00  0.00    -0.269 OA
ATOM     12  N   UNL     1      -1.956  -2.966  -7.297  0.00  0.00    -0.261 N 
ATOM     13  C   UNL     1      -2.799  -4.043  -7.114  0.00  0.00    +0.158 C 
ATOM     14  N   UNL     1      -3.064  -5.015  -7.943  0.00  0.00    -0.279 NA
ATOM     15  S   UNL     1      -3.432  -3.787  -5.465  0.00  0.00    -0.049 S 
ATOM     16  H   UNL     1      -1.473  -2.869  -8.133  0.00  0.00    +0.157 HD
ATOM     17  H   UNL     1      -3.682  -5.717  -7.685  0.00  0.00    +0.189 HD
ENDBRANCH   6   8
BRANCH   1  18
ATOM     18  O   UNL     1      -2.272  -0.546  -1.336  0.00  0.00    -0.487 OA
BRANCH  18  19
ATOM     19  C   UNL     1      -2.134  -0.073   0.006  0.00  0.00    +0.264 C 
BRANCH  19  25
ATOM     20  C   UNL     1      -0.944   2.126  -0.111  0.00  0.00    +0.009 A 
ATOM     21  C   UNL     1       0.202   2.893  -0.009  0.00  0.00    +0.033 A 
ATOM     22  C   UNL     1       1.405   2.299   0.321  0.00  0.00    +0.126 A 
ATOM     23  C   UNL     1       1.463   0.937   0.550  0.00  0.00    +0.033 A 
ATOM     24  C   UNL     1       0.318   0.169   0.449  0.00  0.00    +0.009 A 
ATOM     25  C   UNL     1      -0.885   0.763   0.117  0.00  0.00    -0.010 A 
BRANCH  22  26
ATOM     26  N   UNL     1       2.631   3.120   0.429  0.00  0.00    +0.056 N 
ATOM     27  O   UNL     1       2.581   4.311   0.229  0.00  0.00    -0.126 OA
ATOM     28  O   UNL     1       3.684   2.600   0.718  0.00  0.00    -0.126 OA
ENDBRANCH  22  26
ENDBRANCH  19  25
ENDBRANCH  18  19
ENDBRANCH   1  18
TORSDOF 5
