REMARK  Name = ZINC09507312
REMARK  6 active torsions:
REMARK  status: ('A' for Active; 'I' for Inactive)
REMARK    1  A    between atoms: C_6  and  S_11
REMARK    2  A    between atoms: S_11  and  N_14
REMARK    3  A    between atoms: C_19  and  C_20
REMARK    4  A    between atoms: C_19  and  N_57
REMARK    5  A    between atoms: N_22  and  C_23
REMARK    6  A    between atoms: C_24  and  C_31
REMARK                            x       y       z     vdW  Elec       q    Type
REMARK                         _______ _______ _______ _____ _____    ______ ____
ROOT
ATOM      1  N   UNL     1       1.048   8.184   1.616  0.00  0.00    -0.180 NA
ATOM      2  C   UNL     1      -0.210   8.392   2.348  0.00  0.00    +0.091 C 
ATOM      3  C   UNL     1      -0.137   7.604   3.665  0.00  0.00    -0.061 C 
ATOM      4  C   UNL     1       2.288   7.637   3.643  0.00  0.00    -0.061 C 
ATOM      5  C   UNL     1       2.314   8.420   2.326  0.00  0.00    +0.091 C 
ATOM      6  N   UNL     1       1.077   8.021   4.400  0.00  0.00    +0.387 N 
ATOM      7  H   UNL     1       1.064   9.042   4.511  0.00  0.00    -0.081 HD
ENDROOT
BRANCH   1   8
ATOM      8  S   UNL     1       1.040   7.702   0.031  0.00  0.00    +0.061 S 
ATOM      9  O   UNL     1       2.275   8.128  -0.529  0.00  0.00    -0.153 OA
ATOM     10  O   UNL     1      -0.216   8.094  -0.506  0.00  0.00    -0.153 OA
BRANCH   8  16
ATOM     11  C   UNL     1      -0.013   1.076   0.008  0.00  0.00    +0.001 A 
ATOM     12  C   UNL     1      -1.235   1.746   0.017  0.00  0.00    +0.001 A 
ATOM     13  C   UNL     1      -1.288   3.106   0.030  0.00  0.00    +0.008 A 
ATOM     14  C   UNL     1      -0.096   3.849   0.023  0.00  0.00    -0.016 A 
ATOM     15  C   UNL     1      -0.111   5.254   0.030  0.00  0.00    +0.037 A 
ATOM     16  C   UNL     1       1.064   5.940   0.022  0.00  0.00    +0.106 A 
ATOM     17  C   UNL     1       2.286   5.270   0.008  0.00  0.00    +0.029 A 
ATOM     18  C   UNL     1       2.340   3.910  -0.000  0.00  0.00    +0.010 A 
ATOM     19  C   UNL     1       1.147   3.167   0.008  0.00  0.00    -0.018 A 
ATOM     20  C   UNL     1       1.163   1.762   0.000  0.00  0.00    +0.008 A 
ENDBRANCH   8  16
ENDBRANCH   1   8
BRANCH   6  21
ATOM     21  C   UNL     1       1.098   7.394   5.737  0.00  0.00    +0.019 C 
BRANCH  21  22
ATOM     22  C   UNL     1      -0.025   7.971   6.561  0.00  0.00    +0.201 C 
ATOM     23  O   UNL     1      -0.768   8.798   6.078  0.00  0.00    -0.278 OA
ATOM     24  N   UNL     1      -0.202   7.567   7.835  0.00  0.00    -0.281 N 
ATOM     25  H   UNL     1       0.393   6.906   8.221  0.00  0.00    +0.155 HD
BRANCH  24  26
ATOM     26  C   UNL     1      -1.236   8.098   8.594  0.00  0.00    +0.090 A 
ATOM     27  C   UNL     1      -1.578   7.809   9.903  0.00  0.00    +0.084 A 
ATOM     28  C   UNL     1      -2.720   8.518  10.477  0.00  0.00    -0.018 A 
ATOM     29  C   UNL     1      -3.330   9.384   9.648  0.00  0.00    -0.004 A 
ATOM     30  S   UNL     1      -2.414   9.278   8.130  0.00  0.00    -0.077 S 
ATOM     31  C   UNL     1      -4.495  10.071  10.308  0.00  0.00    +0.043 C 
ATOM     32  C   UNL     1      -4.279   9.839  11.819  0.00  0.00    +0.010 C 
ATOM     33  C   UNL     1      -3.448   8.540  11.822  0.00  0.00    +0.037 C 
BRANCH  27  34
ATOM     34  C   UNL     1      -0.836   6.853  10.669  0.00  0.00    +0.102 C 
ATOM     35  N   UNL     1      -0.248   6.095  11.277  0.00  0.00    -0.191 NA
ENDBRANCH  27  34
ENDBRANCH  24  26
ENDBRANCH  21  22
ENDBRANCH   6  21
TORSDOF 6
