REMARK  Name = ZINC51241377
REMARK  4 active torsions:
REMARK  status: ('A' for Active; 'I' for Inactive)
REMARK    1  A    between atoms: C_1  and  C_2
REMARK    2  A    between atoms: C_8  and  N_10
REMARK    3  A    between atoms: C_17  and  C_20
REMARK    4  A    between atoms: N_22  and  C_23
REMARK                            x       y       z     vdW  Elec       q    Type
REMARK                         _______ _______ _______ _____ _____    ______ ____
ROOT
ATOM      1  N   UNL     1       2.209  -0.206   3.555  0.00  0.00    -0.296 N 
ATOM      2  C   UNL     1       2.795   0.128   2.388  0.00  0.00    +0.302 C 
ATOM      3  O   UNL     1       2.218  -0.076   1.337  0.00  0.00    -0.253 OA
ATOM      4  N   UNL     1       4.021   0.688   2.386  0.00  0.00    -0.285 N 
ATOM      5  C   UNL     1       4.624   1.164   1.134  0.00  0.00    +0.109 C 
ATOM      6  C   UNL     1       5.047   2.625   1.314  0.00  0.00    +0.020 C 
ATOM      7  C   UNL     1       5.961   2.741   2.536  0.00  0.00    +0.016 C 
ATOM      8  C   UNL     1       5.200   2.300   3.789  0.00  0.00    +0.092 C 
ATOM      9  C   UNL     1       4.776   0.840   3.637  0.00  0.00    +0.122 C 
ATOM     10  H   UNL     1       2.697  -0.112   4.388  0.00  0.00    +0.151 HD
ENDROOT
BRANCH   1  17
ATOM     11  C   UNL     1       1.592  -2.750   4.796  0.00  0.00    +0.009 C 
ATOM     12  C   UNL     1       0.616  -1.572   4.812  0.00  0.00    +0.006 C 
ATOM     13  C   UNL     1      -0.820  -2.099   4.823  0.00  0.00    +0.005 C 
ATOM     14  C   UNL     1      -1.796  -0.922   4.839  0.00  0.00    +0.000 C 
ATOM     15  C   UNL     1      -1.579  -0.062   3.592  0.00  0.00    +0.002 C 
ATOM     16  C   UNL     1      -0.142   0.466   3.581  0.00  0.00    +0.022 C 
ATOM     17  C   UNL     1       0.834  -0.712   3.565  0.00  0.00    +0.077 C 
ENDBRANCH   1  17
BRANCH   8  18
ATOM     18  C   UNL     1       6.090   2.445   4.996  0.00  0.00    +0.218 C 
ATOM     19  O   UNL     1       7.223   2.860   4.868  0.00  0.00    -0.275 OA
ATOM     20  N   UNL     1       5.628   2.113   6.218  0.00  0.00    -0.312 N 
ATOM     21  H   UNL     1       4.723   1.781   6.320  0.00  0.00    +0.149 HD
BRANCH  20  22
ATOM     22  C   UNL     1       6.494   2.255   7.391  0.00  0.00    +0.073 C 
ATOM     23  C   UNL     1       6.495   1.113   8.410  0.00  0.00    +0.024 C 
ATOM     24  C   UNL     1       5.816   2.441   8.750  0.00  0.00    +0.024 C 
ENDBRANCH  20  22
ENDBRANCH   8  18
TORSDOF 3
