REMARK  Name = ZINC62182190
REMARK  9 active torsions:
REMARK  status: ('A' for Active; 'I' for Inactive)
REMARK    1  A    between atoms: C_1  and  C_2
REMARK    2  A    between atoms: C_2  and  C_3
REMARK    3  A    between atoms: C_3  and  C_4
REMARK    4  A    between atoms: C_4  and  N_5
REMARK    5  A    between atoms: N_5  and  C_6
REMARK    6  A    between atoms: N_5  and  C_7
REMARK    7  A    between atoms: C_9  and  O_24
REMARK    8  A    between atoms: C_18  and  C_19
REMARK    9  A    between atoms: C_18  and  C_20
REMARK                            x       y       z     vdW  Elec       q    Type
REMARK                         _______ _______ _______ _____ _____    ______ ____
ROOT
ATOM      1  C   UNL     1      -2.872  -4.224  -0.010  0.00  0.00    +0.009 C 
ATOM      2  C   UNL     1      -2.273  -4.880  -1.257  0.00  0.00    +0.138 C 
ATOM      3  C   UNL     1      -3.099  -4.522  -2.466  0.00  0.00    +0.025 A 
ATOM      4  C   UNL     1      -2.542  -4.686  -3.725  0.00  0.00    +0.013 A 
ATOM      5  C   UNL     1      -3.267  -4.372  -4.858  0.00  0.00    +0.050 A 
ATOM      6  C   UNL     1      -4.562  -3.890  -4.740  0.00  0.00    +0.170 A 
ATOM      7  C   UNL     1      -5.124  -3.722  -3.481  0.00  0.00    +0.208 A 
ATOM      8  C   UNL     1      -4.388  -4.037  -2.340  0.00  0.00    +0.172 A 
ATOM      9  O   UNL     1      -4.968  -3.851  -1.124  0.00  0.00    -0.484 OA
ATOM     10  C   UNL     1      -4.380  -4.503   0.004  0.00  0.00    +0.096 C 
ATOM     11  C   UNL     1      -4.627  -6.010  -0.087  0.00  0.00    +0.054 C 
ATOM     12  C   UNL     1      -4.993  -3.956   1.294  0.00  0.00    +0.054 C 
ATOM     13  O   UNL     1      -6.393  -3.239  -3.629  0.00  0.00    -0.449 OA
ATOM     14  C   UNL     1      -6.455  -2.729  -4.974  0.00  0.00    +0.467 C 
ATOM     15  O   UNL     1      -5.476  -3.513  -5.681  0.00  0.00    -0.452 OA
ENDROOT
BRANCH   1  16
ATOM     16  N   UNL     1      -2.636  -2.775  -0.051  0.00  0.00    +0.384 N 
ATOM     17  C   UNL     1      -1.244  -2.494   0.327  0.00  0.00    -0.095 C 
ATOM     18  H   UNL     1      -3.260  -2.314   0.595  0.00  0.00    -0.082 HD
BRANCH  16  19
ATOM     19  C   UNL     1      -2.884  -2.277  -1.411  0.00  0.00    -0.079 C 
BRANCH  19  20
ATOM     20  C   UNL     1      -2.519  -0.793  -1.485  0.00  0.00    -0.019 C 
BRANCH  20  22
ATOM     21  C   UNL     1      -2.412   1.210  -2.975  0.00  0.00    +0.004 C 
ATOM     22  C   UNL     1      -2.776  -0.274  -2.901  0.00  0.00    -0.005 C 
ENDBRANCH  20  22
ENDBRANCH  19  20
ENDBRANCH  16  19
ENDBRANCH   1  16
BRANCH   2  23
ATOM     23  O   UNL     1      -0.934  -4.415  -1.442  0.00  0.00    -0.389 OA
ATOM     24  H   UNL     1      -0.491  -4.790  -2.216  0.00  0.00    +0.210 HD
ENDBRANCH   2  23
TORSDOF 5
