REMARK  Name = ZINC61693482
REMARK  3 active torsions:
REMARK  status: ('A' for Active; 'I' for Inactive)
REMARK    1  A    between atoms: C_4  and  N_8
REMARK    2  A    between atoms: C_9  and  C_11
REMARK    3  A    between atoms: C_13  and  N_18
REMARK                            x       y       z     vdW  Elec       q    Type
REMARK                         _______ _______ _______ _____ _____    ______ ____
ROOT
ATOM      1  N   UNL     1       3.622  -0.652  -0.037  0.00  0.00    -0.280 N 
ATOM      2  C   UNL     1       3.645  -1.996   0.058  0.00  0.00    +0.248 C 
ATOM      3  O   UNL     1       2.604  -2.622   0.065  0.00  0.00    -0.270 OA
ATOM      4  H   UNL     1       4.452  -0.157  -0.123  0.00  0.00    +0.155 HD
ENDROOT
BRANCH   1   8
ATOM      5  C   UNL     1      -0.015   1.381   0.043  0.00  0.00    +0.017 A 
ATOM      6  C   UNL     1       1.083   1.955  -0.572  0.00  0.00    +0.023 A 
ATOM      7  C   UNL     1       2.290   1.284  -0.600  0.00  0.00    +0.062 A 
ATOM      8  C   UNL     1       2.401   0.031  -0.010  0.00  0.00    +0.053 A 
ATOM      9  C   UNL     1       1.297  -0.543   0.607  0.00  0.00    +0.040 A 
ATOM     10  C   UNL     1       0.092   0.134   0.631  0.00  0.00    +0.020 A 
ATOM     11 BR   UNL     1      -1.412  -0.647   1.470  0.00  0.00    -0.050 Br
ATOM     12 CL   UNL     1       3.668   2.006  -1.372  0.00  0.00    -0.082 Cl
ENDBRANCH   1   8
BRANCH   2  13
ATOM     13  C   UNL     1       4.939  -2.710   0.153  0.00  0.00    +0.043 A 
ATOM     14  C   UNL     1       4.985  -4.102   0.245  0.00  0.00    +0.056 A 
ATOM     15  C   UNL     1       6.222  -4.731   0.332  0.00  0.00    +0.119 A 
ATOM     16  N   UNL     1       7.341  -4.025   0.327  0.00  0.00    -0.221 NA
ATOM     17  C   UNL     1       7.336  -2.708   0.241  0.00  0.00    +0.132 A 
ATOM     18  C   UNL     1       6.149  -2.006   0.146  0.00  0.00    +0.053 A 
ATOM     19 CL   UNL     1       8.842  -1.845   0.240  0.00  0.00    -0.062 Cl
BRANCH  15  20
ATOM     20  N   UNL     1       6.283  -6.117   0.425  0.00  0.00    -0.343 N 
ATOM     21  H   UNL     1       5.466  -6.639   0.429  0.00  0.00    +0.144 HD
ATOM     22  H   UNL     1       7.143  -6.561   0.486  0.00  0.00    +0.144 HD
ENDBRANCH  15  20
ENDBRANCH   2  13
TORSDOF 3
