REMARK  Name = ZINC13009806
REMARK  6 active torsions:
REMARK  status: ('A' for Active; 'I' for Inactive)
REMARK    1  A    between atoms: C_1  and  C_2
REMARK    2  A    between atoms: C_4  and  C_23
REMARK    3  A    between atoms: C_6  and  N_13
REMARK    4  A    between atoms: C_14  and  C_16
REMARK    5  A    between atoms: C_16  and  S_17
REMARK    6  A    between atoms: S_17  and  C_18
REMARK                            x       y       z     vdW  Elec       q    Type
REMARK                         _______ _______ _______ _____ _____    ______ ____
ROOT
ATOM      1  C   UNL     1      -0.018   1.503   0.010  0.00  0.00    +0.068 C 
ATOM      2  C   UNL     1       0.002  -0.004   0.002  0.00  0.00    +0.070 A 
ATOM      3  C   UNL     1      -1.255  -0.757   0.004  0.00  0.00    +0.053 A 
ATOM      4  C   UNL     1      -2.573  -0.464   0.012  0.00  0.00    +0.114 A 
ATOM      5  O   UNL     1      -3.280  -1.609   0.009  0.00  0.00    -0.445 OA
ATOM      6  C   UNL     1      -2.473  -2.681  -0.001  0.00  0.00    +0.206 A 
ATOM      7  C   UNL     1      -1.172  -2.239  -0.005  0.00  0.00    +0.110 A 
ATOM      8  C   UNL     1       0.157  -2.841  -0.015  0.00  0.00    +0.277 A 
ATOM      9  O   UNL     1       0.291  -4.051  -0.023  0.00  0.00    -0.266 OA
ATOM     10  N   UNL     1       1.236  -2.029  -0.016  0.00  0.00    -0.242 N 
ATOM     11  H   UNL     1       2.119  -2.430  -0.023  0.00  0.00    +0.192 HD
ATOM     12  N   UNL     1       1.133  -0.640  -0.012  0.00  0.00    -0.175 NA
ATOM     13  C   UNL     1      -3.158   0.924   0.023  0.00  0.00    +0.087 C 
ENDROOT
BRANCH   6  14
ATOM     14  N   UNL     1      -2.880  -4.005  -0.006  0.00  0.00    -0.255 N 
ATOM     15  C   UNL     1      -4.194  -4.305  -0.001  0.00  0.00    +0.230 C 
ATOM     16  O   UNL     1      -5.019  -3.416   0.008  0.00  0.00    -0.274 OA
ATOM     17  H   UNL     1      -2.220  -4.715  -0.013  0.00  0.00    +0.158 HD
BRANCH  15  18
ATOM     18  C   UNL     1      -4.638  -5.745  -0.007  0.00  0.00    +0.172 C 
BRANCH  18  19
ATOM     19  S   UNL     1      -6.450  -5.819   0.002  0.00  0.00    -0.088 S 
BRANCH  19  20
ATOM     20  C   UNL     1      -6.806  -7.545  -0.005  0.00  0.00    +0.159 A 
ATOM     21  N   UNL     1      -5.984  -8.587  -0.009  0.00  0.00    -0.135 NA
ATOM     22  N   UNL     1      -6.413  -9.773  -0.014  0.00  0.00    -0.149 NA
ATOM     23  C   UNL     1      -7.701 -10.053  -0.016  0.00  0.00    +0.182 A 
ATOM     24  S   UNL     1      -8.381  -8.397  -0.002  0.00  0.00    -0.048 S 
ENDBRANCH  19  20
ENDBRANCH  18  19
ENDBRANCH  15  18
ENDBRANCH   6  14
TORSDOF 4
