REMARK  Name = ZINC65181235
REMARK  8 active torsions:
REMARK  status: ('A' for Active; 'I' for Inactive)
REMARK    1  A    between atoms: C_1  and  C_2
REMARK    2  A    between atoms: N_7  and  C_10
REMARK    3  A    between atoms: C_12  and  C_13
REMARK    4  A    between atoms: N_15  and  N_16
REMARK    5  A    between atoms: N_19  and  C_20
REMARK    6  A    between atoms: C_20  and  C_21
REMARK    7  A    between atoms: C_21  and  C_22
REMARK    8  A    between atoms: C_21  and  C_23
REMARK                            x       y       z     vdW  Elec       q    Type
REMARK                         _______ _______ _______ _____ _____    ______ ____
ROOT
ATOM      1  C   UNL     1       0.030  -0.168   2.547  0.00  0.00    +0.267 C 
ATOM      2  O   UNL     1       0.015   1.034   2.738  0.00  0.00    -0.268 OA
ATOM      3  N   UNL     1       0.051  -1.016   3.595  0.00  0.00    -0.229 N 
ATOM      4  H   UNL     1       0.063  -1.974   3.443  0.00  0.00    +0.173 HD
ENDROOT
BRANCH   1  16
ATOM      5  C   UNL     1      -0.018   1.503   0.010  0.00  0.00    +0.046 C 
ATOM      6  C   UNL     1       0.002  -0.004   0.002  0.00  0.00    -0.017 A 
ATOM      7  C   UNL     1       0.005  -0.697  -1.210  0.00  0.00    +0.076 A 
ATOM      8  C   UNL     1       0.025  -2.107  -1.113  0.00  0.00    +0.116 A 
ATOM      9  N   UNL     1       0.029  -2.884  -2.189  0.00  0.00    -0.230 NA
ATOM     10  C   UNL     1       0.015  -2.382  -3.395  0.00  0.00    +0.203 A 
ATOM     11  N   UNL     1      -0.004  -1.044  -3.614  0.00  0.00    -0.302 N 
ATOM     12  C   UNL     1      -0.009  -0.166  -2.592  0.00  0.00    +0.262 A 
ATOM     13  O   UNL     1      -0.026   1.034  -2.800  0.00  0.00    -0.267 OA
ATOM     14  C   UNL     1      -0.019  -0.543  -4.991  0.00  0.00    +0.153 C 
ATOM     15  S   UNL     1       0.038  -2.395   0.638  0.00  0.00    -0.064 S 
ATOM     16  C   UNL     1       0.023  -0.694   1.179  0.00  0.00    +0.081 A 
ENDBRANCH   1  16
BRANCH   3  17
ATOM     17  N   UNL     1       0.058  -0.514   4.903  0.00  0.00    -0.218 N 
ATOM     18  C   UNL     1       0.080  -1.362   5.950  0.00  0.00    +0.316 C 
ATOM     19  O   UNL     1       0.085  -0.927   7.085  0.00  0.00    -0.251 OA
ATOM     20  N   UNL     1       0.096  -2.693   5.739  0.00  0.00    -0.298 N 
ATOM     21  H   UNL     1       0.046   0.444   5.055  0.00  0.00    +0.174 HD
ATOM     22  H   UNL     1       0.091  -3.041   4.833  0.00  0.00    +0.150 HD
BRANCH  20  23
ATOM     23  C   UNL     1       0.119  -3.615   6.877  0.00  0.00    +0.108 C 
BRANCH  23  24
ATOM     24  C   UNL     1       0.134  -5.057   6.366  0.00  0.00    -0.000 C 
ATOM     25  C   UNL     1       0.284  -6.016   7.548  0.00  0.00    +0.009 C 
ATOM     26  C   UNL     1      -1.177  -5.352   5.634  0.00  0.00    +0.009 C 
ENDBRANCH  23  24
ENDBRANCH  20  23
ENDBRANCH   3  17
TORSDOF 4
