REMARK  Name = ZINC14458979
REMARK  7 active torsions:
REMARK  status: ('A' for Active; 'I' for Inactive)
REMARK    1  A    between atoms: C_1  and  O_2
REMARK    2  A    between atoms: O_2  and  C_3
REMARK    3  A    between atoms: C_6  and  N_28
REMARK    4  A    between atoms: C_10  and  C_19
REMARK    5  A    between atoms: C_22  and  O_27
REMARK    6  A    between atoms: C_23  and  O_25
REMARK    7  A    between atoms: O_25  and  C_26
REMARK                            x       y       z     vdW  Elec       q    Type
REMARK                         _______ _______ _______ _____ _____    ______ ____
ROOT
ATOM      1  C   UNL     1       4.510   4.352  -3.449  0.00  0.00    +0.141 A 
ATOM      2  C   UNL     1       4.272   3.741  -4.667  0.00  0.00    +0.050 A 
ATOM      3  C   UNL     1       4.611   2.412  -4.845  0.00  0.00    +0.037 A 
ATOM      4  C   UNL     1       5.183   1.700  -3.811  0.00  0.00    +0.132 A 
ATOM      5  C   UNL     1       5.426   2.304  -2.582  0.00  0.00    +0.014 A 
ATOM      6  C   UNL     1       5.091   3.630  -2.401  0.00  0.00    +0.076 A 
ATOM      7  N   UNL     1       5.314   4.295  -1.192  0.00  0.00    -0.334 N 
ATOM      8  C   UNL     1       5.285   3.373  -0.055  0.00  0.00    +0.105 C 
ATOM      9  C   UNL     1       6.340   2.293  -0.237  0.00  0.00    +0.029 C 
ATOM     10  C   UNL     1       6.051   1.460  -1.503  0.00  0.00    +0.051 C 
ATOM     11  C   UNL     1       7.438   1.050  -1.971  0.00  0.00    -0.023 C 
ATOM     12  C   UNL     1       8.345   1.858  -1.485  0.00  0.00    -0.030 C 
ATOM     13  C   UNL     1       7.699   2.926  -0.623  0.00  0.00    +0.033 C 
ATOM     14  H   UNL     1       4.652   5.046  -1.065  0.00  0.00    +0.147 HD
ENDROOT
BRANCH   8  15
ATOM     15  C   UNL     1       3.924   2.733   0.035  0.00  0.00    -0.023 A 
ATOM     16  C   UNL     1       2.806   3.427  -0.387  0.00  0.00    +0.009 A 
ATOM     17  C   UNL     1       1.555   2.844  -0.306  0.00  0.00    +0.049 A 
ATOM     18  C   UNL     1       1.420   1.561   0.199  0.00  0.00    +0.158 A 
ATOM     19  C   UNL     1       2.545   0.864   0.629  0.00  0.00    +0.162 A 
ATOM     20  C   UNL     1       3.797   1.452   0.540  0.00  0.00    +0.054 A 
BRANCH  19  21
ATOM     21  O   UNL     1       2.417  -0.394   1.130  0.00  0.00    -0.491 OA
ATOM     22  C   UNL     1       3.615  -1.049   1.552  0.00  0.00    +0.277 C 
ENDBRANCH  19  21
BRANCH  18  23
ATOM     23  O   UNL     1       0.190   0.986   0.279  0.00  0.00    -0.503 OA
ATOM     24  H   UNL     1      -0.064   0.489  -0.511  0.00  0.00    +0.292 HD
ENDBRANCH  18  23
ENDBRANCH   8  15
BRANCH   4  25
ATOM     25  N   UNL     1       5.542   0.278  -4.011  0.00  0.00    +0.057 N 
ATOM     26  O   UNL     1       5.998  -0.090  -5.079  0.00  0.00    -0.126 OA
ATOM     27  O   UNL     1       5.381  -0.524  -3.109  0.00  0.00    -0.126 OA
ENDBRANCH   4  25
BRANCH   1  29
ATOM     28  C   UNL     1       3.588   6.336  -4.381  0.00  0.00    +0.277 C 
ATOM     29  O   UNL     1       4.178   5.659  -3.270  0.00  0.00    -0.493 OA
ENDBRANCH   1  29
TORSDOF 5
