REMARK  Name = ZINC39934749
REMARK  7 active torsions:
REMARK  status: ('A' for Active; 'I' for Inactive)
REMARK    1  A    between atoms: C_1  and  O_2
REMARK    2  A    between atoms: O_2  and  C_3
REMARK    3  A    between atoms: C_6  and  C_30
REMARK    4  A    between atoms: C_8  and  N_9
REMARK    5  A    between atoms: C_10  and  C_12
REMARK    6  A    between atoms: C_12  and  N_13
REMARK    7  A    between atoms: C_17  and  C_18
REMARK                            x       y       z     vdW  Elec       q    Type
REMARK                         _______ _______ _______ _____ _____    ______ ____
ROOT
ATOM      1  N   UNL     1      -0.544  -6.368   0.450  0.00  0.00    -0.219 N 
ATOM      2  C   UNL     1      -1.476  -6.912  -0.315  0.00  0.00    +0.261 C 
ATOM      3  O   UNL     1      -2.418  -6.267  -0.734  0.00  0.00    -0.269 OA
ATOM      4  C   UNL     1      -1.308  -8.352  -0.636  0.00  0.00    +0.080 C 
ATOM      5  C   UNL     1      -2.103  -9.182  -1.399  0.00  0.00    +0.026 C 
ATOM      6  S   UNL     1       0.208  -8.715   0.238  0.00  0.00    -0.026 S 
ATOM      7  C   UNL     1       0.501  -7.086   0.907  0.00  0.00    +0.286 C 
ATOM      8  O   UNL     1       1.422  -6.713   1.608  0.00  0.00    -0.262 OA
ENDROOT
BRANCH   5   9
ATOM      9  C   UNL     1      -1.751 -10.524  -1.571  0.00  0.00    -0.018 C 
ATOM     10  C   UNL     1      -2.436 -11.487  -2.310  0.00  0.00    +0.003 A 
ATOM     11  C   UNL     1      -3.622 -11.439  -3.074  0.00  0.00    +0.010 A 
ATOM     12  C   UNL     1      -4.065 -12.558  -3.700  0.00  0.00    +0.001 A 
ATOM     13  C   UNL     1      -3.373 -13.772  -3.611  0.00  0.00    +0.002 A 
ATOM     14  C   UNL     1      -2.230 -13.892  -2.896  0.00  0.00    +0.026 A 
ATOM     15  C   UNL     1      -1.702 -12.763  -2.211  0.00  0.00    +0.043 A 
ATOM     16  N   UNL     1      -0.630 -12.621  -1.465  0.00  0.00    -0.380 N 
ATOM     17  C   UNL     1      -0.543 -11.233  -1.000  0.00  0.00    +0.149 C 
ATOM     18  H   UNL     1       0.006 -13.323  -1.258  0.00  0.00    +0.160 HD
ENDBRANCH   5   9
BRANCH   1  19
ATOM     19  C   UNL     1      -0.648  -4.951   0.806  0.00  0.00    +0.213 C 
BRANCH  19  21
ATOM     20  N   UNL     1       0.095  -2.777  -0.112  0.00  0.00    -0.281 N 
ATOM     21  C   UNL     1       0.060  -4.119  -0.233  0.00  0.00    +0.235 C 
ATOM     22  O   UNL     1       0.599  -4.658  -1.176  0.00  0.00    -0.274 OA
ATOM     23  H   UNL     1      -0.265  -2.352   0.681  0.00  0.00    +0.155 HD
BRANCH  20  29
ATOM     24  C   UNL     1       1.159  -0.731  -0.849  0.00  0.00    +0.141 A 
ATOM     25  C   UNL     1       1.713   0.034  -1.862  0.00  0.00    +0.048 A 
ATOM     26  C   UNL     1       1.756  -0.456  -3.154  0.00  0.00    +0.016 A 
ATOM     27  C   UNL     1       1.248  -1.710  -3.439  0.00  0.00    +0.057 A 
ATOM     28  C   UNL     1       0.694  -2.480  -2.434  0.00  0.00    +0.039 A 
ATOM     29  C   UNL     1       0.652  -1.997  -1.134  0.00  0.00    +0.076 A 
BRANCH  27  30
ATOM     30  C   UNL     1       1.298  -2.238  -4.850  0.00  0.00    +0.417 C 
ATOM     31  F   UNL     1       1.897  -1.288  -5.683  0.00  0.00    -0.166 F 
ATOM     32  F   UNL     1       2.044  -3.421  -4.879  0.00  0.00    -0.166 F 
ATOM     33  F   UNL     1      -0.003  -2.496  -5.297  0.00  0.00    -0.166 F 
ENDBRANCH  27  30
BRANCH  24  35
ATOM     34  C   UNL     1       1.655   1.055   0.641  0.00  0.00    +0.277 C 
ATOM     35  O   UNL     1       1.116  -0.251   0.423  0.00  0.00    -0.493 OA
ENDBRANCH  24  35
ENDBRANCH  20  29
ENDBRANCH  19  21
ENDBRANCH   1  19
TORSDOF 6
