REMARK  Name = ZINC12924568
REMARK  8 active torsions:
REMARK  status: ('A' for Active; 'I' for Inactive)
REMARK    1  A    between atoms: C_1  and  C_2
REMARK    2  A    between atoms: C_2  and  C_3
REMARK    3  A    between atoms: C_2  and  S_13
REMARK    4  A    between atoms: N_5  and  C_6
REMARK    5  A    between atoms: C_6  and  C_7
REMARK    6  A    between atoms: S_13  and  C_14
REMARK    7  A    between atoms: N_21  and  C_29
REMARK    8  A    between atoms: C_24  and  C_26
REMARK                            x       y       z     vdW  Elec       q    Type
REMARK                         _______ _______ _______ _____ _____    ______ ____
ROOT
ATOM      1  C   UNL     1      -2.422   0.049  -1.451  0.00  0.00    +0.116 A 
ATOM      2  C   UNL     1      -3.717  -0.319  -1.847  0.00  0.00    +0.116 A 
ATOM      3  C   UNL     1      -4.594  -1.159  -1.024  0.00  0.00    +0.288 A 
ATOM      4  O   UNL     1      -4.223  -1.579   0.060  0.00  0.00    -0.265 OA
ATOM      5  N   UNL     1      -5.818  -1.454  -1.497  0.00  0.00    -0.153 NA
ATOM      6  C   UNL     1      -6.231  -1.008  -2.660  0.00  0.00    +0.353 A 
ATOM      7  O   UNL     1      -7.470  -1.342  -3.072  0.00  0.00    -0.244 OA
ATOM      8  N   UNL     1      -5.469  -0.227  -3.470  0.00  0.00    -0.273 N 
ATOM      9  C   UNL     1      -4.199   0.137  -3.088  0.00  0.00    +0.155 A 
ATOM     10  N   UNL     1      -3.415   0.898  -3.840  0.00  0.00    -0.214 NA
ATOM     11  C   UNL     1      -2.204   1.221  -3.429  0.00  0.00    +0.136 A 
ATOM     12  N   UNL     1      -1.711   0.822  -2.273  0.00  0.00    -0.225 NA
ENDROOT
BRANCH  11  13
ATOM     13  C   UNL     1      -1.348   2.087  -4.317  0.00  0.00    +0.057 C 
ATOM     14  C   UNL     1       0.116   2.280  -3.917  0.00  0.00    +0.012 C 
ATOM     15  C   UNL     1      -0.880   3.430  -3.755  0.00  0.00    +0.012 C 
ENDBRANCH  11  13
BRANCH   8  16
ATOM     16  C   UNL     1      -6.003   0.230  -4.755  0.00  0.00    +0.094 C 
ATOM     17  C   UNL     1      -5.838   1.711  -5.102  0.00  0.00    +0.027 C 
ATOM     18  C   UNL     1      -7.216   1.162  -4.725  0.00  0.00    +0.027 C 
ENDBRANCH   8  16
BRANCH   1  19
ATOM     19  S   UNL     1      -1.758  -0.488   0.090  0.00  0.00    -0.093 S 
BRANCH  19  21
ATOM     20  C   UNL     1      -0.217   1.771   0.180  0.00  0.00    +0.029 C 
ATOM     21  C   UNL     1      -0.100   0.246   0.133  0.00  0.00    +0.135 C 
BRANCH  21  22
ATOM     22  C   UNL     1       0.633  -0.239   1.357  0.00  0.00    +0.226 C 
ATOM     23  O   UNL     1       0.012  -0.692   2.296  0.00  0.00    -0.275 OA
ATOM     24  N   UNL     1       1.978  -0.170   1.409  0.00  0.00    -0.314 N 
ATOM     25  H   UNL     1       2.474   0.192   0.659  0.00  0.00    +0.149 HD
BRANCH  24  26
ATOM     26  C   UNL     1       2.690  -0.642   2.600  0.00  0.00    +0.107 C 
BRANCH  26  27
ATOM     27  C   UNL     1       4.195  -0.453   2.402  0.00  0.00    +0.006 C 
ATOM     28  C   UNL     1       4.676  -1.351   1.260  0.00  0.00    +0.005 C 
ATOM     29  C   UNL     1       6.182  -1.162   1.062  0.00  0.00    +0.000 C 
ATOM     30  C   UNL     1       6.917  -1.537   2.350  0.00  0.00    +0.000 C 
ATOM     31  C   UNL     1       6.436  -0.639   3.492  0.00  0.00    +0.000 C 
ATOM     32  C   UNL     1       4.930  -0.828   3.690  0.00  0.00    +0.005 C 
ENDBRANCH  26  27
ENDBRANCH  24  26
ENDBRANCH  21  22
ENDBRANCH  19  21
ENDBRANCH   1  19
TORSDOF 7
