REMARK  Name = ZINC19496579
REMARK  3 active torsions:
REMARK  status: ('A' for Active; 'I' for Inactive)
REMARK    1  A    between atoms: C_1  and  C_2
REMARK    2  A    between atoms: N_19  and  C_21
REMARK    3  A    between atoms: C_21  and  C_22
REMARK                            x       y       z     vdW  Elec       q    Type
REMARK                         _______ _______ _______ _____ _____    ______ ____
ROOT
ATOM      1  C   UNL     1       2.904   8.637  -8.708  0.00  0.00    +0.009 C 
ATOM      2  C   UNL     1       1.863   7.516  -8.720  0.00  0.00    +0.003 C 
ATOM      3  C   UNL     1       0.541   8.051  -9.277  0.00  0.00    +0.006 C 
ATOM      4  C   UNL     1      -0.511   6.940  -9.229  0.00  0.00    +0.019 C 
ATOM      5  C   UNL     1      -0.664   6.450  -7.788  0.00  0.00    +0.108 C 
ATOM      6  N   UNL     1       0.627   5.947  -7.301  0.00  0.00    -0.301 N 
ATOM      7  C   UNL     1       1.641   7.009  -7.293  0.00  0.00    +0.111 C 
ATOM      8  C   UNL     1       0.498   5.383  -6.061  0.00  0.00    +0.198 A 
ATOM      9  N   UNL     1      -0.323   4.310  -5.895  0.00  0.00    -0.295 N 
ATOM     10  H   UNL     1      -0.874   3.902  -6.755  0.00  0.00    +0.172 HD
ATOM     11  C   UNL     1      -0.454   3.754  -4.673  0.00  0.00    +0.254 A 
ATOM     12  O   UNL     1      -1.184   2.792  -4.506  0.00  0.00    -0.268 OA
ATOM     13  C   UNL     1       0.267   4.302  -3.593  0.00  0.00    +0.022 A 
ATOM     14  C   UNL     1       1.077   5.371  -3.817  0.00  0.00    +0.050 A 
ATOM     15  N   UNL     1       1.170   5.886  -5.047  0.00  0.00    -0.221 NA
ATOM     16  C   UNL     1       1.887   5.997  -2.712  0.00  0.00    +0.037 C 
ATOM     17  C   UNL     1       1.342   5.559  -1.352  0.00  0.00    -0.072 C 
ATOM     18  N   UNL     1       1.212   4.093  -1.352  0.00  0.00    +0.386 N 
ATOM     19  C   UNL     1       0.112   3.683  -2.231  0.00  0.00    -0.035 C 
ATOM     20  H   UNL     1       2.145   3.657  -1.738  0.00  0.00    -0.081 HD
ENDROOT
BRANCH  18  21
ATOM     21  C   UNL     1       1.014   3.582   0.012  0.00  0.00    -0.036 C 
BRANCH  21  22
ATOM     22  C   UNL     1       1.104   2.078   0.003  0.00  0.00    +0.018 A 
ATOM     23  C   UNL     1      -0.016   1.333   0.009  0.00  0.00    +0.201 A 
ATOM     24  O   UNL     1       0.002  -0.004   0.002  0.00  0.00    -0.462 OA
ATOM     25  C   UNL     1       1.150  -0.711  -0.013  0.00  0.00    +0.138 A 
ATOM     26  C   UNL     1       1.135  -2.101  -0.021  0.00  0.00    +0.047 A 
ATOM     27  C   UNL     1       2.322  -2.801  -0.036  0.00  0.00    +0.004 A 
ATOM     28  C   UNL     1       3.539  -2.134  -0.044  0.00  0.00    +0.001 A 
ATOM     29  C   UNL     1       3.576  -0.757  -0.037  0.00  0.00    +0.015 A 
ATOM     30  C   UNL     1       2.382  -0.037  -0.021  0.00  0.00    +0.064 A 
ATOM     31  C   UNL     1       2.372   1.438  -0.012  0.00  0.00    +0.194 A 
ATOM     32  O   UNL     1       3.408   2.081  -0.018  0.00  0.00    -0.287 OA
ENDBRANCH  21  22
ENDBRANCH  18  21
TORSDOF 2
