REMARK  Name = ZINC04242914
REMARK  6 active torsions:
REMARK  status: ('A' for Active; 'I' for Inactive)
REMARK    1  A    between atoms: C_4  and  N_20
REMARK    2  A    between atoms: C_6  and  N_7
REMARK    3  A    between atoms: C_8  and  C_10
REMARK    4  A    between atoms: C_10  and  O_11
REMARK    5  A    between atoms: O_11  and  C_12
REMARK    6  A    between atoms: C_12  and  C_14
REMARK                            x       y       z     vdW  Elec       q    Type
REMARK                         _______ _______ _______ _____ _____    ______ ____
ROOT
ATOM      1  N   UNL     1       8.358   1.132  -0.071  0.00  0.00    -0.283 N 
ATOM      2  C   UNL     1       7.027   1.341  -0.059  0.00  0.00    +0.255 C 
ATOM      3  O   UNL     1       6.590   2.473  -0.058  0.00  0.00    -0.272 OA
ATOM      4  H   UNL     1       8.708   0.230  -0.004  0.00  0.00    +0.155 HD
ENDROOT
BRANCH   1  10
ATOM      5  C   UNL     1      10.425   2.082  -0.882  0.00  0.00    +0.025 A 
ATOM      6  C   UNL     1      11.287   3.155  -0.992  0.00  0.00    +0.024 A 
ATOM      7  C   UNL     1      10.971   4.362  -0.393  0.00  0.00    +0.071 A 
ATOM      8  C   UNL     1       9.789   4.498   0.314  0.00  0.00    +0.146 A 
ATOM      9  C   UNL     1       8.921   3.429   0.421  0.00  0.00    +0.057 A 
ATOM     10  C   UNL     1       9.236   2.217  -0.179  0.00  0.00    +0.036 A 
ATOM     11 CL   UNL     1      12.060   5.707  -0.527  0.00  0.00    -0.081 Cl
BRANCH   8  12
ATOM     12  N   UNL     1       9.454   5.790   0.953  0.00  0.00    +0.058 N 
ATOM     13  O   UNL     1       8.413   5.910   1.574  0.00  0.00    -0.126 OA
ATOM     14  O   UNL     1      10.219   6.733   0.858  0.00  0.00    -0.126 OA
ENDBRANCH   8  12
ENDBRANCH   1  10
BRANCH   2  15
ATOM     15  C   UNL     1       6.080   0.168  -0.048  0.00  0.00    +0.328 C 
BRANCH  15  16
ATOM     16  O   UNL     1       4.732   0.644  -0.036  0.00  0.00    -0.451 OA
BRANCH  16  17
ATOM     17  C   UNL     1       3.755  -0.286  -0.025  0.00  0.00    +0.346 C 
ATOM     18  O   UNL     1       4.040  -1.468  -0.025  0.00  0.00    -0.244 OA
BRANCH  17  19
ATOM     19  C   UNL     1       2.352   0.128  -0.013  0.00  0.00    +0.098 A 
ATOM     20  C   UNL     1       1.208  -0.657  -0.001  0.00  0.00    +0.024 A 
ATOM     21  C   UNL     1       0.002  -0.005   0.009  0.00  0.00    +0.028 A 
ATOM     22  C   UNL     1      -0.016   1.356   0.007  0.00  0.00    +0.079 A 
ATOM     23  S   UNL     1       1.666   1.775  -0.010  0.00  0.00    -0.070 S 
ATOM     24 CL   UNL     1      -1.392   2.416   0.011  0.00  0.00    -0.076 Cl
ENDBRANCH  17  19
ENDBRANCH  16  17
ENDBRANCH  15  16
ENDBRANCH   2  15
TORSDOF 6
