REMARK  Name = ZINC46841140
REMARK  10 active torsions:
REMARK  status: ('A' for Active; 'I' for Inactive)
REMARK    1  A    between atoms: C_1  and  C_2
REMARK    2  A    between atoms: C_7  and  C_10
REMARK    3  A    between atoms: C_14  and  C_17
REMARK    4  A    between atoms: C_17  and  N_18
REMARK    5  A    between atoms: C_19  and  C_21
REMARK    6  A    between atoms: C_21  and  C_22
REMARK    7  A    between atoms: C_22  and  C_23
REMARK    8  A    between atoms: C_23  and  C_24
REMARK    9  A    between atoms: C_24  and  C_25
REMARK   10  A    between atoms: C_25  and  N_26
REMARK                            x       y       z     vdW  Elec       q    Type
REMARK                         _______ _______ _______ _____ _____    ______ ____
ROOT
ATOM      1  N   UNL     1       4.638   3.978  -5.162  0.00  0.00    -0.311 N 
ATOM      2  C   UNL     1       5.221   4.826  -6.033  0.00  0.00    +0.213 C 
ATOM      3  O   UNL     1       5.915   4.392  -6.929  0.00  0.00    -0.276 OA
ATOM      4  H   UNL     1       4.083   4.325  -4.446  0.00  0.00    +0.149 HD
ENDROOT
BRANCH   1   5
ATOM      5  C   UNL     1       4.841   2.534  -5.298  0.00  0.00    +0.141 C 
BRANCH   5  17
ATOM      6  C   UNL     1       0.016   1.546   0.045  0.00  0.00    +0.039 C 
ATOM      7  C   UNL     1       0.015   0.016   0.022  0.00  0.00    +0.133 C 
ATOM      8  C   UNL     1       0.716  -0.478  -1.248  0.00  0.00    +0.137 C 
ATOM      9  N   UNL     1       2.143  -0.135  -1.154  0.00  0.00    -0.312 N 
ATOM     10  C   UNL     1       2.865  -0.509   0.072  0.00  0.00    +0.137 C 
ATOM     11  C   UNL     1       2.060  -0.013   1.279  0.00  0.00    +0.133 C 
ATOM     12  O   UNL     1       0.711  -0.479   1.169  0.00  0.00    -0.371 OA
ATOM     13  C   UNL     1       2.684  -0.553   2.567  0.00  0.00    +0.039 C 
ATOM     14  C   UNL     1       2.791   0.524  -2.193  0.00  0.00    +0.099 A 
ATOM     15  C   UNL     1       2.117   0.757  -3.387  0.00  0.00    +0.042 A 
ATOM     16  C   UNL     1       2.773   1.413  -4.413  0.00  0.00    +0.010 A 
ATOM     17  C   UNL     1       4.087   1.816  -4.208  0.00  0.00    -0.014 A 
ATOM     18  C   UNL     1       4.694   1.552  -2.997  0.00  0.00    +0.089 A 
ATOM     19  N   UNL     1       4.042   0.928  -2.034  0.00  0.00    -0.349 N 
ATOM     20  H   UNL     1       4.491   0.759  -1.192  0.00  0.00    +0.167 HD
ENDBRANCH   5  17
ENDBRANCH   1   5
BRANCH   2  21
ATOM     21  C   UNL     1       5.012   6.311  -5.894  0.00  0.00    +0.096 C 
BRANCH  21  22
ATOM     22  C   UNL     1       5.778   7.040  -7.000  0.00  0.00    +0.009 C 
BRANCH  22  23
ATOM     23  C   UNL     1       5.566   8.549  -6.858  0.00  0.00    +0.002 C 
BRANCH  23  24
ATOM     24  C   UNL     1       6.332   9.278  -7.964  0.00  0.00    +0.019 C 
BRANCH  24  25
ATOM     25  C   UNL     1       6.119  10.786  -7.823  0.00  0.00    +0.103 C 
BRANCH  25  26
ATOM     26  N   UNL     1       6.853  11.484  -8.882  0.00  0.00    -0.327 N 
ATOM     27  C   UNL     1       6.811  12.859  -8.958  0.00  0.00    +0.150 C 
ATOM     28  N   UNL     1       6.130  13.542  -8.093  0.00  0.00    -0.113 NA
ATOM     29  S   UNL     1       6.329  15.148  -8.520  0.00  0.00    +0.101 S 
ATOM     30  O   UNL     1       5.074  15.634  -8.975  0.00  0.00    -0.146 OA
ATOM     31  O   UNL     1       7.089  15.777  -7.498  0.00  0.00    -0.146 OA
ATOM     32  C   UNL     1       7.379  14.958  -9.935  0.00  0.00    +0.123 A 
ATOM     33  C   UNL     1       7.544  13.568 -10.018  0.00  0.00    +0.043 A 
ATOM     34  C   UNL     1       8.347  13.074 -11.057  0.00  0.00    +0.013 A 
ATOM     35  C   UNL     1       8.943  13.940 -11.946  0.00  0.00    +0.001 A 
ATOM     36  C   UNL     1       8.765  15.307 -11.837  0.00  0.00    +0.002 A 
ATOM     37  C   UNL     1       7.966  15.813 -10.820  0.00  0.00    +0.030 A 
ATOM     38  H   UNL     1       7.368  10.978  -9.529  0.00  0.00    +0.148 HD
ENDBRANCH  25  26
ENDBRANCH  24  25
ENDBRANCH  23  24
ENDBRANCH  22  23
ENDBRANCH  21  22
ENDBRANCH   2  21
TORSDOF 8
