REMARK  Name = ZINC63161446
REMARK  5 active torsions:
REMARK  status: ('A' for Active; 'I' for Inactive)
REMARK    1  A    between atoms: C_4  and  N_7
REMARK    2  A    between atoms: C_8  and  C_10
REMARK    3  A    between atoms: C_10  and  N_11
REMARK    4  A    between atoms: N_14  and  C_15
REMARK    5  A    between atoms: C_17  and  C_23
REMARK                            x       y       z     vdW  Elec       q    Type
REMARK                         _______ _______ _______ _____ _____    ______ ____
ROOT
ATOM      1  N   UNL     1       4.720  -4.163   0.238  0.00  0.00    -0.291 N 
ATOM      2  C   UNL     1       5.758  -5.017   0.336  0.00  0.00    +0.304 C 
ATOM      3  O   UNL     1       6.897  -4.590   0.345  0.00  0.00    -0.252 OA
ATOM      4  N   UNL     1       5.534  -6.343   0.424  0.00  0.00    -0.265 N 
ATOM      5  H   UNL     1       3.811  -4.503   0.232  0.00  0.00    +0.151 HD
ATOM      6  H   UNL     1       4.631  -6.688   0.347  0.00  0.00    +0.157 HD
ENDROOT
BRANCH   4   7
ATOM      7  C   UNL     1       6.607  -7.223   0.629  0.00  0.00    +0.100 A 
ATOM      8  C   UNL     1       6.640  -8.028   1.734  0.00  0.00    +0.042 A 
ATOM      9  C   UNL     1       7.724  -8.900   1.914  0.00  0.00    +0.073 A 
ATOM     10  C   UNL     1       8.721  -8.937   1.001  0.00  0.00    +0.098 A 
ATOM     11  N   UNL     1       8.691  -8.136  -0.098  0.00  0.00    -0.327 N 
ATOM     12  H   UNL     1       9.415  -8.177  -0.741  0.00  0.00    +0.168 HD
ATOM     13  C   UNL     1       7.662  -7.292  -0.306  0.00  0.00    +0.270 A 
ATOM     14  O   UNL     1       7.646  -6.583  -1.300  0.00  0.00    -0.266 OA
BRANCH   9  15
ATOM     15  C   UNL     1       7.778  -9.795   3.125  0.00  0.00    +0.419 C 
ATOM     16  F   UNL     1       8.944 -10.566   3.083  0.00  0.00    -0.166 F 
ATOM     17  F   UNL     1       7.777  -9.011   4.284  0.00  0.00    -0.166 F 
ATOM     18  F   UNL     1       6.662 -10.638   3.132  0.00  0.00    -0.166 F 
ENDBRANCH   9  15
ENDBRANCH   4   7
BRANCH   1  19
ATOM     19  C   UNL     1       4.963  -2.721   0.142  0.00  0.00    +0.202 C 
BRANCH  19  21
ATOM     20  N   UNL     1       3.623  -0.651  -0.054  0.00  0.00    -0.284 N 
ATOM     21  C   UNL     1       3.646  -1.995   0.044  0.00  0.00    +0.234 C 
ATOM     22  O   UNL     1       2.607  -2.620   0.053  0.00  0.00    -0.274 OA
ATOM     23  H   UNL     1       4.453  -0.158  -0.146  0.00  0.00    +0.155 HD
BRANCH  20  27
ATOM     24  C   UNL     1      -0.011   1.384   0.041  0.00  0.00    +0.000 A 
ATOM     25  C   UNL     1       0.104   0.148   0.652  0.00  0.00    +0.002 A 
ATOM     26  C   UNL     1       1.308  -0.529   0.622  0.00  0.00    +0.023 A 
ATOM     27  C   UNL     1       2.403   0.032  -0.022  0.00  0.00    +0.033 A 
ATOM     28  C   UNL     1       2.284   1.272  -0.635  0.00  0.00    +0.023 A 
ATOM     29  C   UNL     1       1.078   1.945  -0.602  0.00  0.00    +0.002 A 
ENDBRANCH  20  27
ENDBRANCH  19  21
ENDBRANCH   1  19
TORSDOF 5
