REMARK  Name = ZINC39770594
REMARK  10 active torsions:
REMARK  status: ('A' for Active; 'I' for Inactive)
REMARK    1  A    between atoms: C_1  and  C_2
REMARK    2  A    between atoms: C_2  and  C_3
REMARK    3  A    between atoms: C_3  and  C_4
REMARK    4  A    between atoms: C_4  and  N_5
REMARK    5  A    between atoms: C_6  and  N_28
REMARK    6  A    between atoms: C_7  and  C_15
REMARK    7  A    between atoms: C_8  and  C_14
REMARK    8  A    between atoms: C_9  and  C_12
REMARK    9  A    between atoms: N_19  and  C_23
REMARK   10  A    between atoms: C_31  and  C_34
REMARK                            x       y       z     vdW  Elec       q    Type
REMARK                         _______ _______ _______ _____ _____    ______ ____
ROOT
ATOM      1  N   UNL     1       1.973  -2.555  -2.579  0.00  0.00    -0.295 N 
ATOM      2  C   UNL     1       1.107  -2.729  -3.611  0.00  0.00    +0.112 A 
ATOM      3  C   UNL     1       1.477  -3.494  -4.730  0.00  0.00    +0.019 A 
ATOM      4  C   UNL     1       2.753  -4.079  -4.777  0.00  0.00    -0.017 A 
ATOM      5  C   UNL     1       3.622  -3.884  -3.706  0.00  0.00    +0.120 A 
ATOM      6  C   UNL     1       3.202  -3.100  -2.602  0.00  0.00    +0.270 A 
ATOM      7  O   UNL     1       3.960  -2.922  -1.664  0.00  0.00    -0.266 OA
ATOM      8  C   UNL     1       3.175  -4.904  -5.965  0.00  0.00    +0.046 C 
ENDROOT
BRANCH   3   9
ATOM      9  C   UNL     1       0.539  -3.679  -5.839  0.00  0.00    +0.032 C 
ATOM     10  C   UNL     1       0.816  -3.147  -7.061  0.00  0.00    +0.077 C 
ATOM     11  C   UNL     1       1.891  -2.295  -7.458  0.00  0.00    +0.259 C 
ATOM     12  O   UNL     1       2.736  -1.936  -6.657  0.00  0.00    -0.269 OA
ATOM     13  N   UNL     1       1.942  -1.908  -8.721  0.00  0.00    -0.252 N 
ATOM     14  C   UNL     1       1.004  -2.306  -9.609  0.00  0.00    +0.121 C 
ATOM     15  S   UNL     1       0.875  -1.930 -11.274  0.00  0.00    -0.027 S 
ATOM     16  S   UNL     1      -0.063  -3.330  -8.607  0.00  0.00    -0.061 S 
BRANCH  13  17
ATOM     17  C   UNL     1       3.030  -1.033  -9.164  0.00  0.00    +0.083 C 
ATOM     18  C   UNL     1       2.454   0.258  -9.780  0.00  0.00    +0.023 C 
ATOM     19  C   UNL     1       3.407   0.576 -10.958  0.00  0.00    +0.002 C 
ATOM     20  C   UNL     1       3.731  -0.829 -11.524  0.00  0.00    +0.002 C 
ATOM     21  C   UNL     1       3.843  -1.724 -10.273  0.00  0.00    +0.023 C 
ENDBRANCH  13  17
ENDBRANCH   3   9
BRANCH   2  22
ATOM     22  N   UNL     1      -0.131  -2.159  -3.560  0.00  0.00    -0.316 N 
ATOM     23  C   UNL     1      -1.241  -2.838  -2.878  0.00  0.00    +0.107 C 
ATOM     24  C   UNL     1      -2.423  -2.945  -3.846  0.00  0.00    +0.022 C 
ATOM     25  C   UNL     1      -2.770  -1.552  -4.377  0.00  0.00    -0.011 C 
ATOM     26  C   UNL     1      -1.571  -0.982  -5.139  0.00  0.00    +0.022 C 
ATOM     27  C   UNL     1      -0.378  -0.850  -4.181  0.00  0.00    +0.107 C 
ATOM     28  C   UNL     1      -3.972  -1.651  -5.318  0.00  0.00    +0.007 C 
ENDBRANCH   2  22
BRANCH   5  29
ATOM     29  C   UNL     1       4.930  -4.467  -3.723  0.00  0.00    +0.105 C 
ATOM     30  N   UNL     1       5.967  -4.930  -3.735  0.00  0.00    -0.191 NA
ENDBRANCH   5  29
BRANCH   1  31
ATOM     31  C   UNL     1       1.562  -1.754  -1.423  0.00  0.00    +0.126 C 
BRANCH  31  32
ATOM     32  C   UNL     1       2.045  -0.313  -1.604  0.00  0.00    +0.021 C 
BRANCH  32  34
ATOM     33  C   UNL     1       2.098   1.964  -0.578  0.00  0.00    +0.004 C 
ATOM     34  C   UNL     1       1.615   0.524  -0.397  0.00  0.00    -0.002 C 
ENDBRANCH  32  34
ENDBRANCH  31  32
ENDBRANCH   1  31
TORSDOF 7
