REMARK  Name = ZINC05411336
REMARK  10 active torsions:
REMARK  status: ('A' for Active; 'I' for Inactive)
REMARK    1  A    between atoms: C_1  and  C_2
REMARK    2  A    between atoms: C_5  and  S_8
REMARK    3  A    between atoms: N_6  and  N_7
REMARK    4  A    between atoms: S_8  and  C_9
REMARK    5  A    between atoms: C_9  and  C_10
REMARK    6  A    between atoms: C_14  and  C_16
REMARK    7  A    between atoms: C_16  and  S_17
REMARK    8  A    between atoms: S_17  and  C_18
REMARK    9  A    between atoms: C_21  and  C_24
REMARK   10  A    between atoms: N_22  and  N_23
REMARK                            x       y       z     vdW  Elec       q    Type
REMARK                         _______ _______ _______ _____ _____    ______ ____
ROOT
ATOM      1  C   UNL     1       2.507   2.218  -5.266  0.00  0.00    -0.037 A 
ATOM      2  C   UNL     1       3.337   3.323  -5.231  0.00  0.00    +0.004 A 
ATOM      3  C   UNL     1       4.560   3.289  -5.874  0.00  0.00    +0.001 A 
ATOM      4  C   UNL     1       4.948   2.154  -6.561  0.00  0.00    +0.004 A 
ATOM      5  C   UNL     1       4.116   1.051  -6.600  0.00  0.00    -0.037 A 
ATOM      6  C   UNL     1       2.895   1.083  -5.953  0.00  0.00    +0.009 A 
ENDROOT
BRANCH   1   7
ATOM      7  C   UNL     1       1.176   2.253  -4.560  0.00  0.00    +0.112 C 
BRANCH   7   8
ATOM      8  S   UNL     1       1.377   1.661  -2.861  0.00  0.00    -0.080 S 
BRANCH   8  13
ATOM      9  C   UNL     1      -3.041   1.596   0.090  0.00  0.00    +0.090 C 
ATOM     10  C   UNL     1      -2.079   1.768  -1.057  0.00  0.00    +0.148 A 
ATOM     11  N   UNL     1      -2.369   2.210  -2.248  0.00  0.00    -0.132 NA
ATOM     12  N   UNL     1      -1.313   2.231  -2.980  0.00  0.00    -0.121 NA
ATOM     13  C   UNL     1      -0.282   1.804  -2.288  0.00  0.00    +0.209 A 
ATOM     14  N   UNL     1      -0.741   1.490  -1.041  0.00  0.00    -0.228 N 
BRANCH  14  15
ATOM     15  N   UNL     1      -0.012   1.005   0.008  0.00  0.00    -0.295 N 
ATOM     16  H   UNL     1       0.002  -0.004   0.002  0.00  0.00    +0.163 HD
ATOM     17  H   UNL     1       0.925   1.379   0.001  0.00  0.00    +0.163 HD
ENDBRANCH  14  15
ENDBRANCH   8  13
ENDBRANCH   7   8
ENDBRANCH   1   7
BRANCH   5  18
ATOM     18  C   UNL     1       4.539  -0.186  -7.350  0.00  0.00    +0.112 C 
BRANCH  18  19
ATOM     19  S   UNL     1       3.974  -0.075  -9.065  0.00  0.00    -0.080 S 
BRANCH  19  20
ATOM     20  C   UNL     1       4.587  -1.605  -9.689  0.00  0.00    +0.209 A 
ATOM     21  N   UNL     1       5.258  -2.510  -9.015  0.00  0.00    -0.121 NA
ATOM     22  N   UNL     1       5.547  -3.500  -9.782  0.00  0.00    -0.132 NA
ATOM     23  C   UNL     1       5.082  -3.288 -10.980  0.00  0.00    +0.148 A 
ATOM     24  N   UNL     1       4.449  -2.076 -10.963  0.00  0.00    -0.228 N 
ATOM     25  C   UNL     1       5.211  -4.211 -12.165  0.00  0.00    +0.090 C 
BRANCH  24  26
ATOM     26  N   UNL     1       3.813  -1.462 -12.005  0.00  0.00    -0.295 N 
ATOM     27  H   UNL     1       4.451  -0.878 -12.524  0.00  0.00    +0.163 HD
ATOM     28  H   UNL     1       3.370  -2.140 -12.608  0.00  0.00    +0.163 HD
ENDBRANCH  24  26
ENDBRANCH  19  20
ENDBRANCH  18  19
ENDBRANCH   5  18
TORSDOF 8
