REMARK  Name = ZINC65255185
REMARK  6 active torsions:
REMARK  status: ('A' for Active; 'I' for Inactive)
REMARK    1  A    between atoms: C_1  and  C_2
REMARK    2  A    between atoms: C_4  and  C_7
REMARK    3  A    between atoms: N_10  and  C_13
REMARK    4  A    between atoms: C_13  and  C_14
REMARK    5  A    between atoms: C_14  and  C_16
REMARK    6  A    between atoms: C_14  and  O_25
REMARK                            x       y       z     vdW  Elec       q    Type
REMARK                         _______ _______ _______ _____ _____    ______ ____
ROOT
ATOM      1  C   UNL     1       0.038  -3.206  -1.697  0.00  0.00    +0.074 C 
ATOM      2  C   UNL     1      -1.194  -4.080  -1.446  0.00  0.00    -0.006 C 
ATOM      3  C   UNL     1      -1.135  -5.309  -2.356  0.00  0.00    -0.078 C 
ATOM      4  N   UNL     1       0.080  -6.079  -2.066  0.00  0.00    +0.382 N 
ATOM      5  C   UNL     1       1.267  -5.271  -2.373  0.00  0.00    -0.078 C 
ATOM      6  C   UNL     1       1.300  -4.041  -1.464  0.00  0.00    -0.006 C 
ATOM      7  H   UNL     1       0.091  -6.333  -1.090  0.00  0.00    -0.082 HD
ENDROOT
BRANCH   1  11
ATOM      8  C   UNL     1      -0.018   1.503   0.010  0.00  0.00    +0.091 C 
ATOM      9  C   UNL     1       0.002  -0.004   0.002  0.00  0.00    +0.169 A 
ATOM     10  N   UNL     1       0.008  -0.776  -1.091  0.00  0.00    -0.196 NA
ATOM     11  C   UNL     1       0.026  -2.034  -0.750  0.00  0.00    +0.230 A 
ATOM     12  O   UNL     1       0.033  -2.107   0.587  0.00  0.00    -0.338 OA
ATOM     13  N   UNL     1       0.023  -0.767   1.057  0.00  0.00    -0.062 NA
ENDBRANCH   1  11
BRANCH   4  14
ATOM     14  C   UNL     1       0.094  -7.298  -2.886  0.00  0.00    -0.042 C 
BRANCH  14  15
ATOM     15  C   UNL     1       1.295  -8.162  -2.497  0.00  0.00    +0.128 C 
BRANCH  15  16
ATOM     16  C   UNL     1       1.379  -9.350  -3.420  0.00  0.00    -0.017 A 
ATOM     17  C   UNL     1       0.560 -10.445  -3.212  0.00  0.00    +0.010 A 
ATOM     18  C   UNL     1       0.633 -11.537  -4.056  0.00  0.00    +0.050 A 
ATOM     19  C   UNL     1       1.529 -11.537  -5.113  0.00  0.00    +0.166 A 
ATOM     20  C   UNL     1       2.353 -10.435  -5.322  0.00  0.00    +0.167 A 
ATOM     21  C   UNL     1       2.271  -9.341  -4.476  0.00  0.00    +0.055 A 
ATOM     22  O   UNL     1       3.136 -10.677  -6.414  0.00  0.00    -0.453 OA
ATOM     23  C   UNL     1       3.072 -12.100  -6.625  0.00  0.00    +0.466 C 
ATOM     24  O   UNL     1       1.795 -12.470  -6.073  0.00  0.00    -0.453 OA
ENDBRANCH  15  16
BRANCH  15  25
ATOM     25  O   UNL     1       1.139  -8.614  -1.150  0.00  0.00    -0.389 OA
ATOM     26  H   UNL     1       0.345  -9.146  -1.004  0.00  0.00    +0.210 HD
ENDBRANCH  15  25
ENDBRANCH  14  15
ENDBRANCH   4  14
TORSDOF 5
