REMARK  Name = ZINC16780038
REMARK  7 active torsions:
REMARK  status: ('A' for Active; 'I' for Inactive)
REMARK    1  A    between atoms: C_1  and  C_2
REMARK    2  A    between atoms: C_4  and  C_23
REMARK    3  A    between atoms: C_6  and  C_21
REMARK    4  A    between atoms: C_7  and  S_8
REMARK    5  A    between atoms: S_8  and  N_11
REMARK    6  A    between atoms: N_11  and  C_12
REMARK    7  A    between atoms: C_18  and  C_20
REMARK                            x       y       z     vdW  Elec       q    Type
REMARK                         _______ _______ _______ _____ _____    ______ ____
ROOT
ATOM      1  S   UNL     1      -3.314   3.919  -0.605  0.00  0.00    +0.059 S 
ATOM      2  O   UNL     1      -4.277   2.921  -0.297  0.00  0.00    -0.153 OA
ATOM      3  O   UNL     1      -3.298   5.186   0.039  0.00  0.00    -0.153 OA
ENDROOT
BRANCH   1  10
ATOM      4  C   UNL     1      -2.851   0.962  -0.174  0.00  0.00    +0.046 C 
ATOM      5  C   UNL     1      -1.620   1.830  -0.143  0.00  0.00    -0.024 A 
ATOM      6  C   UNL     1      -0.379   1.262   0.079  0.00  0.00    +0.009 A 
ATOM      7  C   UNL     1       0.751   2.056   0.102  0.00  0.00    -0.036 A 
ATOM      8  C   UNL     1       0.640   3.422  -0.091  0.00  0.00    +0.026 A 
ATOM      9  C   UNL     1      -0.602   3.991  -0.307  0.00  0.00    -0.010 A 
ATOM     10  C   UNL     1      -1.732   3.195  -0.330  0.00  0.00    +0.112 A 
ATOM     11  C   UNL     1      -0.723   5.478  -0.517  0.00  0.00    +0.047 C 
ATOM     12 BR   UNL     1       2.187   4.510  -0.060  0.00  0.00    -0.050 Br
ATOM     13  C   UNL     1       2.104   1.436   0.337  0.00  0.00    +0.045 C 
ENDBRANCH   1  10
BRANCH   1  14
ATOM     14  N   UNL     1      -3.441   4.215  -2.229  0.00  0.00    -0.187 NA
ATOM     15  H   UNL     1      -3.512   5.127  -2.552  0.00  0.00    +0.148 HD
BRANCH  14  16
ATOM     16  C   UNL     1      -3.447   3.100  -3.179  0.00  0.00    +0.079 C 
ATOM     17  C   UNL     1      -2.035   2.892  -3.730  0.00  0.00    +0.020 C 
ATOM     18  C   UNL     1      -1.573   4.165  -4.442  0.00  0.00    +0.002 C 
ATOM     19  C   UNL     1      -2.530   4.481  -5.594  0.00  0.00    +0.000 C 
ATOM     20  C   UNL     1      -3.941   4.689  -5.043  0.00  0.00    +0.005 C 
ATOM     21  C   UNL     1      -4.404   3.416  -4.331  0.00  0.00    +0.005 C 
ATOM     22  C   UNL     1      -5.815   3.624  -3.779  0.00  0.00    +0.009 C 
ENDBRANCH  14  16
ENDBRANCH   1  14
TORSDOF 3
