REMARK  Name = ZINC03899314
REMARK  2 active torsions:
REMARK  status: ('A' for Active; 'I' for Inactive)
REMARK    1  A    between atoms: C_6  and  C_7
REMARK    2  A    between atoms: C_10  and  C_12
REMARK                            x       y       z     vdW  Elec       q    Type
REMARK                         _______ _______ _______ _____ _____    ______ ____
ROOT
ATOM      1  C   UNL     1       2.967   2.927  -0.627  0.00  0.00    +0.136 A 
ATOM      2  C   UNL     1       3.518   1.707  -0.355  0.00  0.00    +0.050 A 
ATOM      3  C   UNL     1       2.465   0.834  -0.070  0.00  0.00    +0.050 A 
ATOM      4  C   UNL     1       1.297   1.565  -0.191  0.00  0.00    +0.130 A 
ATOM      5  O   UNL     1       1.629   2.830  -0.525  0.00  0.00    -0.455 OA
ENDROOT
BRANCH   4   6
ATOM      6  C   UNL     1      -0.013   1.076   0.008  0.00  0.00    +0.066 C 
ATOM      7  C   UNL     1      -1.078   1.922  -0.086  0.00  0.00    +0.081 C 
ATOM      8  C   UNL     1      -1.097   3.385  -0.240  0.00  0.00    +0.257 C 
ATOM      9  O   UNL     1      -0.067   4.030  -0.303  0.00  0.00    -0.269 OA
ATOM     10  N   UNL     1      -2.282   3.968  -0.311  0.00  0.00    -0.261 N 
ATOM     11  C   UNL     1      -3.438   3.219  -0.230  0.00  0.00    +0.158 C 
ATOM     12  N   UNL     1      -4.676   3.629  -0.276  0.00  0.00    -0.279 NA
ATOM     13  S   UNL     1      -2.826   1.552  -0.048  0.00  0.00    -0.049 S 
ATOM     14  H   UNL     1      -2.339   4.931  -0.415  0.00  0.00    +0.157 HD
ATOM     15  H   UNL     1      -5.402   2.989  -0.207  0.00  0.00    +0.189 HD
ENDBRANCH   4   6
BRANCH   1  21
ATOM     16  C   UNL     1       5.111   4.122  -1.044  0.00  0.00    +0.013 A 
ATOM     17  C   UNL     1       5.805   5.267  -1.376  0.00  0.00    +0.022 A 
ATOM     18  C   UNL     1       5.124   6.445  -1.629  0.00  0.00    +0.059 A 
ATOM     19  C   UNL     1       3.740   6.481  -1.557  0.00  0.00    +0.060 A 
ATOM     20  C   UNL     1       3.033   5.342  -1.232  0.00  0.00    +0.033 A 
ATOM     21  C   UNL     1       3.716   4.150  -0.976  0.00  0.00    +0.019 A 
ATOM     22 CL   UNL     1       2.894   7.963  -1.877  0.00  0.00    -0.082 Cl
ATOM     23 CL   UNL     1       6.006   7.883  -2.039  0.00  0.00    -0.082 Cl
ENDBRANCH   1  21
TORSDOF 2
