REMARK  Name = ZINC39890671
REMARK  8 active torsions:
REMARK  status: ('A' for Active; 'I' for Inactive)
REMARK    1  A    between atoms: C_1  and  C_2
REMARK    2  A    between atoms: C_2  and  N_3
REMARK    3  A    between atoms: C_18  and  C_37
REMARK    4  A    between atoms: C_19  and  C_36
REMARK    5  A    between atoms: C_30  and  C_32
REMARK    6  A    between atoms: C_32  and  C_33
REMARK    7  A    between atoms: C_33  and  C_34
REMARK    8  A    between atoms: C_33  and  C_35
REMARK                            x       y       z     vdW  Elec       q    Type
REMARK                         _______ _______ _______ _____ _____    ______ ____
ROOT
ATOM      1  N   UNL     1       0.688  -0.476  -1.203  0.00  0.00    -0.269 N 
ATOM      2  C   UNL     1       0.052  -0.731  -2.405  0.00  0.00    +0.042 A 
ATOM      3  C   UNL     1      -1.299  -0.612  -2.736  0.00  0.00    +0.024 A 
ATOM      4  C   UNL     1      -1.666  -0.938  -4.032  0.00  0.00    +0.002 A 
ATOM      5  C   UNL     1      -0.745  -1.364  -4.967  0.00  0.00    +0.000 A 
ATOM      6  C   UNL     1       0.604  -1.488  -4.651  0.00  0.00    +0.008 A 
ATOM      7  C   UNL     1       0.977  -1.166  -3.363  0.00  0.00    +0.011 A 
ATOM      8  C   UNL     1       2.306  -1.183  -2.681  0.00  0.00    +0.180 C 
ATOM      9  C   UNL     1       2.015  -0.709  -1.274  0.00  0.00    +0.253 C 
ATOM     10  O   UNL     1       2.822  -0.567  -0.379  0.00  0.00    -0.272 OA
ATOM     11  C   UNL     1       3.309  -0.310  -3.350  0.00  0.00    +0.085 A 
ATOM     12  C   UNL     1       3.295   1.121  -3.670  0.00  0.00    +0.199 A 
ATOM     13  O   UNL     1       2.441   1.887  -3.259  0.00  0.00    -0.287 OA
ATOM     14  C   UNL     1       4.418   1.550  -4.540  0.00  0.00    +0.065 A 
ATOM     15  C   UNL     1       4.440   2.833  -5.085  0.00  0.00    +0.019 A 
ATOM     16  C   UNL     1       5.480   3.212  -5.887  0.00  0.00    -0.047 A 
ATOM     17  C   UNL     1       6.511   2.324  -6.161  0.00  0.00    -0.044 A 
ATOM     18  C   UNL     1       6.506   1.053  -5.631  0.00  0.00    +0.050 A 
ATOM     19  C   UNL     1       5.457   0.643  -4.808  0.00  0.00    +0.140 A 
ATOM     20  O   UNL     1       5.478  -0.606  -4.291  0.00  0.00    -0.450 OA
ATOM     21  C   UNL     1       4.382  -1.093  -3.678  0.00  0.00    +0.200 A 
ATOM     22  C   UNL     1       4.097  -2.473  -3.246  0.00  0.00    +0.290 C 
ATOM     23  O   UNL     1       4.846  -3.418  -3.395  0.00  0.00    -0.266 OA
ATOM     24  N   UNL     1       2.882  -2.533  -2.660  0.00  0.00    -0.219 N 
ATOM     25  C   UNL     1       2.284  -3.669  -2.131  0.00  0.00    +0.192 A 
ATOM     26  N   UNL     1       1.102  -3.819  -1.548  0.00  0.00    -0.125 NA
ATOM     27  N   UNL     1       0.709  -4.938  -1.119  0.00  0.00    -0.145 NA
ATOM     28  C   UNL     1       1.445  -6.027  -1.222  0.00  0.00    +0.104 A 
ATOM     29  S   UNL     1       2.884  -5.354  -2.049  0.00  0.00    -0.035 S 
ATOM     30  C   UNL     1       7.649   2.756  -7.048  0.00  0.00    +0.044 C 
ATOM     31  C   UNL     1       5.507   4.599  -6.477  0.00  0.00    +0.044 C 
ENDROOT
BRANCH   1  33
ATOM     32  C   UNL     1      -0.019   1.526   0.010  0.00  0.00    +0.025 C 
ATOM     33  C   UNL     1       0.002  -0.004   0.002  0.00  0.00    +0.110 C 
ENDBRANCH   1  33
BRANCH  28  34
ATOM     34  C   UNL     1       1.155  -7.437  -0.777  0.00  0.00    +0.068 C 
BRANCH  34  35
ATOM     35  C   UNL     1       0.460  -8.197  -1.908  0.00  0.00    -0.011 C 
ATOM     36  C   UNL     1       1.418  -8.335  -3.093  0.00  0.00    +0.007 C 
ATOM     37  C   UNL     1       0.054  -9.587  -1.415  0.00  0.00    +0.007 C 
ENDBRANCH  34  35
ENDBRANCH  28  34
TORSDOF 3
