REMARK  Name = ZINC48523643
REMARK  4 active torsions:
REMARK  status: ('A' for Active; 'I' for Inactive)
REMARK    1  A    between atoms: C_3  and  N_8
REMARK    2  A    between atoms: C_9  and  C_11
REMARK    3  A    between atoms: N_13  and  N_14
REMARK    4  A    between atoms: C_15  and  C_16
REMARK                            x       y       z     vdW  Elec       q    Type
REMARK                         _______ _______ _______ _____ _____    ______ ____
ROOT
ATOM      1  C   UNL     1       6.032   2.238   0.170  0.00  0.00    +0.318 C 
ATOM      2  O   UNL     1       6.011   3.453   0.176  0.00  0.00    -0.263 OA
ATOM      3  N   UNL     1       7.207   1.584   0.257  0.00  0.00    -0.199 N 
ATOM      4  H   UNL     1       7.223   0.614   0.252  0.00  0.00    +0.178 HD
ENDROOT
BRANCH   1   6
ATOM      5  N   UNL     1       3.582   2.126  -0.021  0.00  0.00    -0.278 N 
ATOM      6  C   UNL     1       4.757   1.471   0.066  0.00  0.00    +0.305 C 
ATOM      7  O   UNL     1       4.778   0.258   0.060  0.00  0.00    -0.265 OA
ATOM      8  H   UNL     1       3.570   3.094  -0.084  0.00  0.00    +0.155 HD
BRANCH   5  11
ATOM      9  C   UNL     1       0.070   1.231   0.594  0.00  0.00    +0.005 A 
ATOM     10  C   UNL     1       1.256   1.940   0.595  0.00  0.00    +0.023 A 
ATOM     11  C   UNL     1       2.382   1.410  -0.021  0.00  0.00    +0.037 A 
ATOM     12  C   UNL     1       2.313   0.167  -0.637  0.00  0.00    +0.061 A 
ATOM     13  C   UNL     1       1.124  -0.538  -0.636  0.00  0.00    +0.125 A 
ATOM     14  C   UNL     1       0.003  -0.006  -0.020  0.00  0.00    +0.038 A 
ATOM     15  F   UNL     1       1.055  -1.747  -1.235  0.00  0.00    -0.205 F 
ENDBRANCH   5  11
ENDBRANCH   1   6
BRANCH   3  16
ATOM     16  N   UNL     1       8.404   2.304   0.354  0.00  0.00    -0.187 NA
ATOM     17  C   UNL     1       9.537   1.674   0.438  0.00  0.00    +0.138 C 
BRANCH  17  18
ATOM     18  C   UNL     1      10.796   2.431   0.541  0.00  0.00    -0.002 A 
ATOM     19  C   UNL     1      10.774   3.829   0.554  0.00  0.00    +0.013 A 
ATOM     20  C   UNL     1      11.954   4.535   0.650  0.00  0.00    +0.050 A 
ATOM     21  C   UNL     1      13.166   3.864   0.733  0.00  0.00    +0.166 A 
ATOM     22  C   UNL     1      13.195   2.470   0.721  0.00  0.00    +0.167 A 
ATOM     23  C   UNL     1      12.016   1.755   0.631  0.00  0.00    +0.059 A 
ATOM     24  O   UNL     1      14.495   2.061   0.814  0.00  0.00    -0.453 OA
ATOM     25  C   UNL     1      15.286   3.213   0.471  0.00  0.00    +0.466 C 
ATOM     26  O   UNL     1      14.447   4.325   0.834  0.00  0.00    -0.453 OA
ENDBRANCH  17  18
ENDBRANCH   3  16
TORSDOF 4
