REMARK  Name = ZINC06531316
REMARK  5 active torsions:
REMARK  status: ('A' for Active; 'I' for Inactive)
REMARK    1  A    between atoms: C_1  and  C_2
REMARK    2  A    between atoms: C_2  and  C_4
REMARK    3  A    between atoms: C_2  and  S_10
REMARK    4  A    between atoms: S_10  and  C_11
REMARK    5  A    between atoms: N_21  and  C_22
REMARK                            x       y       z     vdW  Elec       q    Type
REMARK                         _______ _______ _______ _____ _____    ______ ____
ROOT
ATOM      1  C   UNL     1       2.358   0.128  -0.019  0.00  0.00    +0.173 A 
ATOM      2  N   UNL     1       2.364   1.438  -0.012  0.00  0.00    -0.223 NA
ATOM      3  C   UNL     1       1.219   2.150   0.002  0.00  0.00    +0.079 A 
ATOM      4  C   UNL     1       1.224   3.548   0.010  0.00  0.00    +0.028 A 
ATOM      5  C   UNL     1       0.040   4.229   0.025  0.00  0.00    +0.002 A 
ATOM      6  C   UNL     1      -1.173   3.552   0.033  0.00  0.00    +0.001 A 
ATOM      7  C   UNL     1      -1.211   2.185   0.031  0.00  0.00    +0.015 A 
ATOM      8  C   UNL     1      -0.018   1.465   0.010  0.00  0.00    +0.065 A 
ATOM      9  C   UNL     1       0.002  -0.004   0.002  0.00  0.00    +0.263 A 
ATOM     10  O   UNL     1      -1.030  -0.650   0.008  0.00  0.00    -0.267 OA
ATOM     11  N   UNL     1       1.211  -0.613  -0.013  0.00  0.00    -0.284 N 
ENDROOT
BRANCH  11  12
ATOM     12  C   UNL     1       1.289  -2.075  -0.021  0.00  0.00    +0.093 C 
ATOM     13  C   UNL     1       0.537  -2.638  -1.245  0.00  0.00    +0.025 C 
ATOM     14  C   UNL     1      -0.130  -3.933  -0.718  0.00  0.00    +0.002 C 
ATOM     15  C   UNL     1      -0.560  -3.538   0.717  0.00  0.00    +0.002 C 
ATOM     16  C   UNL     1       0.592  -2.648   1.226  0.00  0.00    +0.025 C 
ENDBRANCH  11  12
BRANCH   1  17
ATOM     17  S   UNL     1       3.904  -0.718  -0.037  0.00  0.00    -0.075 S 
BRANCH  17  19
ATOM     18  C   UNL     1       4.867   1.480  -1.342  0.00  0.00    +0.029 C 
ATOM     19  C   UNL     1       5.036   0.694  -0.040  0.00  0.00    +0.137 C 
BRANCH  19  20
ATOM     20  C   UNL     1       6.455   0.201   0.068  0.00  0.00    +0.233 C 
ATOM     21  O   UNL     1       6.739  -0.918  -0.304  0.00  0.00    -0.274 OA
ATOM     22  N   UNL     1       7.410   1.002   0.580  0.00  0.00    -0.239 N 
ATOM     23  C   UNL     1       8.680   0.561   0.677  0.00  0.00    +0.303 C 
ATOM     24  O   UNL     1       8.964  -0.560   0.303  0.00  0.00    -0.253 OA
ATOM     25  N   UNL     1       9.635   1.363   1.189  0.00  0.00    -0.313 N 
ATOM     26  H   UNL     1       7.184   1.897   0.878  0.00  0.00    +0.159 HD
ATOM     27  H   UNL     1       9.408   2.257   1.487  0.00  0.00    +0.146 HD
ATOM     28  H   UNL     1      10.549   1.045   1.258  0.00  0.00    +0.146 HD
ENDBRANCH  19  20
ENDBRANCH  17  19
ENDBRANCH   1  17
TORSDOF 4
