REMARK  Name = ZINC00695051
REMARK  10 active torsions:
REMARK  status: ('A' for Active; 'I' for Inactive)
REMARK    1  A    between atoms: C_1  and  C_2
REMARK    2  A    between atoms: C_3  and  C_31
REMARK    3  A    between atoms: C_4  and  N_9
REMARK    4  A    between atoms: C_6  and  C_8
REMARK    5  A    between atoms: N_13  and  S_16
REMARK    6  A    between atoms: S_16  and  C_19
REMARK    7  A    between atoms: C_19  and  C_20
REMARK    8  A    between atoms: C_25  and  C_26
REMARK    9  A    between atoms: C_25  and  C_27
REMARK   10  A    between atoms: C_31  and  C_32
REMARK                            x       y       z     vdW  Elec       q    Type
REMARK                         _______ _______ _______ _____ _____    ______ ____
ROOT
ATOM      1  N   UNL     1       2.051  -1.076  -1.293  0.00  0.00    -0.314 N 
ATOM      2  C   UNL     1       2.900  -1.472  -0.171  0.00  0.00    +0.108 C 
ATOM      3  C   UNL     1       2.031  -1.726   1.041  0.00  0.00    +0.036 C 
ATOM      4  C   UNL     1       1.649  -3.215   1.100  0.00  0.00    +0.110 C 
ATOM      5  N   UNL     1       1.342  -3.743  -0.243  0.00  0.00    -0.180 NA
ATOM      6  C   UNL     1       0.569  -2.997  -1.216  0.00  0.00    +0.128 C 
ATOM      7  C   UNL     1       1.516  -2.126  -2.076  0.00  0.00    +0.123 C 
ENDROOT
BRANCH   1  11
ATOM      8  C   UNL     1       1.893   2.902  -4.188  0.00  0.00    +0.066 C 
ATOM      9  C   UNL     1       2.636   1.788  -3.495  0.00  0.00    +0.047 A 
ATOM     10  C   UNL     1       1.955   0.873  -2.716  0.00  0.00    +0.018 A 
ATOM     11  C   UNL     1       2.687  -0.137  -2.089  0.00  0.00    +0.129 A 
ATOM     12  N   UNL     1       4.003  -0.187  -2.273  0.00  0.00    -0.217 NA
ATOM     13  C   UNL     1       4.611   0.707  -3.025  0.00  0.00    +0.128 A 
ATOM     14  N   UNL     1       3.950   1.676  -3.626  0.00  0.00    -0.237 NA
ATOM     15  C   UNL     1       6.105   0.620  -3.203  0.00  0.00    +0.088 C 
BRANCH  10  16
ATOM     16  C   UNL     1       0.461   0.966  -2.543  0.00  0.00    +0.075 C 
BRANCH  16  17
ATOM     17  C   UNL     1       0.144   1.926  -1.425  0.00  0.00    -0.043 A 
ATOM     18  C   UNL     1      -0.151   3.246  -1.711  0.00  0.00    +0.004 A 
ATOM     19  C   UNL     1      -0.436   4.128  -0.685  0.00  0.00    +0.000 A 
ATOM     20  C   UNL     1      -0.437   3.687   0.625  0.00  0.00    +0.000 A 
ATOM     21  C   UNL     1      -0.141   2.368   0.911  0.00  0.00    +0.000 A 
ATOM     22  C   UNL     1       0.149   1.487  -0.115  0.00  0.00    +0.004 A 
ENDBRANCH  16  17
ENDBRANCH  10  16
ENDBRANCH   1  11
BRANCH   5  23
ATOM     23  S   UNL     1       1.902  -5.246  -0.655  0.00  0.00    +0.033 S 
ATOM     24  O   UNL     1       2.041  -5.933   0.581  0.00  0.00    -0.158 OA
ATOM     25  O   UNL     1       0.996  -5.712  -1.645  0.00  0.00    -0.158 OA
BRANCH  23  26
ATOM     26  C   UNL     1       3.534  -4.950  -1.391  0.00  0.00    +0.200 C 
BRANCH  26  27
ATOM     27  C   UNL     1       4.152  -6.285  -1.814  0.00  0.00    +0.055 C 
ATOM     28  C   UNL     1       3.370  -7.082  -2.901  0.00  0.00    +0.017 C 
ATOM     29  C   UNL     1       4.414  -8.056  -3.496  0.00  0.00    +0.005 C 
ATOM     30  C   UNL     1       5.723  -7.756  -2.702  0.00  0.00    +0.003 C 
ATOM     31  C   UNL     1       5.574  -6.209  -2.473  0.00  0.00    -0.018 C 
ATOM     32  C   UNL     1       5.557  -5.432  -3.791  0.00  0.00    +0.012 C 
ATOM     33  C   UNL     1       6.629  -5.667  -1.506  0.00  0.00    +0.012 C 
ATOM     34  C   UNL     1       5.429  -8.278  -1.263  0.00  0.00    +0.079 C 
ATOM     35  C   UNL     1       4.411  -7.290  -0.683  0.00  0.00    +0.142 C 
ATOM     36  O   UNL     1       3.907  -7.304   0.414  0.00  0.00    -0.297 OA
ENDBRANCH  26  27
ENDBRANCH  23  26
ENDBRANCH   5  23
TORSDOF 6
