REMARK  Name = ZINC13210571
REMARK  15 active torsions:
REMARK  status: ('A' for Active; 'I' for Inactive)
REMARK    1  A    between atoms: C_1  and  C_2
REMARK    2  A    between atoms: C_3  and  C_30
REMARK    3  A    between atoms: C_4  and  C_29
REMARK    4  A    between atoms: C_9  and  S_11
REMARK    5  A    between atoms: S_11  and  C_12
REMARK    6  A    between atoms: C_12  and  C_13
REMARK    7  A    between atoms: N_15  and  C_16
REMARK    8  A    between atoms: C_16  and  C_18
REMARK    9  A    between atoms: C_16  and  C_19
REMARK   10  A    between atoms: C_22  and  C_25
REMARK   11  A    between atoms: C_25  and  C_26
REMARK   12  A    between atoms: C_26  and  C_27
REMARK   13  A    between atoms: C_26  and  C_28
REMARK   14  A    between atoms: C_30  and  C_31
REMARK   15  A    between atoms: C_31  and  C_32
REMARK                            x       y       z     vdW  Elec       q    Type
REMARK                         _______ _______ _______ _____ _____    ______ ____
ROOT
ATOM      1  S   UNL     1       3.842  -3.522  -0.051  0.00  0.00    -0.075 S 
ENDROOT
BRANCH   1  10
ATOM      2  C   UNL     1       1.191   3.562   0.010  0.00  0.00    +0.066 C 
ATOM      3  C   UNL     1       1.195   2.054   0.002  0.00  0.00    +0.047 A 
ATOM      4  C   UNL     1      -0.016   1.355   0.009  0.00  0.00    -0.005 A 
ATOM      5  C   UNL     1       0.002  -0.004   0.002  0.00  0.00    +0.048 A 
ATOM      6  N   UNL     1       1.198  -0.647  -0.013  0.00  0.00    -0.200 N 
ATOM      7  C   UNL     1       2.364   0.066  -0.020  0.00  0.00    +0.254 A 
ATOM      8  N   UNL     1       2.337   1.403  -0.014  0.00  0.00    -0.216 NA
ATOM      9  N   UNL     1       3.364  -0.809  -0.034  0.00  0.00    -0.183 NA
ATOM     10  C   UNL     1       2.877  -2.048  -0.035  0.00  0.00    +0.211 A 
ATOM     11  N   UNL     1       1.560  -2.001  -0.023  0.00  0.00    -0.137 NA
ATOM     12  C   UNL     1      -1.286  -0.786   0.010  0.00  0.00    +0.066 C 
BRANCH   4  13
ATOM     13  C   UNL     1      -1.327   2.099   0.020  0.00  0.00    +0.050 C 
BRANCH  13  14
ATOM     14  C   UNL     1      -1.763   2.343   1.466  0.00  0.00    +0.130 C 
BRANCH  14  15
ATOM     15  C   UNL     1      -3.073   3.088   1.476  0.00  0.00    +0.356 C 
ATOM     16  O   UNL     1      -3.604   3.392   0.434  0.00  0.00    -0.246 OA
ATOM     17  O   UNL     1      -3.651   3.413   2.643  0.00  0.00    -0.246 OA
ENDBRANCH  14  15
ENDBRANCH  13  14
ENDBRANCH   4  13
ENDBRANCH   1  10
BRANCH   1  18
ATOM     18  C   UNL     1       5.555  -2.924  -0.064  0.00  0.00    +0.173 C 
BRANCH  18  19
ATOM     19  C   UNL     1       6.498  -4.100  -0.079  0.00  0.00    +0.224 C 
ATOM     20  O   UNL     1       6.057  -5.230  -0.080  0.00  0.00    -0.275 OA
ATOM     21  N   UNL     1       7.830  -3.896  -0.090  0.00  0.00    -0.308 N 
ATOM     22  H   UNL     1       8.182  -2.992  -0.089  0.00  0.00    +0.149 HD
BRANCH  21  23
ATOM     23  C   UNL     1       8.746  -5.039  -0.104  0.00  0.00    +0.100 C 
ATOM     24  C   UNL     1       8.953  -5.509  -1.545  0.00  0.00    +0.033 C 
BRANCH  23  25
ATOM     25  C   UNL     1      10.070  -4.629   0.486  0.00  0.00    -0.027 A 
ATOM     26  C   UNL     1      10.604  -3.389   0.190  0.00  0.00    +0.006 A 
ATOM     27  C   UNL     1      11.817  -3.010   0.736  0.00  0.00    +0.004 A 
ATOM     28  C   UNL     1      12.501  -3.876   1.569  0.00  0.00    -0.047 A 
ATOM     29  C   UNL     1      11.969  -5.118   1.861  0.00  0.00    +0.004 A 
ATOM     30  C   UNL     1      10.754  -5.495   1.319  0.00  0.00    +0.006 A 
BRANCH  28  31
ATOM     31  C   UNL     1      13.825  -3.466   2.158  0.00  0.00    +0.038 C 
BRANCH  31  32
ATOM     32  C   UNL     1      14.955  -3.887   1.216  0.00  0.00    -0.013 C 
ATOM     33  C   UNL     1      14.839  -3.112  -0.098  0.00  0.00    +0.007 C 
ATOM     34  C   UNL     1      16.304  -3.584   1.870  0.00  0.00    +0.007 C 
ENDBRANCH  31  32
ENDBRANCH  28  31
ENDBRANCH  23  25
ENDBRANCH  21  23
ENDBRANCH  18  19
ENDBRANCH   1  18
TORSDOF 10
