REMARK  Name = ZINC09721923
REMARK  8 active torsions:
REMARK  status: ('A' for Active; 'I' for Inactive)
REMARK    1  A    between atoms: C_1  and  C_2
REMARK    2  A    between atoms: C_3  and  C_9
REMARK    3  A    between atoms: C_4  and  C_8
REMARK    4  A    between atoms: C_9  and  C_11
REMARK    5  A    between atoms: C_9  and  C_12
REMARK    6  A    between atoms: N_14  and  C_15
REMARK    7  A    between atoms: C_20  and  C_21
REMARK    8  A    between atoms: C_21  and  C_23
REMARK                            x       y       z     vdW  Elec       q    Type
REMARK                         _______ _______ _______ _____ _____    ______ ____
ROOT
ATOM      1  C   UNL     1       1.910   5.409   0.022  0.00  0.00    +0.224 C 
ATOM      2  O   UNL     1       0.797   5.851   0.213  0.00  0.00    -0.275 OA
ATOM      3  N   UNL     1       2.103   4.078  -0.057  0.00  0.00    -0.284 N 
ATOM      4  H   UNL     1       3.001   3.721  -0.136  0.00  0.00    +0.155 HD
ENDROOT
BRANCH   3   5
ATOM      5  C   UNL     1       1.011   3.213  -0.025  0.00  0.00    +0.048 A 
ATOM      6  C   UNL     1      -0.021   3.430   0.873  0.00  0.00    +0.073 A 
ATOM      7  C   UNL     1      -1.109   2.571   0.906  0.00  0.00    +0.168 A 
ATOM      8  C   UNL     1      -1.173   1.483   0.029  0.00  0.00    +0.167 A 
ATOM      9  C   UNL     1      -0.151   1.253  -0.866  0.00  0.00    +0.062 A 
ATOM     10  C   UNL     1       0.952   2.118  -0.905  0.00  0.00    +0.042 A 
ATOM     11  O   UNL     1      -2.333   0.801   0.269  0.00  0.00    -0.453 OA
ATOM     12  C   UNL     1      -2.780   1.245   1.563  0.00  0.00    +0.466 C 
ATOM     13  O   UNL     1      -2.230   2.570   1.682  0.00  0.00    -0.453 OA
BRANCH  10  14
ATOM     14  C   UNL     1       2.039   1.880  -1.859  0.00  0.00    +0.162 C 
ATOM     15  O   UNL     1       2.978   2.647  -1.911  0.00  0.00    -0.292 OA
ATOM     16  C   UNL     1       1.990   0.684  -2.774  0.00  0.00    +0.091 C 
ENDBRANCH  10  14
ENDBRANCH   3   5
BRANCH   1  17
ATOM     17  C   UNL     1       3.078   6.350  -0.127  0.00  0.00    +0.106 C 
ATOM     18  C   UNL     1       4.109   6.059   0.967  0.00  0.00    +0.022 C 
BRANCH  17  21
ATOM     19  C   UNL     1       3.334   8.582  -2.303  0.00  0.00    +0.065 C 
ATOM     20  C   UNL     1       2.709   8.738  -0.941  0.00  0.00    +0.037 A 
ATOM     21  C   UNL     1       2.598   7.772   0.001  0.00  0.00    +0.007 A 
ATOM     22  C   UNL     1       1.953   8.326   1.112  0.00  0.00    +0.064 A 
ATOM     23  N   UNL     1       1.694   9.582   0.850  0.00  0.00    -0.179 NA
ATOM     24  N   UNL     1       2.159   9.864  -0.441  0.00  0.00    -0.281 N 
ATOM     25  H   UNL     1       2.094  10.745  -0.910  0.00  0.00    +0.189 HD
ATOM     26  C   UNL     1       1.617   7.603   2.390  0.00  0.00    +0.068 C 
ENDBRANCH  17  21
ENDBRANCH   1  17
TORSDOF 4
