REMARK  Name = ZINC39715379
REMARK  9 active torsions:
REMARK  status: ('A' for Active; 'I' for Inactive)
REMARK    1  A    between atoms: C_1  and  C_2
REMARK    2  A    between atoms: C_2  and  C_4
REMARK    3  A    between atoms: C_2  and  O_7
REMARK    4  A    between atoms: O_7  and  C_8
REMARK    5  A    between atoms: C_9  and  C_16
REMARK    6  A    between atoms: C_13  and  O_14
REMARK    7  A    between atoms: O_14  and  C_15
REMARK    8  A    between atoms: C_17  and  C_18
REMARK    9  A    between atoms: C_17  and  C_20
REMARK                            x       y       z     vdW  Elec       q    Type
REMARK                         _______ _______ _______ _____ _____    ______ ____
ROOT
ATOM      1  C   UNL     1      -2.660   1.582  -1.256  0.00  0.00    +0.030 C 
ATOM      2  C   UNL     1      -3.667   2.415  -1.591  0.00  0.00    +0.072 C 
ENDROOT
BRANCH   2   3
ATOM      3  C   UNL     1      -4.840   1.899  -2.385  0.00  0.00    +0.216 C 
ATOM      4  N   UNL     1      -6.098   2.263  -1.721  0.00  0.00    -0.359 N 
ATOM      5  C   UNL     1      -6.772   3.010  -2.545  0.00  0.00    +0.060 A 
ATOM      6  C   UNL     1      -8.083   3.669  -2.452  0.00  0.00    +0.027 A 
ATOM      7  C   UNL     1      -8.536   4.398  -3.492  0.00  0.00    +0.002 A 
ATOM      8  C   UNL     1      -7.802   4.562  -4.680  0.00  0.00    +0.002 A 
ATOM      9  C   UNL     1      -6.591   4.001  -4.870  0.00  0.00    +0.027 A 
ATOM     10  C   UNL     1      -5.996   3.183  -3.803  0.00  0.00    +0.060 A 
ATOM     11  N   UNL     1      -4.871   2.535  -3.708  0.00  0.00    -0.359 N 
ATOM     12  H   UNL     1      -6.375   1.994  -0.831  0.00  0.00    +0.162 HD
ATOM     13  H   UNL     1      -4.180   2.482  -4.387  0.00  0.00    +0.162 HD
ENDBRANCH   2   3
BRANCH   1  15
ATOM     14  C   UNL     1      -2.228  -0.854  -0.971  0.00  0.00    +0.170 A 
ATOM     15  C   UNL     1      -2.632   0.211  -1.788  0.00  0.00    +0.021 A 
ATOM     16  C   UNL     1      -3.008  -0.037  -3.113  0.00  0.00    +0.012 A 
ATOM     17  C   UNL     1      -2.980  -1.323  -3.607  0.00  0.00    +0.004 A 
ATOM     18  C   UNL     1      -2.582  -2.374  -2.799  0.00  0.00    +0.049 A 
ATOM     19  C   UNL     1      -2.200  -2.144  -1.486  0.00  0.00    +0.162 A 
BRANCH  19  20
ATOM     20  O   UNL     1      -1.804  -3.182  -0.702  0.00  0.00    -0.491 OA
ATOM     21  C   UNL     1      -1.800  -4.481  -1.297  0.00  0.00    +0.277 C 
ENDBRANCH  19  20
BRANCH  14  22
ATOM     22  O   UNL     1      -1.861  -0.626   0.317  0.00  0.00    -0.474 OA
BRANCH  22  24
ATOM     23  C   UNL     1      -0.069   0.980   0.545  0.00  0.00    +0.064 C 
ATOM     24  C   UNL     1      -0.462  -0.498   0.580  0.00  0.00    +0.283 C 
BRANCH  24  25
ATOM     25  C   UNL     1      -0.152  -1.069   1.940  0.00  0.00    +0.395 C 
ATOM     26  O   UNL     1      -1.057  -1.457   2.658  0.00  0.00    -0.242 OA
ATOM     27  O   UNL     1       1.004  -1.141   2.321  0.00  0.00    -0.242 OA
ENDBRANCH  24  25
ENDBRANCH  22  24
ENDBRANCH  14  22
ENDBRANCH   1  15
BRANCH   2  28
ATOM     28  C   UNL     1      -3.623   3.789  -1.191  0.00  0.00    +0.099 C 
ATOM     29  N   UNL     1      -3.587   4.880  -0.874  0.00  0.00    -0.191 NA
ENDBRANCH   2  28
TORSDOF 7
