REMARK  Name = ZINC47845076
REMARK  7 active torsions:
REMARK  status: ('A' for Active; 'I' for Inactive)
REMARK    1  A    between atoms: C_1  and  C_2
REMARK    2  A    between atoms: C_3  and  N_14
REMARK    3  A    between atoms: C_7  and  N_8
REMARK    4  A    between atoms: N_17  and  C_18
REMARK    5  A    between atoms: C_18  and  C_19
REMARK    6  A    between atoms: C_19  and  C_21
REMARK    7  A    between atoms: C_19  and  N_26
REMARK                            x       y       z     vdW  Elec       q    Type
REMARK                         _______ _______ _______ _____ _____    ______ ____
ROOT
ATOM      1  N   UNL     1      -0.260   0.018  -2.445  0.00  0.00    -0.269 N 
ATOM      2  C   UNL     1      -0.060  -0.648  -3.600  0.00  0.00    +0.304 C 
ATOM      3  O   UNL     1       0.012  -1.862  -3.597  0.00  0.00    -0.253 OA
ATOM      4  N   UNL     1       0.061   0.031  -4.758  0.00  0.00    -0.300 N 
ATOM      5  H   UNL     1      -0.396   0.978  -2.457  0.00  0.00    +0.156 HD
ATOM      6  H   UNL     1       0.004   0.999  -4.760  0.00  0.00    +0.150 HD
ENDROOT
BRANCH   1   9
ATOM      7  C   UNL     1      -1.672   1.164  -0.258  0.00  0.00    +0.047 C 
ATOM      8  C   UNL     1      -0.949  -0.152  -0.138  0.00  0.00    -0.008 A 
ATOM      9  C   UNL     1      -0.272  -0.676  -1.230  0.00  0.00    +0.039 A 
ATOM     10  C   UNL     1       0.394  -1.889  -1.116  0.00  0.00    +0.024 A 
ATOM     11  C   UNL     1       0.383  -2.575   0.083  0.00  0.00    +0.004 A 
ATOM     12  C   UNL     1      -0.290  -2.057   1.173  0.00  0.00    +0.024 A 
ATOM     13  C   UNL     1      -0.953  -0.840   1.067  0.00  0.00    +0.041 A 
BRANCH  13  14
ATOM     14  N   UNL     1      -1.629  -0.312   2.172  0.00  0.00    -0.271 N 
ATOM     15  C   UNL     1      -3.035  -0.589   2.493  0.00  0.00    +0.114 C 
ATOM     16  C   UNL     1      -3.209  -0.176   3.971  0.00  0.00    +0.029 C 
ATOM     17  C   UNL     1      -2.090   0.877   4.139  0.00  0.00    +0.098 C 
ATOM     18  C   UNL     1      -1.073   0.508   3.081  0.00  0.00    +0.220 C 
ATOM     19  O   UNL     1       0.075   0.897   3.054  0.00  0.00    -0.275 OA
ENDBRANCH  13  14
ENDBRANCH   1   9
BRANCH   4  20
ATOM     20  C   UNL     1       0.279  -0.693  -6.012  0.00  0.00    +0.098 C 
BRANCH  20  21
ATOM     21  C   UNL     1       0.503   0.309  -7.147  0.00  0.00    +0.016 C 
BRANCH  21  22
ATOM     22  N   UNL     1       0.855  -0.415  -8.376  0.00  0.00    +0.387 N 
ATOM     23  C   UNL     1       1.261   0.544  -9.436  0.00  0.00    -0.078 C 
ATOM     24  C   UNL     1       2.105  -0.329 -10.399  0.00  0.00    -0.020 C 
ATOM     25  C   UNL     1       2.865  -1.270  -9.436  0.00  0.00    -0.020 C 
ATOM     26  C   UNL     1       2.033  -1.278  -8.140  0.00  0.00    -0.078 C 
ATOM     27  H   UNL     1       0.073  -0.971  -8.689  0.00  0.00    -0.081 HD
ENDBRANCH  21  22
BRANCH  21  28
ATOM     28  C   UNL     1      -0.759   1.101  -7.374  0.00  0.00    +0.093 A 
ATOM     29  C   UNL     1      -0.998   2.346  -6.924  0.00  0.00    +0.043 A 
ATOM     30  C   UNL     1      -2.293   2.699  -7.365  0.00  0.00    +0.041 A 
ATOM     31  C   UNL     1      -2.769   1.649  -8.059  0.00  0.00    +0.195 A 
ATOM     32  O   UNL     1      -1.833   0.686  -8.066  0.00  0.00    -0.469 OA
ENDBRANCH  21  28
ENDBRANCH  20  21
ENDBRANCH   4  20
TORSDOF 6
