REMARK  Name = ZINC64636240
REMARK  6 active torsions:
REMARK  status: ('A' for Active; 'I' for Inactive)
REMARK    1  A    between atoms: C_5  and  C_12
REMARK    2  A    between atoms: C_12  and  N_13
REMARK    3  A    between atoms: C_14  and  C_16
REMARK    4  A    between atoms: C_16  and  C_17
REMARK    5  A    between atoms: N_24  and  C_25
REMARK    6  A    between atoms: C_25  and  C_26
REMARK                            x       y       z     vdW  Elec       q    Type
REMARK                         _______ _______ _______ _____ _____    ______ ____
ROOT
ATOM      1  N   UNL     1       5.999   1.659  -1.571  0.00  0.00    -0.313 N 
ATOM      2  C   UNL     1       6.911   2.097  -2.461  0.00  0.00    +0.215 C 
ATOM      3  O   UNL     1       7.310   1.357  -3.335  0.00  0.00    -0.276 OA
ATOM      4  H   UNL     1       5.680   2.252  -0.873  0.00  0.00    +0.149 HD
ENDROOT
BRANCH   1   5
ATOM      5  C   UNL     1       5.489   0.289  -1.659  0.00  0.00    +0.132 C 
BRANCH   5  10
ATOM      6  C   UNL     1      -0.090   0.115  -1.117  0.00  0.00    +0.022 A 
ATOM      7  C   UNL     1       0.943   0.960  -0.917  0.00  0.00    +0.027 A 
ATOM      8  C   UNL     1       2.268   0.459  -0.788  0.00  0.00    +0.043 A 
ATOM      9  N   UNL     1       3.414   1.063  -0.593  0.00  0.00    -0.376 N 
ATOM     10  C   UNL     1       4.474   0.049  -0.540  0.00  0.00    +0.120 C 
ATOM     11  C   UNL     1       3.784  -1.282  -0.735  0.00  0.00    +0.009 C 
ATOM     12  C   UNL     1       2.469  -1.005  -0.881  0.00  0.00    -0.003 A 
ATOM     13  C   UNL     1       1.292  -1.855  -1.099  0.00  0.00    +0.029 A 
ATOM     14  C   UNL     1       0.074  -1.275  -1.208  0.00  0.00    +0.042 A 
ATOM     15 CL   UNL     1      -1.320  -2.277  -1.467  0.00  0.00    -0.084 Cl
ATOM     16  H   UNL     1       3.541   2.020  -0.499  0.00  0.00    +0.160 HD
ENDBRANCH   5  10
ENDBRANCH   1   5
BRANCH   2  17
ATOM     17  C   UNL     1       7.436   3.507  -2.371  0.00  0.00    +0.124 C 
BRANCH  17  18
ATOM     18  C   UNL     1       8.345   3.791  -3.568  0.00  0.00    +0.152 C 
ATOM     19  C   UNL     1       7.548   3.683  -4.837  0.00  0.00    +0.231 C 
ATOM     20  O   UNL     1       6.437   4.169  -4.868  0.00  0.00    -0.274 OA
ATOM     21  N   UNL     1       8.011   3.073  -5.933  0.00  0.00    -0.313 N 
ATOM     22  C   UNL     1       9.319   2.426  -5.988  0.00  0.00    +0.119 C 
ATOM     23  C   UNL     1      10.201   2.928  -4.843  0.00  0.00    +0.104 C 
ATOM     24  N   UNL     1       9.446   2.819  -3.585  0.00  0.00    -0.285 NA
ATOM     25  H   UNL     1       7.454   3.060  -6.727  0.00  0.00    +0.149 HD
BRANCH  24  26
ATOM     26  C   UNL     1      10.330   3.003  -2.426  0.00  0.00    +0.123 C 
BRANCH  26  27
ATOM     27  C   UNL     1      11.206   1.788  -2.264  0.00  0.00    +0.004 A 
ATOM     28  C   UNL     1      10.912   0.632  -1.506  0.00  0.00    +0.046 A 
ATOM     29  C   UNL     1      11.962  -0.198  -1.638  0.00  0.00    +0.195 A 
ATOM     30  O   UNL     1      12.872   0.391  -2.431  0.00  0.00    -0.471 OA
ATOM     31  C   UNL     1      12.417   1.594  -2.817  0.00  0.00    +0.199 A 
ENDBRANCH  26  27
ENDBRANCH  24  26
ENDBRANCH  17  18
ENDBRANCH   2  17
TORSDOF 6
