REMARK  Name = ZINC09849027
REMARK  7 active torsions:
REMARK  status: ('A' for Active; 'I' for Inactive)
REMARK    1  A    between atoms: C_4  and  N_25
REMARK    2  A    between atoms: C_6  and  C_7
REMARK    3  A    between atoms: C_7  and  O_9
REMARK    4  A    between atoms: O_9  and  C_10
REMARK    5  A    between atoms: C_10  and  C_11
REMARK    6  A    between atoms: N_13  and  C_14
REMARK    7  A    between atoms: C_15  and  C_23
REMARK                            x       y       z     vdW  Elec       q    Type
REMARK                         _______ _______ _______ _____ _____    ______ ____
ROOT
ATOM      1  C   UNL     1      -0.014   1.209   0.009  0.00  0.00    +0.255 C 
ATOM      2  O   UNL     1       0.002  -0.004   0.002  0.00  0.00    -0.272 OA
ATOM      3  N   UNL     1       1.143   1.898   0.001  0.00  0.00    -0.276 N 
ATOM      4  H   UNL     1       1.130   2.868   0.007  0.00  0.00    +0.155 HD
ENDROOT
BRANCH   3   5
ATOM      5  C   UNL     1       2.355   1.221  -0.014  0.00  0.00    +0.090 A 
ATOM      6  C   UNL     1       3.637   1.749  -0.029  0.00  0.00    +0.084 A 
ATOM      7  C   UNL     1       4.749   0.814  -0.038  0.00  0.00    -0.018 A 
ATOM      8  C   UNL     1       4.402  -0.492  -0.043  0.00  0.00    -0.004 A 
ATOM      9  S   UNL     1       2.631  -0.490  -0.026  0.00  0.00    -0.077 S 
ATOM     10  C   UNL     1       5.324  -1.672  -0.059  0.00  0.00    +0.043 C 
ATOM     11  C   UNL     1       6.727  -1.183  -0.449  0.00  0.00    +0.005 C 
ATOM     12  C   UNL     1       7.071   0.050   0.392  0.00  0.00    +0.005 C 
ATOM     13  C   UNL     1       6.213   1.237  -0.049  0.00  0.00    +0.037 C 
BRANCH   6  14
ATOM     14  C   UNL     1       3.857   3.164  -0.031  0.00  0.00    +0.102 C 
ATOM     15  N   UNL     1       4.032   4.286  -0.032  0.00  0.00    -0.191 NA
ENDBRANCH   6  14
ENDBRANCH   3   5
BRANCH   1  16
ATOM     16  C   UNL     1      -1.330   1.944   0.019  0.00  0.00    +0.328 C 
BRANCH  16  17
ATOM     17  O   UNL     1      -2.420   0.986   0.019  0.00  0.00    -0.452 OA
BRANCH  17  18
ATOM     18  C   UNL     1      -3.672   1.484   0.028  0.00  0.00    +0.340 C 
ATOM     19  O   UNL     1      -3.848   2.686   0.035  0.00  0.00    -0.245 OA
BRANCH  18  25
ATOM     20  C   UNL     1      -4.633  -0.814   0.014  0.00  0.00    +0.016 A 
ATOM     21  C   UNL     1      -5.719  -1.663   0.020  0.00  0.00    +0.018 A 
ATOM     22  C   UNL     1      -7.004  -1.148   0.029  0.00  0.00    +0.048 A 
ATOM     23  C   UNL     1      -7.208   0.222   0.037  0.00  0.00    +0.141 A 
ATOM     24  C   UNL     1      -6.130   1.082   0.037  0.00  0.00    +0.048 A 
ATOM     25  C   UNL     1      -4.831   0.568   0.028  0.00  0.00    +0.061 A 
ATOM     26 BR   UNL     1      -8.488  -2.321   0.029  0.00  0.00    -0.048 Br
BRANCH  23  27
ATOM     27  N   UNL     1      -8.585   0.764   0.046  0.00  0.00    +0.058 N 
ATOM     28  O   UNL     1      -8.765   1.968   0.054  0.00  0.00    -0.126 OA
ATOM     29  O   UNL     1      -9.538   0.005   0.046  0.00  0.00    -0.126 OA
ENDBRANCH  23  27
ENDBRANCH  18  25
ENDBRANCH  17  18
ENDBRANCH  16  17
ENDBRANCH   1  16
TORSDOF 7
