REMARK  Name = ZINC20323633
REMARK  8 active torsions:
REMARK  status: ('A' for Active; 'I' for Inactive)
REMARK    1  A    between atoms: C_1  and  C_2
REMARK    2  A    between atoms: C_2  and  O_3
REMARK    3  A    between atoms: O_3  and  C_4
REMARK    4  A    between atoms: C_7  and  N_10
REMARK    5  A    between atoms: C_11  and  C_13
REMARK    6  A    between atoms: N_23  and  N_24
REMARK    7  A    between atoms: N_24  and  S_25
REMARK    8  A    between atoms: S_25  and  C_28
REMARK                            x       y       z     vdW  Elec       q    Type
REMARK                         _______ _______ _______ _____ _____    ______ ____
ROOT
ATOM      1  C   UNL     1       4.095   2.631  -4.492  0.00  0.00    +0.099 A 
ATOM      2  C   UNL     1       5.250   2.514  -5.226  0.00  0.00    +0.030 A 
ATOM      3  C   UNL     1       5.787   1.165  -5.441  0.00  0.00    +0.018 A 
ATOM      4  C   UNL     1       7.081   0.982  -5.937  0.00  0.00    +0.011 A 
ATOM      5  C   UNL     1       7.564  -0.295  -6.127  0.00  0.00    +0.001 A 
ATOM      6  C   UNL     1       6.774  -1.394  -5.830  0.00  0.00    +0.004 A 
ATOM      7  C   UNL     1       5.492  -1.227  -5.341  0.00  0.00    +0.047 A 
ATOM      8  C   UNL     1       4.988   0.047  -5.144  0.00  0.00    +0.137 A 
ATOM      9  O   UNL     1       3.732   0.225  -4.666  0.00  0.00    -0.437 OA
ATOM     10  C   UNL     1       3.488   1.380  -3.981  0.00  0.00    +0.225 A 
ATOM     11  N   UNL     1       2.749   1.381  -2.907  0.00  0.00    -0.260 N 
ATOM     12  H   UNL     1       2.494   2.332  -2.416  0.00  0.00    +0.189 HD
ENDROOT
BRANCH   1  14
ATOM     13  N   UNL     1       2.438   4.042  -3.382  0.00  0.00    -0.281 N 
ATOM     14  C   UNL     1       3.485   3.944  -4.225  0.00  0.00    +0.253 C 
ATOM     15  O   UNL     1       3.926   4.941  -4.765  0.00  0.00    -0.270 OA
ATOM     16  H   UNL     1       2.092   3.156  -2.829  0.00  0.00    +0.155 HD
BRANCH  13  20
ATOM     17  C   UNL     1       0.507   7.701  -2.871  0.00  0.00    +0.121 A 
ATOM     18  C   UNL     1       0.618   6.821  -1.804  0.00  0.00    +0.047 A 
ATOM     19  C   UNL     1       1.258   5.609  -1.973  0.00  0.00    +0.027 A 
ATOM     20  C   UNL     1       1.789   5.271  -3.210  0.00  0.00    +0.034 A 
ATOM     21  C   UNL     1       1.682   6.154  -4.276  0.00  0.00    +0.027 A 
ATOM     22  C   UNL     1       1.038   7.364  -4.108  0.00  0.00    +0.047 A 
BRANCH  17  23
ATOM     23  O   UNL     1      -0.123   8.895  -2.704  0.00  0.00    -0.492 OA
BRANCH  23  25
ATOM     24  C   UNL     1      -0.938  11.038  -3.467  0.00  0.00    +0.048 C 
ATOM     25  C   UNL     1      -0.201   9.752  -3.845  0.00  0.00    +0.225 C 
ENDBRANCH  23  25
ENDBRANCH  17  23
ENDBRANCH  13  20
ENDBRANCH   1  14
BRANCH  11  26
ATOM     26  N   UNL     1       2.280   0.171  -2.379  0.00  0.00    -0.157 N 
ATOM     27  H   UNL     1       2.568  -0.671  -2.765  0.00  0.00    +0.194 HD
BRANCH  26  28
ATOM     28  S   UNL     1       1.232   0.179  -1.097  0.00  0.00    +0.085 S 
ATOM     29  O   UNL     1       1.841   0.963  -0.079  0.00  0.00    -0.149 OA
ATOM     30  O   UNL     1       0.838  -1.170  -0.886  0.00  0.00    -0.149 OA
BRANCH  28  31
ATOM     31  C   UNL     1      -0.211   1.052  -1.608  0.00  0.00    +0.110 A 
ATOM     32  C   UNL     1      -1.202   0.395  -2.313  0.00  0.00    +0.030 A 
ATOM     33  C   UNL     1      -2.331   1.080  -2.720  0.00  0.00    +0.022 A 
ATOM     34  C   UNL     1      -2.475   2.421  -2.411  0.00  0.00    +0.041 A 
ATOM     35  C   UNL     1      -1.483   3.078  -1.705  0.00  0.00    +0.022 A 
ATOM     36  C   UNL     1      -0.351   2.393  -1.304  0.00  0.00    +0.030 A 
ATOM     37 CL   UNL     1      -3.897   3.280  -2.914  0.00  0.00    -0.084 Cl
ENDBRANCH  28  31
ENDBRANCH  26  28
ENDBRANCH  11  26
TORSDOF 7
