REMARK  Name = ZINC22989018
REMARK  10 active torsions:
REMARK  status: ('A' for Active; 'I' for Inactive)
REMARK    1  A    between atoms: C_1  and  C_2
REMARK    2  A    between atoms: C_2  and  C_3
REMARK    3  A    between atoms: C_2  and  C_4
REMARK    4  A    between atoms: C_7  and  C_13
REMARK    5  A    between atoms: C_13  and  O_15
REMARK    6  A    between atoms: O_15  and  C_16
REMARK    7  A    between atoms: C_16  and  C_17
REMARK    8  A    between atoms: N_19  and  C_20
REMARK    9  A    between atoms: N_19  and  C_21
REMARK   10  A    between atoms: C_21  and  C_28
REMARK                            x       y       z     vdW  Elec       q    Type
REMARK                         _______ _______ _______ _____ _____    ______ ____
ROOT
ATOM      1  C   UNL     1      -0.257  -2.757   0.977  0.00  0.00    +0.254 C 
ATOM      2  O   UNL     1       0.225  -2.050   1.837  0.00  0.00    -0.272 OA
ATOM      3  N   UNL     1      -1.009  -2.213   0.000  0.00  0.00    -0.285 N 
ATOM      4  C   UNL     1      -1.591  -3.067  -1.038  0.00  0.00    +0.133 C 
ENDROOT
BRANCH   3   5
ATOM      5  C   UNL     1      -1.244  -0.767  -0.024  0.00  0.00    +0.122 C 
ATOM      6  C   UNL     1       0.097  -0.027   0.030  0.00  0.00    +0.038 C 
ATOM      7  C   UNL     1       0.891  -0.322  -1.244  0.00  0.00    +0.003 C 
ATOM      8  C   UNL     1       0.143   0.227  -2.460  0.00  0.00    +0.008 C 
ATOM      9  C   UNL     1      -1.195  -0.503  -2.607  0.00  0.00    +0.077 C 
ATOM     10  C   UNL     1      -1.956  -0.389  -1.304  0.00  0.00    +0.161 C 
ATOM     11  O   UNL     1      -3.100  -0.002  -1.285  0.00  0.00    -0.295 OA
BRANCH   5  12
ATOM     12  C   UNL     1      -2.088  -0.371   1.161  0.00  0.00    +0.002 A 
ATOM     13  C   UNL     1      -2.510  -1.332   2.060  0.00  0.00    +0.007 A 
ATOM     14  C   UNL     1      -3.285  -0.970   3.146  0.00  0.00    +0.000 A 
ATOM     15  C   UNL     1      -3.637   0.354   3.334  0.00  0.00    +0.001 A 
ATOM     16  C   UNL     1      -3.215   1.315   2.435  0.00  0.00    +0.020 A 
ATOM     17  C   UNL     1      -2.440   0.953   1.348  0.00  0.00    +0.047 A 
ATOM     18 CL   UNL     1      -1.903   2.162   0.223  0.00  0.00    -0.083 Cl
ENDBRANCH   5  12
ENDBRANCH   3   5
BRANCH   1  19
ATOM     19  C   UNL     1      -0.016  -4.245   1.002  0.00  0.00    +0.328 C 
BRANCH  19  20
ATOM     20  O   UNL     1       0.817  -4.581   2.143  0.00  0.00    -0.452 OA
BRANCH  20  21
ATOM     21  C   UNL     1       1.129  -5.881   2.311  0.00  0.00    +0.341 C 
ATOM     22  O   UNL     1       0.716  -6.711   1.525  0.00  0.00    -0.245 OA
BRANCH  21  26
ATOM     23  C   UNL     1       3.675  -9.189   5.296  0.00  0.00    +0.096 A 
ATOM     24  C   UNL     1       3.097  -7.970   4.721  0.00  0.00    +0.065 A 
ATOM     25  C   UNL     1       2.301  -7.644   3.633  0.00  0.00    +0.031 A 
ATOM     26  C   UNL     1       1.971  -6.297   3.449  0.00  0.00    +0.078 A 
ATOM     27  C   UNL     1       2.458  -5.348   4.357  0.00  0.00    +0.129 A 
ATOM     28  N   UNL     1       3.205  -5.697   5.381  0.00  0.00    -0.218 NA
ATOM     29  C   UNL     1       3.545  -6.958   5.598  0.00  0.00    +0.259 A 
ATOM     30  O   UNL     1       4.278  -7.598   6.525  0.00  0.00    -0.334 OA
ATOM     31  N   UNL     1       4.334  -8.792   6.344  0.00  0.00    -0.080 NA
BRANCH  23  33
ATOM     32  C   UNL     1       4.920 -11.160   4.451  0.00  0.00    +0.014 C 
ATOM     33  C   UNL     1       3.535 -10.599   4.782  0.00  0.00    +0.036 C 
ATOM     34  C   UNL     1       2.875 -11.469   5.854  0.00  0.00    +0.014 C 
ENDBRANCH  23  33
ENDBRANCH  21  26
ENDBRANCH  20  21
ENDBRANCH  19  20
ENDBRANCH   1  19
TORSDOF 7
