REMARK  Name = ZINC34721601
REMARK  9 active torsions:
REMARK  status: ('A' for Active; 'I' for Inactive)
REMARK    1  A    between atoms: C_1  and  O_2
REMARK    2  A    between atoms: O_2  and  C_3
REMARK    3  A    between atoms: C_8  and  C_9
REMARK    4  A    between atoms: C_10  and  C_11
REMARK    5  A    between atoms: N_13  and  C_14
REMARK    6  A    between atoms: C_14  and  N_16
REMARK    7  A    between atoms: N_16  and  C_17
REMARK    8  A    between atoms: C_19  and  N_24
REMARK    9  A    between atoms: C_22  and  O_23
REMARK                            x       y       z     vdW  Elec       q    Type
REMARK                         _______ _______ _______ _____ _____    ______ ____
ROOT
ATOM      1  C   UNL     1      -0.716  -7.111   1.905  0.00  0.00    +0.141 C 
ATOM      2  S   UNL     1      -1.172  -6.365   3.377  0.00  0.00    -0.018 S 
ENDROOT
BRANCH   1   5
ATOM      3  C   UNL     1      -0.007  -5.047   1.078  0.00  0.00    +0.242 C 
ATOM      4  O   UNL     1      -0.331  -4.516   2.124  0.00  0.00    -0.270 OA
ATOM      5  N   UNL     1      -0.182  -6.373   0.912  0.00  0.00    -0.264 N 
ATOM      6  H   UNL     1       0.077  -6.795   0.078  0.00  0.00    +0.157 HD
BRANCH   3   8
ATOM      7  C   UNL     1       0.748  -2.917   0.168  0.00  0.00    +0.016 C 
ATOM      8  C   UNL     1       0.572  -4.246   0.001  0.00  0.00    +0.068 C 
BRANCH   7  14
ATOM      9  C   UNL     1       1.514  -0.730  -0.747  0.00  0.00    +0.127 A 
ATOM     10  C   UNL     1       2.070   0.018  -1.773  0.00  0.00    +0.046 A 
ATOM     11  C   UNL     1       2.434  -0.593  -2.957  0.00  0.00    +0.004 A 
ATOM     12  C   UNL     1       2.249  -1.956  -3.130  0.00  0.00    +0.001 A 
ATOM     13  C   UNL     1       1.698  -2.716  -2.122  0.00  0.00    +0.011 A 
ATOM     14  C   UNL     1       1.330  -2.112  -0.915  0.00  0.00    +0.017 A 
BRANCH   9  16
ATOM     15  C   UNL     1       1.373   1.278   0.514  0.00  0.00    +0.277 C 
ATOM     16  O   UNL     1       1.155  -0.131   0.416  0.00  0.00    -0.495 OA
ENDBRANCH   9  16
ENDBRANCH   7  14
ENDBRANCH   3   8
ENDBRANCH   1   5
BRANCH   1  17
ATOM     17  N   UNL     1      -0.891  -8.437   1.739  0.00  0.00    -0.294 N 
ATOM     18  H   UNL     1      -0.691  -8.850   0.884  0.00  0.00    +0.154 HD
BRANCH  17  19
ATOM     19  C   UNL     1      -1.361  -9.220   2.801  0.00  0.00    +0.077 A 
ATOM     20  C   UNL     1      -2.460  -8.804   3.539  0.00  0.00    +0.059 A 
ATOM     21  C   UNL     1      -2.922  -9.578   4.586  0.00  0.00    +0.128 A 
ATOM     22  C   UNL     1      -2.292 -10.768   4.902  0.00  0.00    +0.036 A 
ATOM     23  C   UNL     1      -1.196 -11.189   4.172  0.00  0.00    +0.049 A 
ATOM     24  C   UNL     1      -0.730 -10.421   3.117  0.00  0.00    +0.138 A 
BRANCH  21  25
ATOM     25  N   UNL     1      -4.095  -9.132   5.372  0.00  0.00    +0.056 N 
ATOM     26  O   UNL     1      -4.647  -8.092   5.097  0.00  0.00    -0.126 OA
ATOM     27  O   UNL     1      -4.501  -9.808   6.288  0.00  0.00    -0.126 OA
ENDBRANCH  21  25
BRANCH  24  28
ATOM     28  O   UNL     1       0.344 -10.837   2.394  0.00  0.00    -0.505 OA
ATOM     29  H   UNL     1       1.194 -10.529   2.740  0.00  0.00    +0.292 HD
ENDBRANCH  24  28
ENDBRANCH  17  19
ENDBRANCH   1  17
TORSDOF 8
