REMARK  Name = ZINC39154611
REMARK  10 active torsions:
REMARK  status: ('A' for Active; 'I' for Inactive)
REMARK    1  A    between atoms: C_1  and  C_2
REMARK    2  A    between atoms: C_2  and  O_3
REMARK    3  A    between atoms: O_3  and  C_4
REMARK    4  A    between atoms: C_4  and  C_6
REMARK    5  A    between atoms: C_7  and  C_34
REMARK    6  A    between atoms: C_8  and  C_32
REMARK    7  A    between atoms: C_10  and  N_13
REMARK    8  A    between atoms: C_14  and  C_16
REMARK    9  A    between atoms: C_16  and  S_17
REMARK   10  A    between atoms: S_17  and  C_18
REMARK                            x       y       z     vdW  Elec       q    Type
REMARK                         _______ _______ _______ _____ _____    ______ ____
ROOT
ATOM      1  N   UNL     1      -6.772  -2.873  -0.194  0.00  0.00    -0.301 N 
ATOM      2  C   UNL     1      -7.921  -2.729   0.495  0.00  0.00    +0.224 C 
ATOM      3  O   UNL     1      -7.899  -2.682   1.707  0.00  0.00    -0.275 OA
ATOM      4  H   UNL     1      -6.789  -2.910  -1.163  0.00  0.00    +0.150 HD
ENDROOT
BRANCH   1   8
ATOM      5  C   UNL     1      -2.852  -2.419   0.009  0.00  0.00    +0.094 C 
ATOM      6  C   UNL     1      -3.174  -3.712  -0.075  0.00  0.00    -0.033 C 
ATOM      7  C   UNL     1      -4.614  -4.113  -0.053  0.00  0.00    +0.149 C 
ATOM      8  C   UNL     1      -5.497  -2.974   0.520  0.00  0.00    +0.157 C 
ATOM      9  S   UNL     1      -4.399  -1.542   0.156  0.00  0.00    -0.094 S 
ATOM     10  C   UNL     1      -2.095  -4.757  -0.192  0.00  0.00    +0.042 C 
BRANCH   5  11
ATOM     11  C   UNL     1      -1.498  -1.836  -0.009  0.00  0.00    +0.346 C 
ATOM     12  O   UNL     1      -0.524  -2.562  -0.013  0.00  0.00    -0.244 OA
BRANCH  11  13
ATOM     13  O   UNL     1      -1.340  -0.497  -0.021  0.00  0.00    -0.461 OA
BRANCH  13  15
ATOM     14  C   UNL     1      -0.021   1.528  -0.050  0.00  0.00    +0.048 C 
ATOM     15  C   UNL     1       0.000  -0.002  -0.038  0.00  0.00    +0.229 C 
ENDBRANCH  13  15
ENDBRANCH  11  13
ENDBRANCH   5  11
BRANCH   7  16
ATOM     16  C   UNL     1      -5.052  -4.420  -1.424  0.00  0.00    +0.073 C 
ATOM     17  N   UNL     1      -5.390  -4.657  -2.482  0.00  0.00    -0.196 NA
ENDBRANCH   7  16
ENDBRANCH   1   8
BRANCH   2  18
ATOM     18  C   UNL     1      -9.232  -2.625  -0.239  0.00  0.00    +0.173 C 
BRANCH  18  19
ATOM     19  S   UNL     1     -10.583  -2.440   0.958  0.00  0.00    -0.075 S 
BRANCH  19  20
ATOM     20  C   UNL     1     -12.029  -2.333  -0.043  0.00  0.00    +0.208 C 
ATOM     21  N   UNL     1     -11.886  -2.406  -1.345  0.00  0.00    -0.227 NA
ATOM     22  C   UNL     1     -13.079  -2.238  -2.170  0.00  0.00    +0.252 C 
ATOM     23  C   UNL     1     -14.253  -2.716  -1.328  0.00  0.00    +0.117 C 
ATOM     24  C   UNL     1     -14.957  -3.564  -2.128  0.00  0.00    +0.025 A 
ATOM     25  C   UNL     1     -16.192  -4.234  -1.951  0.00  0.00    +0.012 A 
ATOM     26  C   UNL     1     -16.617  -5.039  -2.961  0.00  0.00    +0.001 A 
ATOM     27  C   UNL     1     -15.914  -5.245  -4.152  0.00  0.00    +0.002 A 
ATOM     28  C   UNL     1     -14.724  -4.649  -4.432  0.00  0.00    +0.026 A 
ATOM     29  C   UNL     1     -14.187  -3.751  -3.397  0.00  0.00    +0.046 A 
ATOM     30  N   UNL     1     -13.102  -3.039  -3.386  0.00  0.00    -0.358 N 
ATOM     31  N   UNL     1     -14.351  -2.399  -0.033  0.00  0.00    -0.147 NA
ATOM     32  N   UNL     1     -13.225  -2.187   0.576  0.00  0.00    -0.122 NA
ATOM     33  H   UNL     1     -12.419  -3.040  -4.075  0.00  0.00    +0.162 HD
ENDBRANCH  19  20
ENDBRANCH  18  19
ENDBRANCH   2  18
TORSDOF 8
