REMARK  Name = ZINC08212487
REMARK  6 active torsions:
REMARK  status: ('A' for Active; 'I' for Inactive)
REMARK    1  A    between atoms: C_1  and  C_2
REMARK    2  A    between atoms: C_2  and  C_4
REMARK    3  A    between atoms: C_2  and  S_20
REMARK    4  A    between atoms: N_9  and  C_10
REMARK    5  A    between atoms: S_20  and  C_21
REMARK    6  A    between atoms: N_25  and  C_26
REMARK                            x       y       z     vdW  Elec       q    Type
REMARK                         _______ _______ _______ _____ _____    ______ ____
ROOT
ATOM      1  C   UNL     1      -1.722   5.075  -0.086  0.00  0.00    +0.234 C 
ATOM      2  O   UNL     1      -2.854   4.847   0.283  0.00  0.00    -0.274 OA
ATOM      3  N   UNL     1      -1.410   6.283  -0.597  0.00  0.00    -0.239 N 
ATOM      4  C   UNL     1      -2.357   7.237  -0.698  0.00  0.00    +0.306 C 
ATOM      5  O   UNL     1      -3.492   7.008  -0.328  0.00  0.00    -0.252 OA
ATOM      6  N   UNL     1      -2.045   8.444  -1.209  0.00  0.00    -0.294 N 
ATOM      7  H   UNL     1      -0.504   6.465  -0.892  0.00  0.00    +0.159 HD
ATOM      8  H   UNL     1      -1.139   8.627  -1.504  0.00  0.00    +0.151 HD
ENDROOT
BRANCH   6   9
ATOM      9  C   UNL     1      -3.074   9.481  -1.318  0.00  0.00    +0.037 C 
ATOM     10  C   UNL     1      -4.208   8.981  -2.216  0.00  0.00    +0.029 C 
ATOM     11  C   UNL     1      -5.283  10.064  -2.330  0.00  0.00    -0.008 C 
ATOM     12  C   UNL     1      -4.671  11.328  -2.938  0.00  0.00    +0.007 C 
ATOM     13  C   UNL     1      -3.537  11.828  -2.040  0.00  0.00    -0.008 C 
ATOM     14  C   UNL     1      -2.462  10.745  -1.926  0.00  0.00    +0.029 C 
ATOM     15  C   UNL     1      -4.090  12.146  -0.650  0.00  0.00    +0.007 C 
ATOM     16  C   UNL     1      -4.702  10.883  -0.042  0.00  0.00    -0.008 C 
ATOM     17  C   UNL     1      -5.836  10.383  -0.940  0.00  0.00    +0.007 C 
ATOM     18  C   UNL     1      -3.627   9.800   0.072  0.00  0.00    +0.029 C 
ENDBRANCH   6   9
BRANCH   1  20
ATOM     19  C   UNL     1       0.113   4.197   1.332  0.00  0.00    +0.029 C 
ATOM     20  C   UNL     1      -0.663   4.009   0.027  0.00  0.00    +0.137 C 
BRANCH  20  21
ATOM     21  S   UNL     1      -1.448   2.377   0.022  0.00  0.00    -0.072 S 
BRANCH  21  22
ATOM     22  C   UNL     1      -0.016   1.350   0.009  0.00  0.00    +0.210 A 
ATOM     23  N   UNL     1       1.236   1.754  -0.000  0.00  0.00    -0.102 NA
ATOM     24  N   UNL     1       2.033   0.747  -0.013  0.00  0.00    -0.022 NA
ATOM     25  N   UNL     1       1.363  -0.355  -0.013  0.00  0.00    -0.043 NA
ATOM     26  N   UNL     1       0.002  -0.004   0.002  0.00  0.00    -0.223 N 
ATOM     27  C   UNL     1      -1.150  -0.909   0.008  0.00  0.00    +0.177 C 
ENDBRANCH  21  22
ENDBRANCH  20  21
ENDBRANCH   1  20
TORSDOF 4
