REMARK  Name = ZINC11468739
REMARK  4 active torsions:
REMARK  status: ('A' for Active; 'I' for Inactive)
REMARK    1  A    between atoms: C_7  and  S_10
REMARK    2  A    between atoms: S_10  and  C_11
REMARK    3  A    between atoms: N_15  and  C_16
REMARK    4  A    between atoms: C_16  and  C_17
REMARK                            x       y       z     vdW  Elec       q    Type
REMARK                         _______ _______ _______ _____ _____    ______ ____
ROOT
ATOM      1  C   UNL     1       1.165  -3.726  -0.736  0.00  0.00    +0.210 A 
ATOM      2  N   UNL     1       0.151  -4.522  -0.996  0.00  0.00    -0.101 NA
ATOM      3  N   UNL     1      -0.874  -4.187  -0.299  0.00  0.00    -0.022 NA
ATOM      4  N   UNL     1      -0.597  -3.174   0.448  0.00  0.00    -0.043 NA
ATOM      5  N   UNL     1       0.742  -2.831   0.188  0.00  0.00    -0.218 N 
ENDROOT
BRANCH   1   6
ATOM      6  S   UNL     1       2.772  -3.808  -1.454  0.00  0.00    -0.072 S 
BRANCH   6  13
ATOM      7  C   UNL     1       4.675  -4.296  -3.516  0.00  0.00    +0.003 C 
ATOM      8  C   UNL     1       4.036  -3.385  -4.548  0.00  0.00    +0.019 C 
ATOM      9  C   UNL     1       2.727  -2.796  -4.020  0.00  0.00    +0.104 C 
ATOM     10  N   UNL     1       1.635  -3.741  -4.306  0.00  0.00    -0.314 N 
ATOM     11  C   UNL     1       1.536  -4.885  -3.627  0.00  0.00    +0.226 C 
ATOM     12  O   UNL     1       0.630  -5.654  -3.868  0.00  0.00    -0.275 OA
ATOM     13  C   UNL     1       2.551  -5.226  -2.557  0.00  0.00    +0.140 C 
ATOM     14  C   UNL     1       3.881  -5.560  -3.237  0.00  0.00    +0.024 C 
ATOM     15  H   UNL     1       0.984  -3.531  -4.994  0.00  0.00    +0.149 HD
ENDBRANCH   6  13
ENDBRANCH   1   6
BRANCH   5  16
ATOM     16  C   UNL     1       1.514  -1.742   0.791  0.00  0.00    +0.179 C 
BRANCH  16  17
ATOM     17  C   UNL     1       1.358  -0.476  -0.054  0.00  0.00    +0.140 C 
ATOM     18  C   UNL     1       2.211   0.674   0.537  0.00  0.00    +0.035 C 
ATOM     19  C   UNL     1       1.448   1.915  -0.002  0.00  0.00    +0.031 C 
ATOM     20  C   UNL     1      -0.017   1.428   0.010  0.00  0.00    +0.160 C 
ATOM     21  O   UNL     1       0.002  -0.004   0.002  0.00  0.00    -0.375 OA
ENDBRANCH  16  17
ENDBRANCH   5  16
TORSDOF 4
