REMARK  Name = ZINC06450039
REMARK  4 active torsions:
REMARK  status: ('A' for Active; 'I' for Inactive)
REMARK    1  A    between atoms: C_1  and  C_2
REMARK    2  A    between atoms: C_2  and  C_3
REMARK    3  A    between atoms: N_14  and  C_25
REMARK    4  A    between atoms: C_15  and  C_18
REMARK                            x       y       z     vdW  Elec       q    Type
REMARK                         _______ _______ _______ _____ _____    ______ ____
ROOT
ATOM      1  C   UNL     1      -1.125   1.492  -1.235  0.00  0.00    -0.006 C 
ATOM      2  C   UNL     1      -0.409   0.929  -0.004  0.00  0.00    +0.008 C 
ATOM      3  C   UNL     1      -1.049   1.487   1.268  0.00  0.00    +0.037 C 
ATOM      4  C   UNL     1      -1.094   3.007   1.170  0.00  0.00    -0.023 A 
ATOM      5  C   UNL     1      -0.974   3.628  -0.025  0.00  0.00    -0.004 A 
ATOM      6  S   UNL     1      -1.082   5.359   0.346  0.00  0.00    -0.078 S 
ATOM      7  C   UNL     1      -1.283   5.258   2.043  0.00  0.00    +0.080 A 
ATOM      8  C   UNL     1      -1.267   3.882   2.318  0.00  0.00    +0.069 A 
ATOM      9  C   UNL     1      -1.427   3.464   3.730  0.00  0.00    +0.251 C 
ATOM     10  O   UNL     1      -1.312   2.299   4.063  0.00  0.00    -0.270 OA
ATOM     11  N   UNL     1      -1.705   4.429   4.632  0.00  0.00    -0.272 N 
ATOM     12  C   UNL     1      -2.089   5.788   4.265  0.00  0.00    +0.193 C 
ATOM     13  N   UNL     1      -1.430   6.212   3.017  0.00  0.00    -0.316 N 
ATOM     14  C   UNL     1      -0.788   2.985  -1.364  0.00  0.00    +0.046 C 
ATOM     15  H   UNL     1      -1.115   7.121   2.890  0.00  0.00    +0.149 HD
ENDROOT
BRANCH  12  16
ATOM     16  C   UNL     1      -3.583   5.844   4.078  0.00  0.00    -0.009 A 
ATOM     17  C   UNL     1      -4.400   4.970   4.770  0.00  0.00    +0.008 A 
ATOM     18  C   UNL     1      -5.771   5.025   4.603  0.00  0.00    +0.020 A 
ATOM     19  C   UNL     1      -6.325   5.948   3.734  0.00  0.00    +0.041 A 
ATOM     20  C   UNL     1      -5.507   6.819   3.037  0.00  0.00    +0.020 A 
ATOM     21  C   UNL     1      -4.136   6.767   3.209  0.00  0.00    +0.008 A 
ATOM     22 CL   UNL     1      -8.046   6.014   3.519  0.00  0.00    -0.084 Cl
ENDBRANCH  12  16
BRANCH  11  23
ATOM     23  C   UNL     1      -1.616   4.093   6.056  0.00  0.00    +0.079 C 
ATOM     24  C   UNL     1      -2.131   5.128   7.058  0.00  0.00    +0.024 C 
ATOM     25  C   UNL     1      -0.627   4.890   6.909  0.00  0.00    +0.024 C 
ENDBRANCH  11  23
BRANCH   1  27
ATOM     26  C   UNL     1      -1.459   1.227  -3.697  0.00  0.00    +0.004 C 
ATOM     27  C   UNL     1      -0.653   0.750  -2.487  0.00  0.00    +0.000 C 
ENDBRANCH   1  27
TORSDOF 3
