REMARK  Name = ZINC33469979
REMARK  6 active torsions:
REMARK  status: ('A' for Active; 'I' for Inactive)
REMARK    1  A    between atoms: C_1  and  C_2
REMARK    2  A    between atoms: C_2  and  C_3
REMARK    3  A    between atoms: N_9  and  C_10
REMARK    4  A    between atoms: C_11  and  C_21
REMARK    5  A    between atoms: N_25  and  C_29
REMARK    6  A    between atoms: C_29  and  C_30
REMARK                            x       y       z     vdW  Elec       q    Type
REMARK                         _______ _______ _______ _____ _____    ______ ____
ROOT
ATOM      1  C   UNL     1      -2.777   5.296   0.541  0.00  0.00    +0.136 A 
ATOM      2  C   UNL     1      -2.033   4.093   0.580  0.00  0.00    +0.081 A 
ATOM      3  C   UNL     1      -0.640   4.173   0.817  0.00  0.00    +0.267 A 
ATOM      4  O   UNL     1       0.041   3.163   0.855  0.00  0.00    -0.267 OA
ATOM      5  N   UNL     1      -0.078   5.387   1.002  0.00  0.00    -0.268 N 
ATOM      6  C   UNL     1       1.264   5.473   1.231  0.00  0.00    +0.096 A 
ATOM      7  C   UNL     1       1.858   6.673   1.418  0.00  0.00    +0.018 A 
ATOM      8  C   UNL     1       1.096   7.849   1.380  0.00  0.00    +0.005 A 
ATOM      9  C   UNL     1      -0.246   7.773   1.152  0.00  0.00    +0.047 A 
ATOM     10  C   UNL     1      -0.847   6.516   0.959  0.00  0.00    +0.142 A 
ATOM     11  N   UNL     1      -2.160   6.452   0.736  0.00  0.00    -0.214 NA
ENDROOT
BRANCH   2  12
ATOM     12  C   UNL     1      -2.664   2.843   0.381  0.00  0.00    +0.037 C 
ATOM     13  C   UNL     1      -2.366   2.096  -0.722  0.00  0.00    +0.077 C 
ATOM     14  C   UNL     1      -1.557   2.424  -1.847  0.00  0.00    +0.259 C 
ATOM     15  O   UNL     1      -1.004   3.507  -1.926  0.00  0.00    -0.269 OA
ATOM     16  N   UNL     1      -1.424   1.522  -2.803  0.00  0.00    -0.251 N 
ATOM     17  C   UNL     1      -2.039   0.321  -2.715  0.00  0.00    +0.121 C 
ATOM     18  S   UNL     1      -2.007  -0.985  -3.822  0.00  0.00    -0.027 S 
ATOM     19  S   UNL     1      -2.893   0.443  -1.151  0.00  0.00    -0.061 S 
BRANCH  16  20
ATOM     20  C   UNL     1      -0.599   1.827  -3.974  0.00  0.00    +0.151 C 
BRANCH  20  21
ATOM     21  C   UNL     1      -1.482   2.292  -5.103  0.00  0.00    -0.011 A 
ATOM     22  C   UNL     1      -2.014   1.373  -5.988  0.00  0.00    +0.006 A 
ATOM     23  C   UNL     1      -2.828   1.799  -7.021  0.00  0.00    +0.000 A 
ATOM     24  C   UNL     1      -3.101   3.146  -7.176  0.00  0.00    +0.001 A 
ATOM     25  C   UNL     1      -2.565   4.066  -6.295  0.00  0.00    +0.020 A 
ATOM     26  C   UNL     1      -1.755   3.639  -5.258  0.00  0.00    +0.046 A 
ATOM     27 CL   UNL     1      -1.081   4.794  -4.151  0.00  0.00    -0.083 Cl
ENDBRANCH  20  21
ENDBRANCH  16  20
ENDBRANCH   2  12
BRANCH   1  33
ATOM     28  C   UNL     1      -4.564   6.441  -0.459  0.00  0.00    +0.075 C 
ATOM     29  C   UNL     1      -6.044   6.301  -0.824  0.00  0.00    +0.022 C 
ATOM     30  C   UNL     1      -6.871   6.174   0.458  0.00  0.00    +0.003 C 
ATOM     31  C   UNL     1      -6.371   4.970   1.261  0.00  0.00    +0.019 C 
ATOM     32  C   UNL     1      -4.882   5.149   1.566  0.00  0.00    +0.107 C 
ATOM     33  N   UNL     1      -4.134   5.264   0.307  0.00  0.00    -0.311 N 
BRANCH  28  35
ATOM     34  C   UNL     1      -4.139   7.806  -2.508  0.00  0.00    +0.006 C 
ATOM     35  C   UNL     1      -3.731   6.548  -1.738  0.00  0.00    +0.019 C 
ENDBRANCH  28  35
ENDBRANCH   1  33
TORSDOF 5
