REMARK  Name = ZINC64059641
REMARK  7 active torsions:
REMARK  status: ('A' for Active; 'I' for Inactive)
REMARK    1  A    between atoms: C_1  and  C_2
REMARK    2  A    between atoms: C_2  and  C_3
REMARK    3  A    between atoms: C_3  and  C_4
REMARK    4  A    between atoms: C_6  and  C_10
REMARK    5  A    between atoms: C_10  and  C_11
REMARK    6  A    between atoms: C_11  and  C_12
REMARK    7  A    between atoms: C_17  and  C_20
REMARK                            x       y       z     vdW  Elec       q    Type
REMARK                         _______ _______ _______ _____ _____    ______ ____
ROOT
ATOM      1  C   UNL     1       0.830  -7.050   4.212  0.00  0.00    +0.216 C 
ATOM      2  O   UNL     1       0.949  -6.511   5.292  0.00  0.00    -0.276 OA
ATOM      3  N   UNL     1       1.044  -8.375   4.092  0.00  0.00    -0.297 N 
ATOM      4  C   UNL     1       1.417  -9.197   5.255  0.00  0.00    +0.113 C 
ATOM      5  C   UNL     1       0.307 -10.226   5.484  0.00  0.00    +0.054 C 
ATOM      6  C   UNL     1      -0.089 -10.866   4.187  0.00  0.00    -0.043 C 
ATOM      7  C   UNL     1       0.169 -10.348   2.991  0.00  0.00    -0.004 C 
ATOM      8  C   UNL     1       0.907  -9.057   2.797  0.00  0.00    +0.135 C 
ENDROOT
BRANCH   6   9
ATOM      9  C   UNL     1      -0.780 -12.093   4.239  0.00  0.00    -0.015 C 
ATOM     10  C   UNL     1      -1.249 -12.745   5.373  0.00  0.00    +0.022 A 
ATOM     11  C   UNL     1      -1.199 -12.430   6.750  0.00  0.00    +0.013 A 
ATOM     12  C   UNL     1      -1.766 -13.301   7.633  0.00  0.00    +0.020 A 
ATOM     13  C   UNL     1      -2.378 -14.470   7.181  0.00  0.00    +0.113 A 
ATOM     14  N   UNL     1      -2.441 -14.790   5.915  0.00  0.00    -0.238 NA
ATOM     15  C   UNL     1      -1.910 -13.997   4.960  0.00  0.00    +0.135 A 
ATOM     16  N   UNL     1      -1.864 -14.128   3.652  0.00  0.00    -0.365 N 
ATOM     17  C   UNL     1      -1.173 -12.973   3.073  0.00  0.00    +0.150 C 
ATOM     18  H   UNL     1      -2.233 -14.871   3.150  0.00  0.00    +0.161 HD
ENDBRANCH   6   9
BRANCH   1  19
ATOM     19  C   UNL     1       0.442  -6.237   3.003  0.00  0.00    +0.100 C 
BRANCH  19  20
ATOM     20  C   UNL     1       0.261  -4.773   3.409  0.00  0.00    +0.066 C 
BRANCH  20  23
ATOM     21  C   UNL     1       0.394  -1.779   1.966  0.00  0.00    +0.103 C 
ATOM     22  N   UNL     1      -0.427  -2.564   2.572  0.00  0.00    -0.346 N 
ATOM     23  C   UNL     1      -0.132  -3.948   2.182  0.00  0.00    +0.243 C 
ATOM     24  O   UNL     1       0.971  -3.856   1.267  0.00  0.00    -0.248 OA
ATOM     25  N   UNL     1       1.257  -2.469   1.165  0.00  0.00    -0.252 N 
ATOM     26  H   UNL     1       1.953  -2.076   0.617  0.00  0.00    +0.195 HD
ATOM     27  H   UNL     1      -1.124  -2.286   3.187  0.00  0.00    +0.163 HD
BRANCH  21  28
ATOM     28  C   UNL     1       0.398  -0.280   2.117  0.00  0.00    +0.073 C 
BRANCH  28  30
ATOM     29  C   UNL     1      -0.525   1.863   1.224  0.00  0.00    +0.004 C 
ATOM     30  C   UNL     1      -0.529   0.341   1.070  0.00  0.00    +0.004 C 
ENDBRANCH  28  30
ENDBRANCH  21  28
ENDBRANCH  20  23
ENDBRANCH  19  20
ENDBRANCH   1  19
TORSDOF 6
