REMARK  Name = ZINC41077614
REMARK  5 active torsions:
REMARK  status: ('A' for Active; 'I' for Inactive)
REMARK    1  A    between atoms: C_4  and  C_7
REMARK    2  A    between atoms: C_13  and  C_17
REMARK    3  A    between atoms: C_17  and  N_18
REMARK    4  A    between atoms: N_21  and  S_24
REMARK    5  A    between atoms: S_24  and  C_27
REMARK                            x       y       z     vdW  Elec       q    Type
REMARK                         _______ _______ _______ _____ _____    ______ ____
ROOT
ATOM      1  C   UNL     1       3.696  -0.686  -0.038  0.00  0.00    +0.132 A 
ATOM      2  N   UNL     1       3.920  -1.974  -0.053  0.00  0.00    -0.154 NA
ATOM      3  N   UNL     1       5.215  -2.484  -0.069  0.00  0.00    -0.171 N 
ATOM      4  C   UNL     1       5.582  -3.800  -0.084  0.00  0.00    +0.275 A 
ATOM      5  O   UNL     1       4.729  -4.673  -0.086  0.00  0.00    -0.266 OA
ATOM      6  C   UNL     1       6.934  -4.144  -0.098  0.00  0.00    +0.096 A 
ATOM      7  C   UNL     1       7.892  -3.153  -0.097  0.00  0.00    +0.063 A 
ATOM      8  N   UNL     1       7.500  -1.881  -0.081  0.00  0.00    -0.225 NA
ATOM      9  C   UNL     1       6.229  -1.566  -0.068  0.00  0.00    +0.199 A 
ATOM     10  S   UNL     1       5.352  -0.018  -0.052  0.00  0.00    -0.028 S 
ENDROOT
BRANCH   1  14
ATOM     11  C   UNL     1      -0.017   1.379   0.010  0.00  0.00    +0.000 A 
ATOM     12  C   UNL     1       1.168   2.093   0.002  0.00  0.00    +0.001 A 
ATOM     13  C   UNL     1       2.377   1.428  -0.013  0.00  0.00    +0.010 A 
ATOM     14  C   UNL     1       2.403   0.033  -0.021  0.00  0.00    +0.009 A 
ATOM     15  C   UNL     1       1.205  -0.680  -0.013  0.00  0.00    +0.010 A 
ATOM     16  C   UNL     1       0.002  -0.004   0.002  0.00  0.00    +0.001 A 
ENDBRANCH   1  14
BRANCH   7  17
ATOM     17  C   UNL     1       9.358  -3.503  -0.111  0.00  0.00    +0.140 C 
BRANCH  17  18
ATOM     18  N   UNL     1       9.960  -3.035  -1.367  0.00  0.00    -0.294 NA
ATOM     19  C   UNL     1       9.943  -1.569  -1.445  0.00  0.00    +0.102 C 
ATOM     20  C   UNL     1      10.411  -1.129  -2.837  0.00  0.00    +0.125 C 
ATOM     21  N   UNL     1      11.715  -1.752  -3.110  0.00  0.00    -0.174 NA
ATOM     22  C   UNL     1      11.846  -3.204  -2.920  0.00  0.00    +0.125 C 
ATOM     23  C   UNL     1      11.323  -3.562  -1.525  0.00  0.00    +0.102 C 
BRANCH  21  24
ATOM     24  S   UNL     1      13.001  -0.841  -3.619  0.00  0.00    +0.067 S 
ATOM     25  O   UNL     1      13.876  -1.723  -4.308  0.00  0.00    -0.152 OA
ATOM     26  O   UNL     1      12.459   0.323  -4.227  0.00  0.00    -0.152 OA
BRANCH  24  27
ATOM     27  C   UNL     1      13.861  -0.303  -2.178  0.00  0.00    +0.144 A 
ATOM     28  C   UNL     1      14.880  -0.905  -1.518  0.00  0.00    +0.038 A 
ATOM     29  C   UNL     1      15.407  -0.293  -0.396  0.00  0.00    +0.030 A 
ATOM     30  C   UNL     1      14.888   0.893   0.011  0.00  0.00    +0.080 A 
ATOM     31  S   UNL     1      13.621   1.180  -1.214  0.00  0.00    -0.057 S 
ATOM     32 CL   UNL     1      15.342   1.878   1.366  0.00  0.00    -0.076 Cl
ENDBRANCH  24  27
ENDBRANCH  21  24
ENDBRANCH  17  18
ENDBRANCH   7  17
TORSDOF 5
