REMARK  Name = ZINC39686082
REMARK  6 active torsions:
REMARK  status: ('A' for Active; 'I' for Inactive)
REMARK    1  A    between atoms: C_1  and  C_2
REMARK    2  A    between atoms: C_2  and  C_3
REMARK    3  A    between atoms: C_2  and  C_4
REMARK    4  A    between atoms: C_9  and  N_12
REMARK    5  A    between atoms: C_13  and  C_15
REMARK    6  A    between atoms: C_26  and  C_28
REMARK                            x       y       z     vdW  Elec       q    Type
REMARK                         _______ _______ _______ _____ _____    ______ ____
ROOT
ATOM      1  C   UNL     1      -3.951  -7.302  -2.695  0.00  0.00    +0.100 C 
ATOM      2  C   UNL     1      -4.518  -6.739  -4.018  0.00  0.00    +0.121 C 
ATOM      3  N   UNL     1      -5.528  -7.734  -4.447  0.00  0.00    -0.297 N 
ATOM      4  C   UNL     1      -6.196  -8.147  -3.189  0.00  0.00    +0.115 C 
ATOM      5  C   UNL     1      -5.056  -8.225  -2.154  0.00  0.00    -0.004 C 
ATOM      6  C   UNL     1      -5.543  -7.728  -0.796  0.00  0.00    -0.010 C 
ATOM      7  C   UNL     1      -6.599  -8.693  -0.252  0.00  0.00    -0.082 C 
ATOM      8  N   UNL     1      -6.018 -10.036  -0.125  0.00  0.00    +0.379 N 
ATOM      9  C   UNL     1      -5.638 -10.544  -1.448  0.00  0.00    -0.082 C 
ATOM     10  C   UNL     1      -4.541  -9.657  -2.043  0.00  0.00    -0.010 C 
ATOM     11  C   UNL     1      -5.782  -8.167  -5.698  0.00  0.00    +0.260 C 
ATOM     12  O   UNL     1      -5.082  -7.803  -6.619  0.00  0.00    -0.271 OA
ATOM     13  H   UNL     1      -5.201  -9.992   0.465  0.00  0.00    -0.086 HD
ATOM     14  H   UNL     1      -6.697 -10.656   0.291  0.00  0.00    -0.086 HD
ENDROOT
BRANCH  11  15
ATOM     15  C   UNL     1      -6.935  -9.103  -5.952  0.00  0.00    +0.296 C 
ATOM     16  C   UNL     1      -8.259  -8.385  -5.657  0.00  0.00    +0.283 C 
ATOM     17  O   UNL     1      -9.332  -9.296  -5.921  0.00  0.00    -0.484 OA
ATOM     18  C   UNL     1      -9.267  -9.995  -7.087  0.00  0.00    +0.162 A 
ATOM     19  C   UNL     1     -10.411 -10.606  -7.579  0.00  0.00    +0.049 A 
ATOM     20  C   UNL     1     -10.360 -11.322  -8.760  0.00  0.00    +0.004 A 
ATOM     21  C   UNL     1      -9.170 -11.431  -9.454  0.00  0.00    +0.004 A 
ATOM     22  C   UNL     1      -8.027 -10.824  -8.970  0.00  0.00    +0.049 A 
ATOM     23  C   UNL     1      -8.071 -10.103  -7.786  0.00  0.00    +0.163 A 
ATOM     24  O   UNL     1      -6.938  -9.504  -7.326  0.00  0.00    -0.473 OA
ENDBRANCH  11  15
BRANCH   1  26
ATOM     25  N   UNL     1      -2.772  -6.351  -0.740  0.00  0.00    -0.312 N 
ATOM     26  C   UNL     1      -3.679  -6.184  -1.722  0.00  0.00    +0.218 C 
ATOM     27  O   UNL     1      -4.276  -5.133  -1.824  0.00  0.00    -0.275 OA
ATOM     28  H   UNL     1      -2.294  -7.192  -0.659  0.00  0.00    +0.149 HD
BRANCH  25  34
ATOM     29  C   UNL     1       0.287  -3.322   2.506  0.00  0.00    +0.218 C 
ATOM     30  O   UNL     1       0.957  -2.429   2.032  0.00  0.00    -0.275 OA
ATOM     31  N   UNL     1      -0.845  -3.715   1.891  0.00  0.00    -0.301 N 
ATOM     32  C   UNL     1      -1.729  -4.711   2.514  0.00  0.00    +0.109 C 
ATOM     33  C   UNL     1      -1.972  -5.847   1.516  0.00  0.00    +0.041 C 
ATOM     34  C   UNL     1      -2.507  -5.264   0.205  0.00  0.00    +0.076 C 
ATOM     35  C   UNL     1      -1.469  -4.311  -0.392  0.00  0.00    +0.041 C 
ATOM     36  C   UNL     1      -1.223  -3.153   0.588  0.00  0.00    +0.109 C 
BRANCH  29  38
ATOM     37  C   UNL     1       1.486  -5.274   3.454  0.00  0.00    +0.017 C 
ATOM     38  C   UNL     1       0.722  -3.991   3.785  0.00  0.00    +0.069 C 
ATOM     39  C   UNL     1       1.630  -3.045   4.573  0.00  0.00    +0.017 C 
ENDBRANCH  29  38
ENDBRANCH  25  34
ENDBRANCH   1  26
TORSDOF 4
