REMARK  Name = ZINC32639196
REMARK  7 active torsions:
REMARK  status: ('A' for Active; 'I' for Inactive)
REMARK    1  A    between atoms: C_4  and  O_7
REMARK    2  A    between atoms: O_7  and  C_8
REMARK    3  A    between atoms: C_8  and  C_9
REMARK    4  A    between atoms: C_9  and  N_11
REMARK    5  A    between atoms: N_13  and  C_24
REMARK    6  A    between atoms: C_27  and  O_30
REMARK    7  A    between atoms: O_30  and  C_31
REMARK                            x       y       z     vdW  Elec       q    Type
REMARK                         _______ _______ _______ _____ _____    ______ ____
ROOT
ATOM      1  N   UNL     1       5.121  -3.826  -0.371  0.00  0.00    -0.156 NA
ATOM      2  C   UNL     1       6.332  -4.370  -0.331  0.00  0.00    +0.154 C 
ATOM      3  N   UNL     1       7.537  -3.731  -0.205  0.00  0.00    -0.276 N 
ATOM      4  C   UNL     1       8.741  -4.440  -0.559  0.00  0.00    +0.116 C 
ATOM      5  C   UNL     1       9.660  -3.665  -1.502  0.00  0.00    +0.190 C 
ATOM      6  S   UNL     1       9.625  -4.658  -3.047  0.00  0.00    -0.028 S 
ATOM      7  O   UNL     1       8.987  -3.901  -4.066  0.00  0.00    -0.174 OA
ATOM      8  O   UNL     1      10.921  -5.190  -3.281  0.00  0.00    -0.174 OA
ATOM      9  C   UNL     1       8.507  -6.019  -2.529  0.00  0.00    +0.182 C 
ATOM     10  C   UNL     1       8.510  -5.894  -1.000  0.00  0.00    +0.097 C 
ATOM     11  S   UNL     1       6.762  -6.102  -0.421  0.00  0.00    -0.086 S 
ENDROOT
BRANCH   3  12
ATOM     12  C   UNL     1       7.598  -2.411   0.259  0.00  0.00    +0.036 A 
ATOM     13  C   UNL     1       7.367  -2.135   1.600  0.00  0.00    +0.027 A 
ATOM     14  C   UNL     1       7.428  -0.833   2.057  0.00  0.00    +0.048 A 
ATOM     15  C   UNL     1       7.720   0.198   1.176  0.00  0.00    +0.130 A 
ATOM     16  C   UNL     1       7.951  -0.077  -0.164  0.00  0.00    +0.048 A 
ATOM     17  C   UNL     1       7.897  -1.379  -0.621  0.00  0.00    +0.027 A 
BRANCH  15  18
ATOM     18  O   UNL     1       7.779   1.480   1.627  0.00  0.00    -0.406 OA
BRANCH  18  19
ATOM     19  C   UNL     1       8.086   2.492   0.665  0.00  0.00    +0.575 C 
ATOM     20  F   UNL     1       7.112   2.491  -0.339  0.00  0.00    -0.133 F 
ATOM     21  F   UNL     1       8.106   3.741   1.294  0.00  0.00    -0.133 F 
ATOM     22  F   UNL     1       9.339   2.234   0.100  0.00  0.00    -0.133 F 
ENDBRANCH  18  19
ENDBRANCH  15  18
ENDBRANCH   3  12
BRANCH   1  23
ATOM     23  C   UNL     1       4.987  -2.505  -0.450  0.00  0.00    +0.276 C 
ATOM     24  O   UNL     1       5.565  -1.886  -1.323  0.00  0.00    -0.270 OA
BRANCH  23  25
ATOM     25  C   UNL     1       4.120  -1.774   0.542  0.00  0.00    +0.326 C 
BRANCH  25  26
ATOM     26  O   UNL     1       4.137  -0.375   0.251  0.00  0.00    -0.483 OA
BRANCH  26  30
ATOM     27  C   UNL     1       1.898   2.075   2.701  0.00  0.00    +0.000 A 
ATOM     28  C   UNL     1       2.620   2.619   1.655  0.00  0.00    +0.004 A 
ATOM     29  C   UNL     1       3.370   1.801   0.833  0.00  0.00    +0.045 A 
ATOM     30  C   UNL     1       3.399   0.432   1.058  0.00  0.00    +0.121 A 
ATOM     31  C   UNL     1       2.674  -0.111   2.109  0.00  0.00    +0.045 A 
ATOM     32  C   UNL     1       1.925   0.712   2.927  0.00  0.00    +0.004 A 
ENDBRANCH  26  30
ENDBRANCH  25  26
ENDBRANCH  23  25
ENDBRANCH   1  23
TORSDOF 7
