REMARK  Name = ZINC39711077
REMARK  13 active torsions:
REMARK  status: ('A' for Active; 'I' for Inactive)
REMARK    1  A    between atoms: C_1  and  C_2
REMARK    2  A    between atoms: C_4  and  C_39
REMARK    3  A    between atoms: C_9  and  C_14
REMARK    4  A    between atoms: C_14  and  C_16
REMARK    5  A    between atoms: C_14  and  N_26
REMARK    6  A    between atoms: N_21  and  C_22
REMARK    7  A    between atoms: C_22  and  C_23
REMARK    8  A    between atoms: C_22  and  C_24
REMARK    9  A    between atoms: C_22  and  C_25
REMARK   10  A    between atoms: N_26  and  C_27
REMARK   11  A    between atoms: N_26  and  C_33
REMARK   12  A    between atoms: C_27  and  C_28
REMARK   13  A    between atoms: C_33  and  C_34
REMARK                            x       y       z     vdW  Elec       q    Type
REMARK                         _______ _______ _______ _____ _____    ______ ____
ROOT
ATOM      1  C   UNL     1      -0.883  -4.512   2.992  0.00  0.00    -0.010 C 
ENDROOT
BRANCH   1  10
ATOM      2  C   UNL     1       5.529  -3.901   6.077  0.00  0.00    +0.044 C 
ATOM      3  C   UNL     1       4.263  -3.341   5.481  0.00  0.00    -0.050 A 
ATOM      4  C   UNL     1       3.856  -2.053   5.829  0.00  0.00    +0.008 A 
ATOM      5  C   UNL     1       2.728  -1.482   5.332  0.00  0.00    -0.028 A 
ATOM      6  C   UNL     1       1.910  -2.184   4.428  0.00  0.00    +0.043 A 
ATOM      7  N   UNL     1       0.806  -1.613   3.947  0.00  0.00    -0.284 N 
ATOM      8  C   UNL     1      -0.006  -2.217   3.096  0.00  0.00    +0.223 C 
ATOM      9  O   UNL     1      -1.001  -1.645   2.691  0.00  0.00    -0.275 OA
ATOM     10  C   UNL     1       0.305  -3.620   2.627  0.00  0.00    +0.088 C 
ATOM     11  C   UNL     1       1.561  -4.274   3.171  0.00  0.00    -0.006 C 
ATOM     12  C   UNL     1       2.316  -3.547   4.043  0.00  0.00    -0.007 A 
ATOM     13  C   UNL     1       3.546  -4.099   4.612  0.00  0.00    +0.012 A 
ATOM     14  C   UNL     1       2.350  -0.085   5.753  0.00  0.00    +0.046 C 
ATOM     15  H   UNL     1       0.588  -0.713   4.235  0.00  0.00    +0.155 HD
ENDBRANCH   1  10
BRANCH   1  16
ATOM     16  C   UNL     1      -1.018  -4.584   4.515  0.00  0.00    +0.183 C 
ATOM     17  N   UNL     1      -0.083  -5.577   5.076  0.00  0.00    -0.229 N 
ATOM     18  N   UNL     1      -0.881  -6.546   5.696  0.00  0.00    -0.064 NA
ATOM     19  N   UNL     1      -2.080  -6.303   5.601  0.00  0.00    -0.061 NA
ATOM     20  N   UNL     1      -2.339  -5.117   4.897  0.00  0.00    -0.211 N 
ATOM     21  H   UNL     1       0.885  -5.563   5.024  0.00  0.00    +0.172 HD
BRANCH  20  22
ATOM     22  C   UNL     1      -3.648  -4.528   4.602  0.00  0.00    +0.047 C 
ATOM     23  C   UNL     1      -3.998  -4.774   3.133  0.00  0.00    +0.033 C 
ATOM     24  C   UNL     1      -4.711  -5.173   5.494  0.00  0.00    +0.033 C 
ATOM     25  C   UNL     1      -3.602  -3.022   4.870  0.00  0.00    +0.033 C 
ENDBRANCH  20  22
ENDBRANCH   1  16
BRANCH   1  26
ATOM     26  N   UNL     1      -0.665  -5.862   2.456  0.00  0.00    +0.392 N 
ATOM     27  H   UNL     1       0.111  -6.293   2.935  0.00  0.00    -0.080 HD
BRANCH  26  28
ATOM     28  C   UNL     1      -1.875  -6.670   2.658  0.00  0.00    -0.002 C 
BRANCH  28  29
ATOM     29  C   UNL     1      -1.603  -8.094   2.246  0.00  0.00    +0.089 A 
ATOM     30  C   UNL     1      -1.226  -9.091   3.066  0.00  0.00    +0.042 A 
ATOM     31  C   UNL     1      -1.083 -10.248   2.265  0.00  0.00    +0.041 A 
ATOM     32  C   UNL     1      -1.381  -9.887   1.003  0.00  0.00    +0.195 A 
ATOM     33  O   UNL     1      -1.701  -8.583   0.999  0.00  0.00    -0.470 OA
ENDBRANCH  28  29
ENDBRANCH  26  28
BRANCH  26  34
ATOM     34  C   UNL     1      -0.368  -5.776   1.020  0.00  0.00    -0.034 C 
BRANCH  34  35
ATOM     35  C   UNL     1      -1.510  -5.096   0.310  0.00  0.00    -0.027 A 
ATOM     36  C   UNL     1      -1.652  -3.790  -0.024  0.00  0.00    +0.009 A 
ATOM     37  C   UNL     1      -2.799  -3.387  -0.681  0.00  0.00    +0.008 A 
ATOM     38  C   UNL     1      -3.748  -4.309  -0.973  0.00  0.00    +0.045 A 
ATOM     39  S   UNL     1      -3.025  -5.804  -0.317  0.00  0.00    -0.103 S 
ENDBRANCH  34  35
ENDBRANCH  26  34
ENDBRANCH   1  26
TORSDOF 8
