REMARK  Name = ZINC09187823
REMARK  8 active torsions:
REMARK  status: ('A' for Active; 'I' for Inactive)
REMARK    1  A    between atoms: C_1  and  C_2
REMARK    2  A    between atoms: C_5  and  N_8
REMARK    3  A    between atoms: N_8  and  S_9
REMARK    4  A    between atoms: S_9  and  C_12
REMARK    5  A    between atoms: C_15  and  N_18
REMARK    6  A    between atoms: C_19  and  C_21
REMARK    7  A    between atoms: C_21  and  C_22
REMARK    8  A    between atoms: C_22  and  N_23
REMARK                            x       y       z     vdW  Elec       q    Type
REMARK                         _______ _______ _______ _____ _____    ______ ____
ROOT
ATOM      1  C   UNL     1      10.475  -0.017  -2.500  0.00  0.00    +0.109 A 
ATOM      2  C   UNL     1       9.829   0.013  -3.723  0.00  0.00    +0.030 A 
ATOM      3  C   UNL     1       8.450   0.047  -3.776  0.00  0.00    +0.025 A 
ATOM      4  C   UNL     1       7.710   0.050  -2.601  0.00  0.00    +0.033 A 
ATOM      5  C   UNL     1       8.361   0.026  -1.375  0.00  0.00    +0.025 A 
ATOM      6  C   UNL     1       9.741  -0.013  -1.328  0.00  0.00    +0.030 A 
ENDROOT
BRANCH   4   7
ATOM      7  N   UNL     1       6.312   0.084  -2.652  0.00  0.00    -0.285 N 
ATOM      8  C   UNL     1       5.658  -0.563  -3.636  0.00  0.00    +0.219 C 
ATOM      9  O   UNL     1       6.281  -1.104  -4.525  0.00  0.00    -0.275 OA
ATOM     10  H   UNL     1       5.814   0.574  -1.979  0.00  0.00    +0.155 HD
BRANCH   8  11
ATOM     11  C   UNL     1       4.152  -0.616  -3.632  0.00  0.00    +0.118 C 
BRANCH  11  12
ATOM     12  C   UNL     1       3.666  -1.405  -4.849  0.00  0.00    +0.138 C 
BRANCH  12  13
ATOM     13  N   UNL     1       2.202  -1.456  -4.845  0.00  0.00    -0.274 N 
ATOM     14  C   UNL     1       1.412  -2.433  -4.241  0.00  0.00    +0.090 A 
ATOM     15  C   UNL     1       1.703  -3.576  -3.512  0.00  0.00    +0.030 A 
ATOM     16  C   UNL     1       0.676  -4.365  -3.031  0.00  0.00    +0.002 A 
ATOM     17  C   UNL     1      -0.641  -4.018  -3.276  0.00  0.00    +0.004 A 
ATOM     18  C   UNL     1      -0.939  -2.884  -4.006  0.00  0.00    +0.048 A 
ATOM     19  C   UNL     1       0.085  -2.083  -4.488  0.00  0.00    +0.157 A 
ATOM     20  O   UNL     1       0.099  -0.937  -5.213  0.00  0.00    -0.407 OA
ATOM     21  C   UNL     1       1.372  -0.566  -5.424  0.00  0.00    +0.421 A 
ATOM     22  O   UNL     1       1.721   0.421  -6.043  0.00  0.00    -0.223 OA
ENDBRANCH  12  13
ENDBRANCH  11  12
ENDBRANCH   8  11
ENDBRANCH   4   7
BRANCH   1  23
ATOM     23  S   UNL     1      12.235  -0.060  -2.436  0.00  0.00    +0.072 S 
ATOM     24  O   UNL     1      12.581  -0.736  -1.235  0.00  0.00    -0.150 OA
ATOM     25  O   UNL     1      12.677  -0.501  -3.712  0.00  0.00    -0.150 OA
BRANCH  23  26
ATOM     26  N   UNL     1      12.757   1.502  -2.267  0.00  0.00    -0.216 N 
ATOM     27  H   UNL     1      13.298   1.911  -2.961  0.00  0.00    +0.174 HD
BRANCH  26  32
ATOM     28  C   UNL     1      11.385   4.466   2.368  0.00  0.00    +0.044 C 
ATOM     29  C   UNL     1      11.750   3.679   1.136  0.00  0.00    -0.050 A 
ATOM     30  C   UNL     1      12.718   2.694   1.209  0.00  0.00    +0.005 A 
ATOM     31  C   UNL     1      13.054   1.970   0.082  0.00  0.00    +0.025 A 
ATOM     32  C   UNL     1      12.419   2.232  -1.125  0.00  0.00    +0.048 A 
ATOM     33  C   UNL     1      11.451   3.226  -1.196  0.00  0.00    +0.025 A 
ATOM     34  C   UNL     1      11.116   3.942  -0.064  0.00  0.00    +0.005 A 
ENDBRANCH  26  32
ENDBRANCH  23  26
ENDBRANCH   1  23
TORSDOF 7
