REMARK  Name = ZINC31170180
REMARK  13 active torsions:
REMARK  status: ('A' for Active; 'I' for Inactive)
REMARK    1  A    between atoms: C_1  and  C_2
REMARK    2  A    between atoms: C_4  and  O_25
REMARK    3  A    between atoms: C_8  and  C_24
REMARK    4  A    between atoms: C_12  and  O_20
REMARK    5  A    between atoms: C_15  and  C_16
REMARK    6  A    between atoms: C_15  and  O_19
REMARK    7  A    between atoms: C_16  and  C_17
REMARK    8  A    between atoms: C_16  and  C_18
REMARK    9  A    between atoms: O_20  and  C_21
REMARK   10  A    between atoms: C_21  and  C_23
REMARK   11  A    between atoms: O_25  and  C_26
REMARK   12  A    between atoms: C_26  and  C_28
REMARK   13  A    between atoms: C_31  and  O_34
REMARK                            x       y       z     vdW  Elec       q    Type
REMARK                         _______ _______ _______ _____ _____    ______ ____
ROOT
ATOM      1  C   UNL     1      -4.406   9.229  -1.551  0.00  0.00    +0.047 C 
ATOM      2  C   UNL     1      -4.048   7.911  -0.915  0.00  0.00    -0.009 C 
ATOM      3  C   UNL     1      -3.113   7.140  -1.479  0.00  0.00    +0.024 C 
ATOM      4  C   UNL     1      -2.747   5.827  -0.813  0.00  0.00    +0.207 C 
ATOM      5  C   UNL     1      -2.092   6.159   0.517  0.00  0.00    +0.076 C 
ATOM      6  C   UNL     1      -3.123   6.182   1.648  0.00  0.00    +0.021 C 
ATOM      7  C   UNL     1      -3.958   7.448   1.615  0.00  0.00    +0.090 C 
ATOM      8  C   UNL     1      -4.731   7.491   0.315  0.00  0.00    +0.159 C 
ATOM      9  O   UNL     1      -5.903   7.180   0.289  0.00  0.00    -0.292 OA
ATOM     10  C   UNL     1      -2.253   6.067   2.913  0.00  0.00    +0.186 C 
ATOM     11  C   UNL     1      -1.146   5.066   2.502  0.00  0.00    +0.080 C 
ATOM     12  C   UNL     1      -1.060   5.115   0.960  0.00  0.00    +0.079 C 
ATOM     13  C   UNL     1      -4.038   4.961   1.538  0.00  0.00    +0.016 C 
ENDROOT
BRANCH  12  14
ATOM     14  C   UNL     1      -1.406   3.747   0.369  0.00  0.00    +0.015 C 
ATOM     15  C   UNL     1      -0.148   2.877   0.327  0.00  0.00    +0.010 C 
ATOM     16  C   UNL     1      -2.466   3.068   1.238  0.00  0.00    +0.010 C 
ENDBRANCH  12  14
BRANCH  12  17
ATOM     17  O   UNL     1       0.250   5.513   0.552  0.00  0.00    -0.388 OA
ATOM     18  H   UNL     1       1.117   4.877   0.788  0.00  0.00    +0.210 HD
ENDBRANCH  12  17
BRANCH  10  19
ATOM     19  O   UNL     1      -3.031   5.543   4.022  0.00  0.00    -0.461 OA
BRANCH  19  20
ATOM     20  C   UNL     1      -2.676   5.937   5.255  0.00  0.00    +0.304 C 
ATOM     21  O   UNL     1      -1.748   6.696   5.403  0.00  0.00    -0.251 OA
ATOM     22  C   UNL     1      -3.437   5.434   6.455  0.00  0.00    +0.136 C 
ENDBRANCH  19  20
ENDBRANCH  10  19
BRANCH   4  23
ATOM     23  O   UNL     1      -1.817   5.091  -1.651  0.00  0.00    -0.453 OA
BRANCH  23  24
ATOM     24  C   UNL     1      -2.346   4.214  -2.527  0.00  0.00    +0.340 C 
ATOM     25  O   UNL     1      -3.550   4.068  -2.589  0.00  0.00    -0.245 OA
BRANCH  24  26
ATOM     26  C   UNL     1      -1.462   3.431  -3.410  0.00  0.00    +0.059 A 
ATOM     27  C   UNL     1      -0.076   3.602  -3.345  0.00  0.00    +0.018 A 
ATOM     28  C   UNL     1       0.745   2.873  -4.176  0.00  0.00    +0.046 A 
ATOM     29  C   UNL     1       0.198   1.969  -5.079  0.00  0.00    +0.117 A 
ATOM     30  C   UNL     1      -1.179   1.796  -5.147  0.00  0.00    +0.046 A 
ATOM     31  C   UNL     1      -2.008   2.520  -4.320  0.00  0.00    +0.018 A 
BRANCH  29  32
ATOM     32  O   UNL     1       1.011   1.253  -5.896  0.00  0.00    -0.507 OA
ATOM     33  H   UNL     1       0.580   0.537  -6.611  0.00  0.00    +0.292 HD
ENDBRANCH  29  32
ENDBRANCH  24  26
ENDBRANCH  23  24
ENDBRANCH   4  23
TORSDOF 8
