REMARK  Name = ZINC18042697
REMARK  10 active torsions:
REMARK  status: ('A' for Active; 'I' for Inactive)
REMARK    1  A    between atoms: C_1  and  C_2
REMARK    2  A    between atoms: C_5  and  S_8
REMARK    3  A    between atoms: S_8  and  N_11
REMARK    4  A    between atoms: N_11  and  C_12
REMARK    5  A    between atoms: C_12  and  C_14
REMARK    6  A    between atoms: C_12  and  C_17
REMARK    7  A    between atoms: C_14  and  C_15
REMARK    8  A    between atoms: C_14  and  C_16
REMARK    9  A    between atoms: N_22  and  C_25
REMARK   10  A    between atoms: C_30  and  N_31
REMARK                            x       y       z     vdW  Elec       q    Type
REMARK                         _______ _______ _______ _____ _____    ______ ____
ROOT
ATOM      1  C   UNL     1       5.342  -2.054  -0.213  0.00  0.00    +0.235 C 
ATOM      2  O   UNL     1       5.674  -2.556   0.840  0.00  0.00    -0.274 OA
ATOM      3  N   UNL     1       5.314  -0.713  -0.342  0.00  0.00    -0.297 N 
ATOM      4  C   UNL     1       5.583   0.161   0.810  0.00  0.00    +0.126 C 
ATOM      5  C   UNL     1       4.447   1.184   0.921  0.00  0.00    +0.124 C 
ATOM      6  N   UNL     1       4.291   1.879  -0.364  0.00  0.00    -0.325 N 
ATOM      7  C   UNL     1       3.899   0.947  -1.430  0.00  0.00    +0.124 C 
ATOM      8  C   UNL     1       5.012  -0.085  -1.637  0.00  0.00    +0.126 C 
ENDROOT
BRANCH   6   9
ATOM      9  C   UNL     1       3.377   2.931  -0.257  0.00  0.00    +0.060 A 
ATOM     10  C   UNL     1       2.065   2.677   0.121  0.00  0.00    +0.027 A 
ATOM     11  C   UNL     1       1.163   3.717   0.221  0.00  0.00    +0.022 A 
ATOM     12  C   UNL     1       1.567   5.014  -0.045  0.00  0.00    +0.043 A 
ATOM     13  C   UNL     1       2.874   5.270  -0.422  0.00  0.00    +0.054 A 
ATOM     14  C   UNL     1       3.779   4.232  -0.529  0.00  0.00    +0.148 A 
ATOM     15 CL   UNL     1       0.432   6.320   0.088  0.00  0.00    -0.083 Cl
BRANCH  14  16
ATOM     16  N   UNL     1       5.177   4.507  -0.931  0.00  0.00    +0.058 N 
ATOM     17  O   UNL     1       5.529   5.648  -1.170  0.00  0.00    -0.126 OA
ATOM     18  O   UNL     1       5.975   3.591  -1.025  0.00  0.00    -0.126 OA
ENDBRANCH  14  16
ENDBRANCH   6   9
BRANCH   1  19
ATOM     19  C   UNL     1       4.962  -2.931  -1.379  0.00  0.00    +0.165 C 
BRANCH  19  20
ATOM     20  C   UNL     1       3.499  -2.679  -1.750  0.00  0.00    +0.010 C 
ATOM     21  C   UNL     1       3.153  -3.460  -3.020  0.00  0.00    +0.009 C 
ATOM     22  C   UNL     1       2.595  -3.141  -0.606  0.00  0.00    +0.009 C 
ENDBRANCH  19  20
BRANCH  19  23
ATOM     23  N   UNL     1       5.136  -4.338  -1.009  0.00  0.00    -0.178 NA
ATOM     24  H   UNL     1       4.775  -4.667  -0.171  0.00  0.00    +0.149 HD
BRANCH  23  25
ATOM     25  S   UNL     1       5.949  -5.366  -2.021  0.00  0.00    +0.059 S 
ATOM     26  O   UNL     1       5.990  -6.628  -1.371  0.00  0.00    -0.153 OA
ATOM     27  O   UNL     1       5.384  -5.193  -3.314  0.00  0.00    -0.153 OA
BRANCH  25  32
ATOM     28  C   UNL     1      11.647  -3.410  -2.353  0.00  0.00    +0.044 C 
ATOM     29  C   UNL     1      10.223  -3.898  -2.270  0.00  0.00    -0.050 A 
ATOM     30  C   UNL     1       9.862  -4.812  -1.298  0.00  0.00    +0.005 A 
ATOM     31  C   UNL     1       8.556  -5.260  -1.222  0.00  0.00    +0.029 A 
ATOM     32  C   UNL     1       7.612  -4.794  -2.118  0.00  0.00    +0.105 A 
ATOM     33  C   UNL     1       7.975  -3.885  -3.094  0.00  0.00    +0.029 A 
ATOM     34  C   UNL     1       9.280  -3.433  -3.167  0.00  0.00    +0.005 A 
ENDBRANCH  25  32
ENDBRANCH  23  25
ENDBRANCH  19  23
ENDBRANCH   1  19
TORSDOF 7
