REMARK  Name = ZINC35599896
REMARK  7 active torsions:
REMARK  status: ('A' for Active; 'I' for Inactive)
REMARK    1  A    between atoms: C_1  and  C_2
REMARK    2  A    between atoms: C_2  and  CA_3
REMARK    3  A    between atoms: CA_3  and  C_5
REMARK    4  A    between atoms: CA_3  and  N_7
REMARK    5  A    between atoms: C_5  and  O_6
REMARK    6  A    between atoms: N_7  and  C_8
REMARK    7  A    between atoms: C_13  and  N_14
REMARK                            x       y       z     vdW  Elec       q    Type
REMARK                         _______ _______ _______ _____ _____    ______ ____
ROOT
ATOM      1  C   UNL     1       2.898   0.032   2.349  0.00  0.00    +0.049 A 
ATOM      2  C   UNL     1       2.311  -0.225   3.579  0.00  0.00    +0.030 A 
ATOM      3  C   UNL     1       3.050  -0.091   4.739  0.00  0.00    -0.024 A 
ATOM      4  C   UNL     1       4.380   0.301   4.677  0.00  0.00    +0.038 A 
ATOM      5  C   UNL     1       4.973   0.558   3.449  0.00  0.00    +0.048 A 
ATOM      6  C   UNL     1       4.236   0.419   2.283  0.00  0.00    +0.047 A 
ATOM      7  N   UNL     1       5.124   0.435   5.857  0.00  0.00    -0.285 N 
ATOM      8  C   UNL     1       4.709  -0.150   6.995  0.00  0.00    +0.218 C 
ATOM      9  O   UNL     1       5.356  -0.012   8.011  0.00  0.00    -0.275 OA
ATOM     10  C   UNL     1       3.450  -0.974   7.022  0.00  0.00    +0.101 C 
ATOM     11  C   UNL     1       2.412  -0.369   6.076  0.00  0.00    +0.046 C 
ATOM     12  H   UNL     1       5.944   0.954   5.853  0.00  0.00    +0.155 HD
ENDROOT
BRANCH   6  13
ATOM     13  N   UNL     1       4.832   0.673   1.042  0.00  0.00    -0.356 N 
ATOM     14  H   UNL     1       4.315   0.579   0.227  0.00  0.00    +0.142 HD
ATOM     15  H   UNL     1       5.763   0.942   0.997  0.00  0.00    +0.142 HD
ENDBRANCH   6  13
BRANCH   1  16
ATOM     16  N   UNL     1       2.148  -0.104   1.172  0.00  0.00    -0.337 N 
ATOM     17  H   UNL     1       2.559   0.072   0.311  0.00  0.00    +0.146 HD
BRANCH  16  18
ATOM     18  CA  UNL     1       0.742  -0.511   1.242  0.00  0.00    +0.095 C 
BRANCH  18  20
ATOM     19  C   UNL     1      -0.019   1.526   0.010  0.00  0.00    +0.006 C 
ATOM     20  C   UNL     1       0.002  -0.004   0.002  0.00  0.00    +0.021 C 
ENDBRANCH  18  20
BRANCH  18  21
ATOM     21  C   UNL     1       0.655  -2.037   1.299  0.00  0.00    +0.178 C 
BRANCH  21  22
ATOM     22  O   UNL     1       1.148  -2.588   0.076  0.00  0.00    -0.393 OA
ATOM     23  H   UNL     1       1.123  -3.555   0.041  0.00  0.00    +0.209 HD
ENDBRANCH  21  22
ENDBRANCH  18  21
ENDBRANCH  16  18
ENDBRANCH   1  16
TORSDOF 6
