REMARK  Name = ZINC00642657
REMARK  9 active torsions:
REMARK  status: ('A' for Active; 'I' for Inactive)
REMARK    1  A    between atoms: C_1  and  C_2
REMARK    2  A    between atoms: C_2  and  O_3
REMARK    3  A    between atoms: O_3  and  C_4
REMARK    4  A    between atoms: C_7  and  N_10
REMARK    5  A    between atoms: C_11  and  C_29
REMARK    6  A    between atoms: C_13  and  C_28
REMARK    7  A    between atoms: N_15  and  C_20
REMARK    8  A    between atoms: C_20  and  C_21
REMARK    9  A    between atoms: C_21  and  N_22
REMARK                            x       y       z     vdW  Elec       q    Type
REMARK                         _______ _______ _______ _____ _____    ______ ____
ROOT
ATOM      1  N   UNL     1       1.635  -5.902  -1.857  0.00  0.00    -0.236 N 
ATOM      2  C   UNL     1       1.511  -6.521  -3.050  0.00  0.00    +0.052 A 
ATOM      3  C   UNL     1       1.455  -7.868  -2.795  0.00  0.00    +0.051 A 
ATOM      4  C   UNL     1       1.328  -9.102  -3.567  0.00  0.00    +0.070 A 
ATOM      5  N   UNL     1       1.310 -10.247  -2.954  0.00  0.00    -0.173 NA
ATOM      6  N   UNL     1       1.406 -10.378  -1.570  0.00  0.00    -0.229 N 
ATOM      7  C   UNL     1       1.527  -9.318  -0.745  0.00  0.00    +0.295 A 
ATOM      8  O   UNL     1       1.609  -9.476   0.460  0.00  0.00    -0.264 OA
ATOM      9  C   UNL     1       1.560  -7.972  -1.327  0.00  0.00    +0.161 A 
ATOM     10  N   UNL     1       1.667  -6.743  -0.884  0.00  0.00    -0.161 NA
ATOM     11  C   UNL     1       1.218  -9.046  -5.068  0.00  0.00    +0.068 C 
ATOM     12  C   UNL     1       1.446  -5.859  -4.402  0.00  0.00    +0.066 C 
ENDROOT
BRANCH   1  16
ATOM     13  C   UNL     1       1.904  -1.768  -1.382  0.00  0.00    +0.121 A 
ATOM     14  C   UNL     1       1.244  -2.534  -0.432  0.00  0.00    +0.048 A 
ATOM     15  C   UNL     1       1.155  -3.902  -0.588  0.00  0.00    +0.031 A 
ATOM     16  C   UNL     1       1.725  -4.513  -1.697  0.00  0.00    +0.066 A 
ATOM     17  C   UNL     1       2.385  -3.746  -2.649  0.00  0.00    +0.031 A 
ATOM     18  C   UNL     1       2.470  -2.377  -2.494  0.00  0.00    +0.048 A 
BRANCH  13  19
ATOM     19  O   UNL     1       1.992  -0.421  -1.227  0.00  0.00    -0.492 OA
BRANCH  19  21
ATOM     20  C   UNL     1       1.588   1.656  -0.059  0.00  0.00    +0.048 C 
ATOM     21  C   UNL     1       1.387   0.139  -0.060  0.00  0.00    +0.225 C 
ENDBRANCH  19  21
ENDBRANCH  13  19
ENDBRANCH   1  16
BRANCH   6  22
ATOM     22  C   UNL     1       1.375 -11.722  -0.988  0.00  0.00    +0.129 C 
BRANCH  22  23
ATOM     23  C   UNL     1      -0.073 -12.110  -0.678  0.00  0.00    -0.055 C 
BRANCH  23  24
ATOM     24  N   UNL     1      -0.104 -13.457  -0.094  0.00  0.00    +0.381 N 
ATOM     25  C   UNL     1       0.362 -14.431  -1.089  0.00  0.00    -0.079 C 
ATOM     26  C   UNL     1       0.408 -15.825  -0.461  0.00  0.00    -0.019 C 
ATOM     27  C   UNL     1      -0.996 -16.212   0.015  0.00  0.00    -0.004 C 
ATOM     28  C   UNL     1      -1.502 -15.150   0.995  0.00  0.00    -0.019 C 
ATOM     29  C   UNL     1      -1.477 -13.780   0.313  0.00  0.00    -0.079 C 
ATOM     30  H   UNL     1       0.501 -13.488   0.713  0.00  0.00    -0.082 HD
ENDBRANCH  23  24
ENDBRANCH  22  23
ENDBRANCH   6  22
TORSDOF 6
