REMARK  Name = ZINC64507229
REMARK  12 active torsions:
REMARK  status: ('A' for Active; 'I' for Inactive)
REMARK    1  A    between atoms: C_1  and  C_2
REMARK    2  A    between atoms: C_2  and  C_3
REMARK    3  A    between atoms: C_3  and  C_5
REMARK    4  A    between atoms: C_3  and  N_21
REMARK    5  A    between atoms: N_7  and  C_8
REMARK    6  A    between atoms: C_8  and  C_9
REMARK    7  A    between atoms: C_9  and  C_10
REMARK    8  A    between atoms: C_13  and  O_19
REMARK    9  A    between atoms: O_19  and  C_20
REMARK   10  A    between atoms: C_25  and  C_38
REMARK   11  A    between atoms: N_26  and  C_32
REMARK   12  A    between atoms: C_29  and  C_31
REMARK                            x       y       z     vdW  Elec       q    Type
REMARK                         _______ _______ _______ _____ _____    ______ ____
ROOT
ATOM      1  C   UNL     1      -1.869  -1.104   0.008  0.00  0.00    +0.196 C 
ENDROOT
BRANCH   1   2
ATOM      2  N   UNL     1      -2.419  -0.557  -1.235  0.00  0.00    -0.217 N 
ATOM      3  C   UNL     1      -3.420   0.344  -1.160  0.00  0.00    +0.279 A 
ATOM      4  O   UNL     1      -3.858   0.697  -0.080  0.00  0.00    -0.265 OA
ATOM      5  C   UNL     1      -3.969   0.892  -2.404  0.00  0.00    +0.091 A 
ATOM      6  C   UNL     1      -4.951   1.792  -2.733  0.00  0.00    +0.055 A 
ATOM      7  N   UNL     1      -4.992   1.884  -4.074  0.00  0.00    -0.236 N 
ATOM      8  N   UNL     1      -4.029   1.037  -4.637  0.00  0.00    -0.164 NA
ATOM      9  C   UNL     1      -3.388   0.419  -3.673  0.00  0.00    +0.121 A 
ATOM     10  C   UNL     1      -2.304  -0.564  -3.603  0.00  0.00    +0.086 A 
ATOM     11  N   UNL     1      -1.884  -0.983  -2.448  0.00  0.00    -0.171 NA
ATOM     12  C   UNL     1      -1.672  -1.083  -4.869  0.00  0.00    +0.070 C 
ATOM     13  C   UNL     1      -5.827   2.544  -1.764  0.00  0.00    +0.066 C 
BRANCH   7  14
ATOM     14  C   UNL     1      -5.866   2.704  -4.800  0.00  0.00    +0.066 A 
ATOM     15  C   UNL     1      -6.110   4.005  -4.379  0.00  0.00    +0.028 A 
ATOM     16  C   UNL     1      -6.973   4.810  -5.096  0.00  0.00    +0.002 A 
ATOM     17  C   UNL     1      -7.593   4.323  -6.231  0.00  0.00    +0.000 A 
ATOM     18  C   UNL     1      -7.352   3.028  -6.653  0.00  0.00    +0.002 A 
ATOM     19  C   UNL     1      -6.486   2.219  -5.944  0.00  0.00    +0.028 A 
ENDBRANCH   7  14
ENDBRANCH   1   2
BRANCH   1  20
ATOM     20  C   UNL     1      -2.044  -2.601   0.019  0.00  0.00    +0.238 C 
ATOM     21  O   UNL     1      -2.576  -3.156  -0.919  0.00  0.00    -0.273 OA
ATOM     22  N   UNL     1      -1.609  -3.323   1.071  0.00  0.00    -0.313 N 
ATOM     23  H   UNL     1      -1.184  -2.879   1.821  0.00  0.00    +0.149 HD
BRANCH  22  24
ATOM     24  C   UNL     1      -1.780  -4.778   1.081  0.00  0.00    +0.108 C 
BRANCH  24  25
ATOM     25  C   UNL     1      -1.206  -5.349   2.379  0.00  0.00    +0.052 C 
BRANCH  25  26
ATOM     26  C   UNL     1      -1.381  -6.846   2.390  0.00  0.00    -0.040 C 
ATOM     27  C   UNL     1      -0.473  -7.773   2.010  0.00  0.00    +0.002 A 
ATOM     28  C   UNL     1       0.896  -7.673   1.492  0.00  0.00    +0.055 A 
ATOM     29  C   UNL     1       1.579  -8.802   1.190  0.00  0.00    +0.121 A 
ATOM     30  C   UNL     1       1.023 -10.083   1.353  0.00  0.00    +0.047 A 
ATOM     31  C   UNL     1      -0.228 -10.277   1.822  0.00  0.00    +0.029 A 
ATOM     32  C   UNL     1      -1.058  -9.123   2.182  0.00  0.00    +0.043 A 
ATOM     33  N   UNL     1      -2.278  -9.033   2.650  0.00  0.00    -0.380 N 
ATOM     34  C   UNL     1      -2.605  -7.615   2.834  0.00  0.00    +0.144 C 
ATOM     35  H   UNL     1      -2.866  -9.780   2.845  0.00  0.00    +0.160 HD
BRANCH  29  36
ATOM     36  O   UNL     1       2.847  -8.694   0.710  0.00  0.00    -0.495 OA
ATOM     37  C   UNL     1       3.531  -9.911   0.404  0.00  0.00    +0.277 C 
ENDBRANCH  29  36
ENDBRANCH  25  26
ENDBRANCH  24  25
ENDBRANCH  22  24
ENDBRANCH   1  20
BRANCH   1  39
ATOM     38  C   UNL     1      -0.209   0.752   0.215  0.00  0.00    +0.006 C 
ATOM     39  C   UNL     1      -0.380  -0.764   0.100  0.00  0.00    +0.033 C 
ENDBRANCH   1  39
TORSDOF 8
