REMARK  Name = ZINC61826053
REMARK  7 active torsions:
REMARK  status: ('A' for Active; 'I' for Inactive)
REMARK    1  A    between atoms: C_1  and  C_2
REMARK    2  A    between atoms: C_2  and  C_3
REMARK    3  A    between atoms: C_2  and  O_4
REMARK    4  A    between atoms: O_4  and  C_5
REMARK    5  A    between atoms: C_11  and  O_19
REMARK    6  A    between atoms: C_14  and  C_17
REMARK    7  A    between atoms: C_14  and  C_18
REMARK                            x       y       z     vdW  Elec       q    Type
REMARK                         _______ _______ _______ _____ _____    ______ ____
ROOT
ATOM      1  C   UNL     1       1.994  -0.752  -1.054  0.00  0.00    +0.121 A 
ATOM      2  C   UNL     1       2.628  -0.603   0.171  0.00  0.00    +0.046 A 
ATOM      3  C   UNL     1       3.975  -0.889   0.289  0.00  0.00    +0.007 A 
ATOM      4  C   UNL     1       4.683  -1.328  -0.817  0.00  0.00    -0.041 A 
ATOM      5  C   UNL     1       4.060  -1.485  -2.025  0.00  0.00    -0.013 A 
ATOM      6  C   UNL     1       2.711  -1.195  -2.156  0.00  0.00    +0.052 A 
ATOM      7  C   UNL     1       4.820  -1.988  -3.232  0.00  0.00    +0.145 C 
ATOM      8  C   UNL     1       5.814  -0.942  -3.704  0.00  0.00    +0.042 C 
ATOM      9  C   UNL     1       7.079  -0.801  -2.901  0.00  0.00    -0.032 C 
ATOM     10  C   UNL     1       6.939  -0.544  -1.420  0.00  0.00    +0.011 C 
ATOM     11  C   UNL     1       6.162  -1.626  -0.677  0.00  0.00    +0.036 C 
ATOM     12  C   UNL     1       7.988  -2.010  -3.127  0.00  0.00    +0.011 C 
ATOM     13  C   UNL     1       7.833   0.418  -3.483  0.00  0.00    +0.011 C 
ENDROOT
BRANCH   7  14
ATOM     14  O   UNL     1       5.424  -3.247  -2.962  0.00  0.00    -0.387 OA
ATOM     15  H   UNL     1       4.795  -3.942  -2.727  0.00  0.00    +0.210 HD
ENDBRANCH   7  14
BRANCH   1  16
ATOM     16  O   UNL     1       0.671  -0.465  -1.174  0.00  0.00    -0.489 OA
BRANCH  16  18
ATOM     17  C   UNL     1      -0.295  -1.968  -2.801  0.00  0.00    +0.051 C 
ATOM     18  C   UNL     1       0.110  -0.526  -2.487  0.00  0.00    +0.167 C 
ATOM     19  C   UNL     1      -1.123   0.377  -2.557  0.00  0.00    +0.051 C 
ENDBRANCH  16  18
ENDBRANCH   1  16
TORSDOF 3
