REMARK  Name = ZINC47152372
REMARK  7 active torsions:
REMARK  status: ('A' for Active; 'I' for Inactive)
REMARK    1  A    between atoms: C_1  and  C_2
REMARK    2  A    between atoms: C_2  and  C_4
REMARK    3  A    between atoms: C_2  and  N_16
REMARK    4  A    between atoms: N_6  and  C_7
REMARK    5  A    between atoms: C_10  and  N_13
REMARK    6  A    between atoms: C_20  and  C_21
REMARK    7  A    between atoms: C_26  and  O_27
REMARK                            x       y       z     vdW  Elec       q    Type
REMARK                         _______ _______ _______ _____ _____    ______ ____
ROOT
ATOM      1  N   UNL     1       1.167  -1.121   0.894  0.00  0.00    -0.244 N 
ATOM      2  C   UNL     1       0.421  -1.598   1.876  0.00  0.00    +0.259 C 
ATOM      3  O   UNL     1      -0.756  -1.862   1.715  0.00  0.00    -0.269 OA
ATOM      4  C   UNL     1       1.089  -1.795   3.178  0.00  0.00    +0.077 C 
ATOM      5  C   UNL     1       0.584  -2.263   4.348  0.00  0.00    +0.031 C 
ATOM      6  S   UNL     1       2.746  -1.248   2.790  0.00  0.00    -0.061 S 
ATOM      7  C   UNL     1       2.472  -0.835   1.075  0.00  0.00    +0.121 C 
ATOM      8  S   UNL     1       3.595  -0.222  -0.063  0.00  0.00    -0.027 S 
ENDROOT
BRANCH   5   9
ATOM      9  C   UNL     1       1.474  -2.497   5.491  0.00  0.00    +0.018 A 
ATOM     10  C   UNL     1       2.856  -2.616   5.295  0.00  0.00    +0.011 A 
ATOM     11  C   UNL     1       3.685  -2.835   6.373  0.00  0.00    +0.001 A 
ATOM     12  C   UNL     1       3.159  -2.938   7.651  0.00  0.00    +0.004 A 
ATOM     13  C   UNL     1       1.798  -2.822   7.859  0.00  0.00    +0.046 A 
ATOM     14  C   UNL     1       0.948  -2.596   6.789  0.00  0.00    +0.124 A 
BRANCH  14  15
ATOM     15  O   UNL     1      -0.389  -2.477   6.994  0.00  0.00    -0.506 OA
ATOM     16  H   UNL     1      -0.870  -3.314   6.948  0.00  0.00    +0.292 HD
ENDBRANCH  14  15
ENDBRANCH   5   9
BRANCH   1  18
ATOM     17  C   UNL     1       0.684   0.575  -0.801  0.00  0.00    +0.038 C 
ATOM     18  C   UNL     1       0.562  -0.903  -0.423  0.00  0.00    +0.166 C 
BRANCH  18  19
ATOM     19  C   UNL     1       1.276  -1.745  -1.449  0.00  0.00    +0.238 C 
ATOM     20  O   UNL     1       2.199  -2.457  -1.113  0.00  0.00    -0.273 OA
ATOM     21  N   UNL     1       0.889  -1.706  -2.739  0.00  0.00    -0.284 N 
ATOM     22  H   UNL     1       0.090  -1.218  -2.991  0.00  0.00    +0.155 HD
BRANCH  21  23
ATOM     23  C   UNL     1       1.639  -2.371  -3.715  0.00  0.00    +0.034 A 
ATOM     24  C   UNL     1       1.790  -1.813  -4.978  0.00  0.00    +0.025 A 
ATOM     25  C   UNL     1       2.532  -2.472  -5.938  0.00  0.00    +0.034 A 
ATOM     26  C   UNL     1       3.124  -3.686  -5.644  0.00  0.00    +0.126 A 
ATOM     27  C   UNL     1       2.976  -4.245  -4.388  0.00  0.00    +0.034 A 
ATOM     28  C   UNL     1       2.241  -3.588  -3.421  0.00  0.00    +0.025 A 
BRANCH  26  29
ATOM     29  N   UNL     1       3.918  -4.389  -6.677  0.00  0.00    +0.056 N 
ATOM     30  O   UNL     1       4.048  -3.902  -7.775  0.00  0.00    -0.126 OA
ATOM     31  O   UNL     1       4.437  -5.451  -6.421  0.00  0.00    -0.126 OA
ENDBRANCH  26  29
ENDBRANCH  21  23
ENDBRANCH  18  19
ENDBRANCH   1  18
TORSDOF 6
