REMARK  Name = ZINC08414507
REMARK  6 active torsions:
REMARK  status: ('A' for Active; 'I' for Inactive)
REMARK    1  A    between atoms: C_1  and  C_2
REMARK    2  A    between atoms: C_9  and  C_11
REMARK    3  A    between atoms: C_14  and  N_17
REMARK    4  A    between atoms: C_21  and  N_57
REMARK    5  A    between atoms: C_25  and  N_57
REMARK    6  A    between atoms: C_31  and  C_33
REMARK                            x       y       z     vdW  Elec       q    Type
REMARK                         _______ _______ _______ _____ _____    ______ ____
ROOT
ATOM      1  N   UNL     1       0.634   2.570  -1.740  0.00  0.00    -0.212 N 
ATOM      2  C   UNL     1       1.812   2.425  -1.120  0.00  0.00    +0.225 C 
ATOM      3  O   UNL     1       2.867   2.884  -1.501  0.00  0.00    -0.275 OA
ATOM      4  C   UNL     1       1.617   1.598   0.132  0.00  0.00    +0.090 C 
ATOM      5  C   UNL     1       0.106   1.287   0.128  0.00  0.00    +0.026 C 
ATOM      6  C   UNL     1      -0.394   1.971  -1.125  0.00  0.00    +0.213 C 
ATOM      7  O   UNL     1      -1.542   1.976  -1.512  0.00  0.00    -0.277 OA
ENDROOT
BRANCH   1  11
ATOM      8  C   UNL     1       0.202   4.714  -5.291  0.00  0.00    +0.007 A 
ATOM      9  C   UNL     1       0.016   3.331  -5.282  0.00  0.00    +0.012 A 
ATOM     10  C   UNL     1       0.159   2.625  -4.107  0.00  0.00    +0.024 A 
ATOM     11  C   UNL     1       0.489   3.290  -2.932  0.00  0.00    +0.044 A 
ATOM     12  C   UNL     1       0.669   4.668  -2.936  0.00  0.00    +0.024 A 
ATOM     13  C   UNL     1       0.532   5.379  -4.108  0.00  0.00    +0.012 A 
BRANCH   8  22
ATOM     14  C   UNL     1      -0.594   8.818 -11.944  0.00  0.00    +0.044 C 
ATOM     15  C   UNL     1      -0.512   7.790 -10.846  0.00  0.00    -0.049 A 
ATOM     16  C   UNL     1      -0.750   6.450 -11.121  0.00  0.00    +0.005 A 
ATOM     17  C   UNL     1      -0.682   5.499 -10.153  0.00  0.00    +0.029 A 
ATOM     18  C   UNL     1      -0.363   5.845  -8.817  0.00  0.00    +0.079 A 
ATOM     19  C   UNL     1      -0.127   7.217  -8.568  0.00  0.00    +0.040 A 
ATOM     20  C   UNL     1      -0.198   8.170  -9.555  0.00  0.00    +0.020 A 
ATOM     21  S   UNL     1       0.229   7.230  -6.828  0.00  0.00    -0.067 S 
ATOM     22  C   UNL     1       0.048   5.474  -6.549  0.00  0.00    +0.109 A 
ATOM     23  N   UNL     1      -0.251   5.029  -7.750  0.00  0.00    -0.239 NA
ENDBRANCH   8  22
ENDBRANCH   1  11
BRANCH   5  24
ATOM     24  N   UNL     1      -0.545   1.859   1.321  0.00  0.00    +0.389 N 
ATOM     25  H   UNL     1      -1.541   2.011   1.123  0.00  0.00    -0.084 HD
ATOM     26  H   UNL     1      -0.102   2.756   1.552  0.00  0.00    -0.084 HD
BRANCH  24  27
ATOM     27  C   UNL     1      -0.412   0.941   2.468  0.00  0.00    -0.068 C 
ATOM     28  C   UNL     1      -1.566  -0.064   2.454  0.00  0.00    -0.015 C 
ATOM     29  C   UNL     1      -1.433  -1.011   3.648  0.00  0.00    -0.002 C 
ATOM     30  C   UNL     1      -1.476  -0.203   4.947  0.00  0.00    +0.000 C 
ATOM     31  C   UNL     1      -0.321   0.802   4.961  0.00  0.00    +0.002 C 
ATOM     32  C   UNL     1      -0.455   1.749   3.767  0.00  0.00    -0.028 C 
ATOM     33  C   UNL     1      -1.785   2.499   3.857  0.00  0.00    +0.006 C 
ENDBRANCH  24  27
ENDBRANCH   5  24
TORSDOF 4
