REMARK  Name = ZINC39710559
REMARK  13 active torsions:
REMARK  status: ('A' for Active; 'I' for Inactive)
REMARK    1  A    between atoms: C_1  and  C_2
REMARK    2  A    between atoms: C_2  and  C_3
REMARK    3  A    between atoms: C_10  and  C_15
REMARK    4  A    between atoms: C_15  and  C_17
REMARK    5  A    between atoms: C_15  and  N_27
REMARK    6  A    between atoms: N_22  and  C_23
REMARK    7  A    between atoms: C_23  and  C_24
REMARK    8  A    between atoms: C_23  and  C_25
REMARK    9  A    between atoms: C_23  and  C_26
REMARK   10  A    between atoms: N_27  and  C_28
REMARK   11  A    between atoms: N_27  and  C_34
REMARK   12  A    between atoms: C_28  and  C_29
REMARK   13  A    between atoms: C_34  and  C_35
REMARK                            x       y       z     vdW  Elec       q    Type
REMARK                         _______ _______ _______ _____ _____    ______ ____
ROOT
ATOM      1  C   UNL     1       5.995  -0.943  -4.180  0.00  0.00    -0.008 C 
ENDROOT
BRANCH   1   9
ATOM      2  C   UNL     1       6.432  -5.805  -0.983  0.00  0.00    -0.047 A 
ATOM      3  C   UNL     1       5.935  -5.162   0.151  0.00  0.00    +0.005 A 
ATOM      4  C   UNL     1       5.351  -3.936   0.102  0.00  0.00    +0.024 A 
ATOM      5  C   UNL     1       5.223  -3.255  -1.123  0.00  0.00    +0.040 A 
ATOM      6  N   UNL     1       4.649  -2.053  -1.159  0.00  0.00    -0.285 N 
ATOM      7  C   UNL     1       4.497  -1.359  -2.275  0.00  0.00    +0.223 C 
ATOM      8  O   UNL     1       3.964  -0.265  -2.246  0.00  0.00    -0.275 OA
ATOM      9  C   UNL     1       4.987  -1.929  -3.586  0.00  0.00    +0.088 C 
ATOM     10  C   UNL     1       5.642  -3.297  -3.550  0.00  0.00    -0.006 C 
ATOM     11  C   UNL     1       5.740  -3.911  -2.337  0.00  0.00    -0.007 A 
ATOM     12  C   UNL     1       6.362  -5.229  -2.210  0.00  0.00    +0.013 A 
ATOM     13  H   UNL     1       4.327  -1.669  -0.329  0.00  0.00    +0.155 HD
BRANCH   2  15
ATOM     14  C   UNL     1       8.564  -7.004  -0.575  0.00  0.00    +0.009 C 
ATOM     15  C   UNL     1       7.066  -7.165  -0.841  0.00  0.00    +0.032 C 
ENDBRANCH   2  15
ENDBRANCH   1   9
BRANCH   1  16
ATOM     16  C   UNL     1       7.198  -0.816  -3.242  0.00  0.00    +0.205 C 
ATOM     17  N   UNL     1       7.791  -2.136  -2.988  0.00  0.00    -0.152 NA
ATOM     18  N   UNL     1       7.722  -2.379  -1.781  0.00  0.00    -0.070 NA
ATOM     19  N   UNL     1       7.119  -1.353  -1.055  0.00  0.00    -0.179 N 
ATOM     20  N   UNL     1       6.766  -0.339  -1.911  0.00  0.00    -0.183 NA
ATOM     21  H   UNL     1       6.971  -1.354  -0.096  0.00  0.00    +0.191 HD
BRANCH  20  22
ATOM     22  C   UNL     1       7.445   0.914  -1.556  0.00  0.00    +0.035 C 
ATOM     23  C   UNL     1       7.112   1.987  -2.594  0.00  0.00    +0.029 C 
ATOM     24  C   UNL     1       6.974   1.376  -0.175  0.00  0.00    +0.029 C 
ATOM     25  C   UNL     1       8.958   0.684  -1.527  0.00  0.00    +0.029 C 
ENDBRANCH  20  22
ENDBRANCH   1  16
BRANCH   1  26
ATOM     26  N   UNL     1       6.446  -1.432  -5.490  0.00  0.00    +0.392 N 
ATOM     27  H   UNL     1       6.861  -2.345  -5.383  0.00  0.00    -0.080 HD
BRANCH  26  28
ATOM     28  C   UNL     1       5.297  -1.519  -6.401  0.00  0.00    -0.002 C 
BRANCH  28  29
ATOM     29  C   UNL     1       4.591  -0.188  -6.448  0.00  0.00    +0.089 A 
ATOM     30  C   UNL     1       4.793   0.777  -7.362  0.00  0.00    +0.042 A 
ATOM     31  C   UNL     1       3.927   1.844  -7.030  0.00  0.00    +0.041 A 
ATOM     32  C   UNL     1       3.247   1.466  -5.933  0.00  0.00    +0.195 A 
ATOM     33  O   UNL     1       3.649   0.232  -5.588  0.00  0.00    -0.470 OA
ENDBRANCH  28  29
ENDBRANCH  26  28
BRANCH  26  34
ATOM     34  C   UNL     1       7.440  -0.503  -6.043  0.00  0.00    -0.034 C 
BRANCH  34  35
ATOM     35  C   UNL     1       8.004  -1.073  -7.320  0.00  0.00    -0.027 A 
ATOM     36  C   UNL     1       7.622  -0.841  -8.600  0.00  0.00    +0.009 A 
ATOM     37  C   UNL     1       8.291  -1.482  -9.625  0.00  0.00    +0.008 A 
ATOM     38  C   UNL     1       9.309  -2.323  -9.321  0.00  0.00    +0.045 A 
ATOM     39  S   UNL     1       9.352  -2.223  -7.539  0.00  0.00    -0.103 S 
ENDBRANCH  34  35
ENDBRANCH  26  34
ENDBRANCH   1  26
TORSDOF 9
