REMARK  Name = ZINC38596240
REMARK  4 active torsions:
REMARK  status: ('A' for Active; 'I' for Inactive)
REMARK    1  A    between atoms: C_1  and  O_2
REMARK    2  A    between atoms: O_2  and  C_3
REMARK    3  A    between atoms: C_8  and  N_9
REMARK    4  A    between atoms: C_13  and  C_14
REMARK                            x       y       z     vdW  Elec       q    Type
REMARK                         _______ _______ _______ _____ _____    ______ ____
ROOT
ATOM      1  N   UNL     1      -0.515  -3.618   0.089  0.00  0.00    -0.212 N 
ATOM      2  C   UNL     1       0.189  -3.759   1.233  0.00  0.00    +0.262 C 
ATOM      3  O   UNL     1      -0.320  -3.545   2.316  0.00  0.00    -0.269 OA
ATOM      4  C   UNL     1       1.606  -4.184   1.120  0.00  0.00    +0.101 C 
ATOM      5  C   UNL     1       2.384  -4.351   2.213  0.00  0.00    +0.037 C 
ATOM      6  C   UNL     1       2.127  -4.419  -0.245  0.00  0.00    +0.274 C 
ATOM      7  O   UNL     1       3.404  -4.809  -0.440  0.00  0.00    -0.268 OA
ATOM      8  N   UNL     1       1.313  -4.239  -1.266  0.00  0.00    -0.153 NA
ATOM      9  C   UNL     1       0.045  -3.860  -1.105  0.00  0.00    +0.171 C 
ATOM     10  S   UNL     1      -0.921  -3.664  -2.504  0.00  0.00    -0.016 S 
ENDROOT
BRANCH   5  11
ATOM     11  C   UNL     1       1.888  -3.908   3.566  0.00  0.00    +0.199 C 
ATOM     12  N   UNL     1       2.922  -3.120   4.248  0.00  0.00    -0.360 N 
ATOM     13  C   UNL     1       3.227  -3.745   5.349  0.00  0.00    +0.060 A 
ATOM     14  C   UNL     1       4.177  -3.456   6.432  0.00  0.00    +0.027 A 
ATOM     15  C   UNL     1       4.278  -4.307   7.472  0.00  0.00    +0.002 A 
ATOM     16  C   UNL     1       3.506  -5.478   7.572  0.00  0.00    +0.002 A 
ATOM     17  C   UNL     1       2.607  -5.837   6.634  0.00  0.00    +0.027 A 
ATOM     18  C   UNL     1       2.409  -4.984   5.454  0.00  0.00    +0.060 A 
ATOM     19  N   UNL     1       1.631  -5.077   4.415  0.00  0.00    -0.360 N 
ATOM     20  H   UNL     1       3.308  -2.286   3.936  0.00  0.00    +0.162 HD
ATOM     21  H   UNL     1       0.996  -5.789   4.235  0.00  0.00    +0.162 HD
ENDBRANCH   5  11
BRANCH   1  27
ATOM     22  C   UNL     1      -2.185  -1.864   0.109  0.00  0.00    +0.142 A 
ATOM     23  C   UNL     1      -3.514  -1.474   0.164  0.00  0.00    +0.047 A 
ATOM     24  C   UNL     1      -4.510  -2.426   0.268  0.00  0.00    +0.004 A 
ATOM     25  C   UNL     1      -4.185  -3.770   0.316  0.00  0.00    +0.002 A 
ATOM     26  C   UNL     1      -2.863  -4.167   0.262  0.00  0.00    +0.027 A 
ATOM     27  C   UNL     1      -1.857  -3.217   0.151  0.00  0.00    +0.085 A 
BRANCH  22  29
ATOM     28  C   UNL     1      -1.614   0.440  -0.032  0.00  0.00    +0.277 C 
ATOM     29  O   UNL     1      -1.204  -0.928   0.007  0.00  0.00    -0.493 OA
ENDBRANCH  22  29
ENDBRANCH   1  27
TORSDOF 3
