REMARK  Name = ZINC44676241
REMARK  4 active torsions:
REMARK  status: ('A' for Active; 'I' for Inactive)
REMARK    1  A    between atoms: C_4  and  C_7
REMARK    2  A    between atoms: C_10  and  N_12
REMARK    3  A    between atoms: N_12  and  C_13
REMARK    4  A    between atoms: C_18  and  N_19
REMARK                            x       y       z     vdW  Elec       q    Type
REMARK                         _______ _______ _______ _____ _____    ______ ____
ROOT
ATOM      1  N   UNL     1       5.363  -1.736  -1.702  0.00  0.00    -0.339 N 
ATOM      2  H   UNL     1       6.101  -1.538  -1.104  0.00  0.00    +0.146 HD
ENDROOT
BRANCH   1   3
ATOM      3  C   UNL     1       5.617  -2.112  -3.021  0.00  0.00    +0.051 A 
ATOM      4  C   UNL     1       4.572  -2.394  -3.897  0.00  0.00    +0.042 A 
ATOM      5  C   UNL     1       4.863  -2.762  -5.195  0.00  0.00    +0.084 A 
ATOM      6  N   UNL     1       6.112  -2.849  -5.612  0.00  0.00    -0.365 N 
ATOM      7  C   UNL     1       7.134  -2.591  -4.816  0.00  0.00    +0.107 A 
ATOM      8  C   UNL     1       6.928  -2.209  -3.501  0.00  0.00    +0.062 A 
ATOM      9  H   UNL     1       6.285  -3.110  -6.530  0.00  0.00    +0.165 HD
BRANCH   8  10
ATOM     10  N   UNL     1       8.015  -1.931  -2.663  0.00  0.00    -0.355 N 
ATOM     11  H   UNL     1       7.862  -1.667  -1.742  0.00  0.00    +0.142 HD
ATOM     12  H   UNL     1       8.921  -2.001  -3.004  0.00  0.00    +0.142 HD
ENDBRANCH   8  10
ENDBRANCH   1   3
BRANCH   1  15
ATOM     13  C   UNL     1       3.711  -0.707  -0.038  0.00  0.00    +0.041 C 
ATOM     14  C   UNL     1       3.675  -2.224   0.162  0.00  0.00    +0.032 C 
ATOM     15  C   UNL     1       3.983  -1.640  -1.219  0.00  0.00    +0.078 C 
BRANCH  13  19
ATOM     16  C   UNL     1      -0.017   1.378   0.010  0.00  0.00    +0.000 A 
ATOM     17  C   UNL     1       1.171   2.086   0.002  0.00  0.00    +0.000 A 
ATOM     18  C   UNL     1       2.377   1.411  -0.013  0.00  0.00    +0.004 A 
ATOM     19  C   UNL     1       2.396   0.029  -0.020  0.00  0.00    -0.042 A 
ATOM     20  C   UNL     1       1.208  -0.679  -0.012  0.00  0.00    +0.004 A 
ATOM     21  C   UNL     1       0.002  -0.004   0.002  0.00  0.00    +0.000 A 
ENDBRANCH  13  19
ENDBRANCH   1  15
TORSDOF 4
