REMARK  Name = ZINC58006950
REMARK  10 active torsions:
REMARK  status: ('A' for Active; 'I' for Inactive)
REMARK    1  A    between atoms: C_1  and  C_2
REMARK    2  A    between atoms: C_5  and  N_8
REMARK    3  A    between atoms: N_8  and  S_9
REMARK    4  A    between atoms: S_9  and  C_12
REMARK    5  A    between atoms: C_14  and  C_19
REMARK    6  A    between atoms: C_17  and  C_18
REMARK    7  A    between atoms: C_19  and  O_21
REMARK    8  A    between atoms: O_21  and  C_22
REMARK    9  A    between atoms: C_22  and  C_24
REMARK   10  A    between atoms: C_22  and  C_25
REMARK                            x       y       z     vdW  Elec       q    Type
REMARK                         _______ _______ _______ _____ _____    ______ ____
ROOT
ATOM      1  C   UNL     1       0.411  -4.721   2.474  0.00  0.00    +0.112 A 
ATOM      2  C   UNL     1       0.030  -5.739   3.324  0.00  0.00    +0.044 A 
ATOM      3  C   UNL     1      -0.446  -5.436   4.601  0.00  0.00    +0.061 A 
ATOM      4  C   UNL     1      -0.534  -4.104   5.008  0.00  0.00    +0.015 A 
ATOM      5  C   UNL     1      -0.150  -3.096   4.149  0.00  0.00    +0.006 A 
ATOM      6  C   UNL     1       0.327  -3.403   2.886  0.00  0.00    -0.024 A 
ATOM      7  C   UNL     1       0.751  -2.297   1.955  0.00  0.00    +0.046 C 
ENDROOT
BRANCH   1   8
ATOM      8  S   UNL     1       1.013  -5.101   0.862  0.00  0.00    +0.073 S 
ATOM      9  O   UNL     1       0.298  -4.271  -0.044  0.00  0.00    -0.150 OA
ATOM     10  O   UNL     1       1.019  -6.518   0.754  0.00  0.00    -0.150 OA
BRANCH   8  11
ATOM     11  N   UNL     1       2.595  -4.615   0.802  0.00  0.00    -0.216 N 
ATOM     12  H   UNL     1       2.855  -3.880   0.225  0.00  0.00    +0.174 HD
BRANCH  11  17
ATOM     13  C   UNL     1       6.491  -7.242   3.976  0.00  0.00    +0.044 C 
ATOM     14  C   UNL     1       5.455  -6.544   3.132  0.00  0.00    -0.050 A 
ATOM     15  C   UNL     1       5.713  -6.283   1.799  0.00  0.00    +0.005 A 
ATOM     16  C   UNL     1       4.767  -5.644   1.023  0.00  0.00    +0.025 A 
ATOM     17  C   UNL     1       3.554  -5.262   1.584  0.00  0.00    +0.048 A 
ATOM     18  C   UNL     1       3.299  -5.526   2.924  0.00  0.00    +0.025 A 
ATOM     19  C   UNL     1       4.247  -6.171   3.692  0.00  0.00    +0.005 A 
ENDBRANCH  11  17
ENDBRANCH   8  11
ENDBRANCH   1   8
BRANCH   3  20
ATOM     20  C   UNL     1      -0.856  -6.521   5.516  0.00  0.00    +0.340 C 
ATOM     21  O   UNL     1      -0.779  -7.679   5.158  0.00  0.00    -0.245 OA
BRANCH  20  22
ATOM     22  O   UNL     1      -1.315  -6.225   6.747  0.00  0.00    -0.449 OA
BRANCH  22  23
ATOM     23  C   UNL     1      -1.694  -7.324   7.579  0.00  0.00    +0.259 C 
ATOM     24  C   UNL     1      -3.174  -7.645   7.358  0.00  0.00    +0.062 C 
BRANCH  23  25
ATOM     25  C   UNL     1      -1.470  -6.960   9.024  0.00  0.00    +0.264 C 
ATOM     26  O   UNL     1      -1.209  -5.816   9.328  0.00  0.00    -0.271 OA
ATOM     27  N   UNL     1      -1.559  -7.907   9.979  0.00  0.00    -0.221 N 
ATOM     28  C   UNL     1      -1.753  -9.344   9.738  0.00  0.00    +0.137 C 
ATOM     29  C   UNL     1      -1.783  -9.955  11.153  0.00  0.00    +0.125 C 
ATOM     30  N   UNL     1      -1.602  -8.797  12.041  0.00  0.00    -0.297 N 
ATOM     31  C   UNL     1      -1.478  -7.689  11.299  0.00  0.00    +0.309 C 
ATOM     32  O   UNL     1      -1.313  -6.585  11.779  0.00  0.00    -0.252 OA
ATOM     33  H   UNL     1      -1.572  -8.831  13.010  0.00  0.00    +0.150 HD
ENDBRANCH  23  25
ENDBRANCH  22  23
ENDBRANCH  20  22
ENDBRANCH   3  20
TORSDOF 7
