REMARK  Name = ZINC50709220
REMARK  5 active torsions:
REMARK  status: ('A' for Active; 'I' for Inactive)
REMARK    1  A    between atoms: C_1  and  C_2
REMARK    2  A    between atoms: C_4  and  N_19
REMARK    3  A    between atoms: C_7  and  N_8
REMARK    4  A    between atoms: C_9  and  C_11
REMARK    5  A    between atoms: C_15  and  N_17
REMARK                            x       y       z     vdW  Elec       q    Type
REMARK                         _______ _______ _______ _____ _____    ______ ____
ROOT
ATOM      1  N   UNL     1       0.025  -0.015   2.416  0.00  0.00    -0.280 N 
ATOM      2  C   UNL     1      -0.056  -0.695   3.577  0.00  0.00    +0.268 C 
ATOM      3  O   UNL     1      -0.040  -1.911   3.572  0.00  0.00    -0.268 OA
ATOM      4  H   UNL     1       0.078   0.953   2.424  0.00  0.00    +0.155 HD
ENDROOT
BRANCH   1  11
ATOM      5  C   UNL     1      -1.268   1.182   0.182  0.00  0.00    +0.046 C 
ATOM      6  C   UNL     1      -0.586  -0.159   0.085  0.00  0.00    -0.027 A 
ATOM      7  C   UNL     1      -0.571  -0.841  -1.116  0.00  0.00    +0.038 A 
ATOM      8  C   UNL     1       0.055  -2.071  -1.206  0.00  0.00    +0.127 A 
ATOM      9  C   UNL     1       0.667  -2.622  -0.095  0.00  0.00    +0.034 A 
ATOM     10  C   UNL     1       0.655  -1.945   1.108  0.00  0.00    +0.026 A 
ATOM     11  C   UNL     1       0.033  -0.706   1.201  0.00  0.00    +0.037 A 
BRANCH   8  12
ATOM     12  N   UNL     1       0.069  -2.799  -2.495  0.00  0.00    +0.056 N 
ATOM     13  O   UNL     1      -0.466  -2.319  -3.467  0.00  0.00    -0.126 OA
ATOM     14  O   UNL     1       0.615  -3.875  -2.575  0.00  0.00    -0.126 OA
ENDBRANCH   8  12
ENDBRANCH   1  11
BRANCH   2  15
ATOM     15  C   UNL     1      -0.166   0.038   4.858  0.00  0.00    +0.146 A 
ATOM     16  C   UNL     1      -0.244  -0.671   6.055  0.00  0.00    +0.072 A 
ATOM     17  C   UNL     1      -0.346   0.028   7.251  0.00  0.00    +0.025 A 
ATOM     18  C   UNL     1      -0.366   1.410   7.210  0.00  0.00    +0.045 A 
ATOM     19  C   UNL     1      -0.284   2.058   5.978  0.00  0.00    +0.117 A 
ATOM     20  N   UNL     1      -0.183   1.367   4.857  0.00  0.00    -0.226 NA
ATOM     21 CL   UNL     1      -0.215  -2.406   6.051  0.00  0.00    -0.081 Cl
BRANCH  19  22
ATOM     22  N   UNL     1      -0.304   3.447   5.929  0.00  0.00    -0.343 N 
ATOM     23  H   UNL     1      -0.375   3.960   6.749  0.00  0.00    +0.144 HD
ATOM     24  H   UNL     1      -0.248   3.904   5.075  0.00  0.00    +0.144 HD
ENDBRANCH  19  22
ENDBRANCH   2  15
TORSDOF 4
