REMARK  Name = ZINC40151150
REMARK  4 active torsions:
REMARK  status: ('A' for Active; 'I' for Inactive)
REMARK    1  A    between atoms: C_8  and  C_13
REMARK    2  A    between atoms: C_13  and  C_23
REMARK    3  A    between atoms: N_14  and  N_15
REMARK    4  A    between atoms: N_15  and  C_16
REMARK                            x       y       z     vdW  Elec       q    Type
REMARK                         _______ _______ _______ _____ _____    ______ ____
ROOT
ATOM      1  C   UNL     1       0.325   1.560   0.159  0.00  0.00    +0.002 A 
ATOM      2  C   UNL     1       1.567   2.205   0.035  0.00  0.00    +0.002 A 
ATOM      3  C   UNL     1       2.735   1.530  -0.075  0.00  0.00    +0.025 A 
ATOM      4  C   UNL     1       2.748   0.118  -0.069  0.00  0.00    +0.057 A 
ATOM      5  N   UNL     1       3.892  -0.536  -0.176  0.00  0.00    -0.282 N 
ATOM      6  C   UNL     1       3.939  -1.870  -0.174  0.00  0.00    +0.246 C 
ATOM      7  O   UNL     1       5.002  -2.450  -0.273  0.00  0.00    -0.273 OA
ATOM      8  C   UNL     1       2.651  -2.651  -0.044  0.00  0.00    +0.220 C 
ATOM      9  N   UNL     1       1.395  -1.893   0.073  0.00  0.00    -0.367 N 
ATOM     10  C   UNL     1       1.451  -0.593   0.061  0.00  0.00    +0.058 A 
ATOM     11  C   UNL     1       0.224   0.213   0.176  0.00  0.00    +0.027 A 
ATOM     12  H   UNL     1       4.718  -0.035  -0.260  0.00  0.00    +0.155 HD
ATOM     13  H   UNL     1       0.545  -2.352   0.158  0.00  0.00    +0.161 HD
ENDROOT
BRANCH   8  14
ATOM     14  C   UNL     1       2.769  -3.535   1.170  0.00  0.00    +0.129 C 
ATOM     15  N   UNL     1       3.196  -4.764   1.045  0.00  0.00    -0.181 NA
BRANCH  15  16
ATOM     16  N   UNL     1       3.625  -5.185  -0.096  0.00  0.00    -0.237 N 
ATOM     17  H   UNL     1       3.703  -4.570  -0.842  0.00  0.00    +0.174 HD
BRANCH  16  18
ATOM     18  C   UNL     1       3.976  -6.526  -0.258  0.00  0.00    +0.048 A 
ATOM     19  C   UNL     1       3.859  -7.411   0.807  0.00  0.00    +0.026 A 
ATOM     20  C   UNL     1       4.207  -8.737   0.644  0.00  0.00    +0.017 A 
ATOM     21  C   UNL     1       4.672  -9.186  -0.580  0.00  0.00    +0.018 A 
ATOM     22  C   UNL     1       4.790  -8.307  -1.643  0.00  0.00    +0.017 A 
ATOM     23  C   UNL     1       4.438  -6.981  -1.488  0.00  0.00    +0.026 A 
ATOM     24 BR   UNL     1       5.148 -11.002  -0.800  0.00  0.00    -0.050 Br
ENDBRANCH  16  18
ENDBRANCH  15  16
BRANCH  14  25
ATOM     25  C   UNL     1       2.419  -3.037   2.440  0.00  0.00    +0.278 C 
ATOM     26  O   UNL     1       2.514  -3.749   3.419  0.00  0.00    -0.294 OA
ENDBRANCH  14  25
ENDBRANCH   8  14
TORSDOF 4
