REMARK  Name = ZINC36674207
REMARK  6 active torsions:
REMARK  status: ('A' for Active; 'I' for Inactive)
REMARK    1  A    between atoms: C_5  and  C_7
REMARK    2  A    between atoms: C_7  and  C_9
REMARK    3  A    between atoms: C_7  and  N_30
REMARK    4  A    between atoms: C_9  and  N_10
REMARK    5  A    between atoms: C_11  and  C_13
REMARK    6  A    between atoms: N_18  and  C_20
REMARK                            x       y       z     vdW  Elec       q    Type
REMARK                         _______ _______ _______ _____ _____    ______ ____
ROOT
ATOM      1  N   UNL     1       2.047  -4.140  -1.550  0.00  0.00    -0.316 N 
ATOM      2  C   UNL     1       2.598  -4.707  -2.642  0.00  0.00    +0.218 C 
ATOM      3  O   UNL     1       2.893  -4.021  -3.598  0.00  0.00    -0.275 OA
ATOM      4  H   UNL     1       1.811  -4.688  -0.785  0.00  0.00    +0.149 HD
ENDROOT
BRANCH   2   5
ATOM      5  C   UNL     1       2.846  -6.193  -2.674  0.00  0.00    +0.101 C 
ATOM      6  C   UNL     1       3.892  -6.603  -1.611  0.00  0.00    +0.110 C 
ATOM      7  C   UNL     1       4.694  -7.696  -2.281  0.00  0.00    +0.221 C 
ATOM      8  O   UNL     1       5.423  -8.475  -1.705  0.00  0.00    -0.275 OA
ATOM      9  N   UNL     1       4.480  -7.679  -3.608  0.00  0.00    -0.271 N 
ATOM     10  C   UNL     1       3.551  -6.607  -3.986  0.00  0.00    +0.127 C 
BRANCH   9  11
ATOM     11  C   UNL     1       5.069  -8.570  -4.516  0.00  0.00    +0.040 A 
ATOM     12  C   UNL     1       4.699  -8.544  -5.854  0.00  0.00    +0.027 A 
ATOM     13  C   UNL     1       5.278  -9.423  -6.748  0.00  0.00    +0.051 A 
ATOM     14  C   UNL     1       6.231 -10.332  -6.313  0.00  0.00    +0.162 A 
ATOM     15  C   UNL     1       6.605 -10.359  -4.975  0.00  0.00    +0.164 A 
ATOM     16  C   UNL     1       6.026  -9.474  -4.078  0.00  0.00    +0.073 A 
ATOM     17  O   UNL     1       7.544 -11.239  -4.531  0.00  0.00    -0.485 OA
ATOM     18  C   UNL     1       7.834 -12.354  -5.381  0.00  0.00    +0.270 C 
ATOM     19  C   UNL     1       8.007 -11.833  -6.815  0.00  0.00    +0.270 C 
ATOM     20  O   UNL     1       6.788 -11.194  -7.209  0.00  0.00    -0.485 OA
ENDBRANCH   9  11
ENDBRANCH   2   5
BRANCH   1  21
ATOM     21  C   UNL     1       1.805  -2.695  -1.518  0.00  0.00    +0.093 C 
BRANCH  21  22
ATOM     22  C   UNL     1       1.300  -2.293  -0.131  0.00  0.00    -0.019 C 
BRANCH  22  27
ATOM     23  C   UNL     1      -1.353  -4.669   1.122  0.00  0.00    +0.000 A 
ATOM     24  C   UNL     1      -2.499  -4.115   0.582  0.00  0.00    +0.001 A 
ATOM     25  C   UNL     1      -2.416  -2.971  -0.189  0.00  0.00    +0.020 A 
ATOM     26  C   UNL     1      -1.186  -2.380  -0.420  0.00  0.00    +0.043 A 
ATOM     27  C   UNL     1      -0.040  -2.935   0.121  0.00  0.00    -0.041 A 
ATOM     28  C   UNL     1      -0.124  -4.080   0.891  0.00  0.00    +0.003 A 
ATOM     29 CL   UNL     1      -1.081  -0.943  -1.389  0.00  0.00    -0.083 Cl
ENDBRANCH  22  27
BRANCH  22  30
ATOM     30  N   UNL     1       2.257  -2.742   0.888  0.00  0.00    +0.385 N 
ATOM     31  C   UNL     1       3.594  -2.148   0.632  0.00  0.00    -0.078 C 
ATOM     32  C   UNL     1       4.289  -2.230   2.015  0.00  0.00    -0.020 C 
ATOM     33  C   UNL     1       3.137  -1.927   3.000  0.00  0.00    -0.020 C 
ATOM     34  C   UNL     1       1.848  -2.254   2.223  0.00  0.00    -0.078 C 
ATOM     35  H   UNL     1       2.318  -3.749   0.890  0.00  0.00    -0.081 HD
ENDBRANCH  22  30
ENDBRANCH  21  22
ENDBRANCH   1  21
TORSDOF 6
