REMARK  Name = ZINC19550907
REMARK  8 active torsions:
REMARK  status: ('A' for Active; 'I' for Inactive)
REMARK    1  A    between atoms: C_1  and  O_2
REMARK    2  A    between atoms: O_2  and  C_3
REMARK    3  A    between atoms: C_7  and  C_17
REMARK    4  A    between atoms: C_14  and  O_15
REMARK    5  A    between atoms: O_15  and  C_16
REMARK    6  A    between atoms: C_17  and  C_19
REMARK    7  A    between atoms: C_17  and  N_29
REMARK    8  A    between atoms: N_23  and  C_24
REMARK                            x       y       z     vdW  Elec       q    Type
REMARK                         _______ _______ _______ _____ _____    ______ ____
ROOT
ATOM      1  C   UNL     1       3.708   0.368   6.329  0.00  0.00    +0.039 C 
ENDROOT
BRANCH   1   6
ATOM      2  C   UNL     1       0.626  -0.619   1.042  0.00  0.00    +0.162 A 
ATOM      3  C   UNL     1       1.198   0.137   2.043  0.00  0.00    +0.059 A 
ATOM      4  C   UNL     1       1.839  -0.501   3.112  0.00  0.00    +0.002 A 
ATOM      5  C   UNL     1       2.455   0.271   4.191  0.00  0.00    +0.017 A 
ATOM      6  C   UNL     1       3.063  -0.399   5.203  0.00  0.00    +0.011 A 
ATOM      7  C   UNL     1       3.095  -1.808   5.204  0.00  0.00    +0.251 A 
ATOM      8  O   UNL     1       3.647  -2.388   6.123  0.00  0.00    -0.268 OA
ATOM      9  N   UNL     1       2.533  -2.527   4.218  0.00  0.00    -0.322 N 
ATOM     10  H   UNL     1       2.573  -3.496   4.250  0.00  0.00    +0.169 HD
ATOM     11  C   UNL     1       1.898  -1.908   3.160  0.00  0.00    +0.053 A 
ATOM     12  C   UNL     1       1.317  -2.655   2.143  0.00  0.00    +0.075 A 
ATOM     13  C   UNL     1       0.681  -2.015   1.095  0.00  0.00    +0.163 A 
BRANCH   2  15
ATOM     14  C   UNL     1      -0.017   1.425   0.010  0.00  0.00    +0.277 C 
ATOM     15  O   UNL     1       0.002  -0.004   0.002  0.00  0.00    -0.491 OA
ENDBRANCH   2  15
BRANCH  13  16
ATOM     16  O   UNL     1       0.109  -2.749   0.105  0.00  0.00    -0.491 OA
ATOM     17  C   UNL     1       0.199  -4.171   0.218  0.00  0.00    +0.277 C 
ENDBRANCH  13  16
ENDBRANCH   1   6
BRANCH   1  18
ATOM     18  N   UNL     1       3.154  -0.088   7.611  0.00  0.00    +0.389 N 
ATOM     19  C   UNL     1       1.687   0.066   7.575  0.00  0.00    -0.077 C 
ATOM     20  C   UNL     1       1.084  -0.908   8.556  0.00  0.00    -0.019 C 
ATOM     21  C   UNL     1       0.801  -0.237   9.913  0.00  0.00    -0.002 C 
ATOM     22  C   UNL     1       1.940   0.716  10.329  0.00  0.00    -0.002 C 
ATOM     23  C   UNL     1       3.303   0.146  10.033  0.00  0.00    -0.019 C 
ATOM     24  C   UNL     1       3.761   0.631   8.642  0.00  0.00    -0.077 C 
ATOM     25  H   UNL     1       3.372  -1.066   7.727  0.00  0.00    -0.080 HD
ENDBRANCH   1  18
BRANCH   1  26
ATOM     26  C   UNL     1       5.196   0.131   6.311  0.00  0.00    +0.143 A 
ATOM     27  N   UNL     1       5.819  -0.957   6.694  0.00  0.00    -0.115 NA
ATOM     28  N   UNL     1       7.083  -0.770   6.526  0.00  0.00    -0.023 NA
ATOM     29  N   UNL     1       7.282   0.408   6.046  0.00  0.00    -0.044 NA
ATOM     30  N   UNL     1       6.142   0.993   5.895  0.00  0.00    -0.227 N 
BRANCH  30  31
ATOM     31  C   UNL     1       5.920   2.343   5.371  0.00  0.00    +0.111 C 
ATOM     32  C   UNL     1       6.529   2.469   3.960  0.00  0.00    +0.027 C 
ATOM     33  C   UNL     1       7.098   3.909   3.919  0.00  0.00    +0.002 C 
ATOM     34  C   UNL     1       7.662   4.094   5.349  0.00  0.00    +0.002 C 
ATOM     35  C   UNL     1       6.640   3.376   6.255  0.00  0.00    +0.027 C 
ENDBRANCH  30  31
ENDBRANCH   1  26
TORSDOF 6
