REMARK  Name = ZINC62806067
REMARK  5 active torsions:
REMARK  status: ('A' for Active; 'I' for Inactive)
REMARK    1  A    between atoms: C_1  and  C_2
REMARK    2  A    between atoms: C_3  and  C_4
REMARK    3  A    between atoms: C_4  and  O_5
REMARK    4  A    between atoms: O_5  and  C_6
REMARK    5  A    between atoms: C_14  and  O_16
REMARK                            x       y       z     vdW  Elec       q    Type
REMARK                         _______ _______ _______ _____ _____    ______ ____
ROOT
ATOM      1  C   UNL     1      -1.462  -4.494  -0.008  0.00  0.00    +0.125 A 
ATOM      2  C   UNL     1      -0.349  -5.322  -0.018  0.00  0.00    +0.046 A 
ATOM      3  C   UNL     1      -0.515  -6.694  -0.027  0.00  0.00    +0.013 A 
ATOM      4  C   UNL     1      -1.783  -7.236  -0.026  0.00  0.00    +0.026 A 
ATOM      5  C   UNL     1      -2.906  -6.419  -0.009  0.00  0.00    +0.130 A 
ATOM      6  C   UNL     1      -2.735  -5.038   0.001  0.00  0.00    +0.091 A 
ATOM      7  O   UNL     1      -4.051  -7.156   0.012  0.00  0.00    -0.489 OA
ATOM      8  C   UNL     1      -3.762  -8.492  -0.436  0.00  0.00    +0.265 C 
ATOM      9  C   UNL     1      -2.276  -8.670  -0.046  0.00  0.00    +0.185 C 
ENDROOT
BRANCH   9  10
ATOM     10  O   UNL     1      -2.155  -9.269   1.245  0.00  0.00    -0.384 OA
ATOM     11  H   UNL     1      -2.458 -10.187   1.283  0.00  0.00    +0.210 HD
ENDBRANCH   9  10
BRANCH   1  12
ATOM     12  O   UNL     1      -1.303  -3.144  -0.002  0.00  0.00    -0.479 OA
BRANCH  12  13
ATOM     13  C   UNL     1       0.038  -2.650  -0.013  0.00  0.00    +0.317 C 
BRANCH  13  16
ATOM     14  C   UNL     1      -0.018   1.468   0.010  0.00  0.00    +0.106 C 
ATOM     15  C   UNL     1       0.002  -0.004   0.002  0.00  0.00    -0.102 C 
ATOM     16  C   UNL     1       0.018  -1.178  -0.004  0.00  0.00    -0.062 C 
ENDBRANCH  13  16
ENDBRANCH  12  13
ENDBRANCH   1  12
TORSDOF 4
