REMARK  Name = ZINC32696573
REMARK  5 active torsions:
REMARK  status: ('A' for Active; 'I' for Inactive)
REMARK    1  A    between atoms: C_1  and  S_2
REMARK    2  A    between atoms: S_2  and  C_3
REMARK    3  A    between atoms: C_9  and  C_11
REMARK    4  A    between atoms: C_11  and  S_12
REMARK    5  A    between atoms: S_12  and  C_13
REMARK                            x       y       z     vdW  Elec       q    Type
REMARK                         _______ _______ _______ _____ _____    ______ ____
ROOT
ATOM      1  C   UNL     1       3.766   3.030  -0.018  0.00  0.00    +0.170 A 
ATOM      2  N   UNL     1       4.378   1.814  -0.031  0.00  0.00    -0.301 N 
ATOM      3  H   UNL     1       5.477   1.752  -0.043  0.00  0.00    +0.171 HD
ATOM      4  C   UNL     1       3.696   0.645  -0.030  0.00  0.00    +0.261 A 
ATOM      5  O   UNL     1       4.262  -0.435  -0.041  0.00  0.00    -0.267 OA
ATOM      6  C   UNL     1       2.267   0.755  -0.015  0.00  0.00    +0.075 A 
ATOM      7  C   UNL     1       1.312  -0.341  -0.012  0.00  0.00    -0.023 A 
ATOM      8  C   UNL     1       0.002  -0.004   0.002  0.00  0.00    -0.004 A 
ATOM      9  S   UNL     1      -0.022   1.771   0.012  0.00  0.00    -0.073 S 
ATOM     10  C   UNL     1       1.719   2.058  -0.003  0.00  0.00    +0.117 A 
ATOM     11  N   UNL     1       2.447   3.168  -0.004  0.00  0.00    -0.216 NA
ATOM     12  C   UNL     1      -1.173  -0.932   0.007  0.00  0.00    +0.043 C 
ATOM     13  C   UNL     1      -0.687  -2.336  -0.379  0.00  0.00    +0.005 C 
ATOM     14  C   UNL     1       0.560  -2.666   0.446  0.00  0.00    +0.005 C 
ATOM     15  C   UNL     1       1.735  -1.808  -0.023  0.00  0.00    +0.037 C 
ENDROOT
BRANCH   1  16
ATOM     16  S   UNL     1       4.766   4.481  -0.020  0.00  0.00    -0.078 S 
BRANCH  16  17
ATOM     17  C   UNL     1       3.478   5.752   0.000  0.00  0.00    +0.173 C 
BRANCH  17  24
ATOM     18  C   UNL     1       4.722  12.028   0.024  0.00  0.00    +0.160 A 
ATOM     19  N   UNL     1       5.590  11.027   0.009  0.00  0.00    -0.133 NA
ATOM     20  N   UNL     1       5.218   9.822   0.006  0.00  0.00    -0.125 NA
ATOM     21  C   UNL     1       3.939   9.482   0.017  0.00  0.00    +0.189 A 
ATOM     22  S   UNL     1       3.186  11.107   0.027  0.00  0.00    -0.024 S 
ATOM     23  N   UNL     1       3.348   8.222   0.016  0.00  0.00    -0.263 N 
ATOM     24  C   UNL     1       4.118   7.116   0.002  0.00  0.00    +0.229 C 
ATOM     25  O   UNL     1       5.327   7.219  -0.009  0.00  0.00    -0.275 OA
ATOM     26  H   UNL     1       2.252   8.128   0.026  0.00  0.00    +0.157 HD
BRANCH  18  28
ATOM     27  C   UNL     1       6.806  13.924   0.012  0.00  0.00    +0.092 C 
ATOM     28  S   UNL     1       4.999  13.768   0.030  0.00  0.00    -0.100 S 
ENDBRANCH  18  28
ENDBRANCH  17  24
ENDBRANCH  16  17
ENDBRANCH   1  16
TORSDOF 4
