REMARK  Name = ZINC41651066
REMARK  3 active torsions:
REMARK  status: ('A' for Active; 'I' for Inactive)
REMARK    1  A    between atoms: C_8  and  O_23
REMARK    2  A    between atoms: C_10  and  N_12
REMARK    3  A    between atoms: N_15  and  C_16
REMARK                            x       y       z     vdW  Elec       q    Type
REMARK                         _______ _______ _______ _____ _____    ______ ____
ROOT
ATOM      1  N   UNL     1       4.580  -0.501  -0.996  0.00  0.00    -0.290 N 
ATOM      2  C   UNL     1       5.523   0.385  -0.618  0.00  0.00    +0.304 C 
ATOM      3  O   UNL     1       5.531   0.816   0.519  0.00  0.00    -0.252 OA
ATOM      4  N   UNL     1       6.456   0.794  -1.500  0.00  0.00    -0.269 N 
ATOM      5  H   UNL     1       4.574  -0.844  -1.903  0.00  0.00    +0.151 HD
ATOM      6  H   UNL     1       6.491   0.401  -2.386  0.00  0.00    +0.156 HD
ENDROOT
BRANCH   1  15
ATOM      7  C   UNL     1      -0.024   1.360  -0.014  0.00  0.00    +0.000 A 
ATOM      8  C   UNL     1       1.162   2.071  -0.022  0.00  0.00    +0.000 A 
ATOM      9  C   UNL     1       2.369   1.398  -0.029  0.00  0.00    +0.006 A 
ATOM     10  C   UNL     1       2.395   0.014  -0.029  0.00  0.00    -0.021 A 
ATOM     11  C   UNL     1       1.209  -0.697  -0.021  0.00  0.00    -0.040 A 
ATOM     12  C   UNL     1       0.001  -0.021  -0.014  0.00  0.00    +0.004 A 
ATOM     13  C   UNL     1       1.503  -2.182  -0.023  0.00  0.00    +0.069 C 
ATOM     14  C   UNL     1       2.974  -2.302  -0.473  0.00  0.00    +0.143 C 
ATOM     15  C   UNL     1       3.566  -0.945  -0.037  0.00  0.00    +0.134 C 
BRANCH  14  16
ATOM     16  O   UNL     1       3.061  -2.466  -1.890  0.00  0.00    -0.389 OA
ATOM     17  H   UNL     1       2.627  -3.265  -2.221  0.00  0.00    +0.210 HD
ENDBRANCH  14  16
ENDBRANCH   1  15
BRANCH   4  18
ATOM     18  C   UNL     1       7.375   1.786  -1.137  0.00  0.00    +0.035 A 
ATOM     19  C   UNL     1       7.809   2.710  -2.079  0.00  0.00    +0.025 A 
ATOM     20  C   UNL     1       8.716   3.688  -1.718  0.00  0.00    +0.022 A 
ATOM     21  C   UNL     1       9.193   3.746  -0.421  0.00  0.00    +0.041 A 
ATOM     22  C   UNL     1       8.763   2.826   0.519  0.00  0.00    +0.022 A 
ATOM     23  C   UNL     1       7.851   1.850   0.166  0.00  0.00    +0.025 A 
ATOM     24 CL   UNL     1      10.333   4.976   0.029  0.00  0.00    -0.084 Cl
ENDBRANCH   4  18
TORSDOF 3
