REMARK  Name = ZINC12571235
REMARK  7 active torsions:
REMARK  status: ('A' for Active; 'I' for Inactive)
REMARK    1  A    between atoms: C_3  and  C_6
REMARK    2  A    between atoms: C_6  and  N_61
REMARK    3  A    between atoms: C_9  and  C_12
REMARK    4  A    between atoms: C_9  and  O_34
REMARK    5  A    between atoms: C_19  and  C_21
REMARK    6  A    between atoms: N_23  and  C_24
REMARK    7  A    between atoms: C_24  and  C_25
REMARK                            x       y       z     vdW  Elec       q    Type
REMARK                         _______ _______ _______ _____ _____    ______ ____
ROOT
ATOM      1  C   UNL     1      -0.018   1.503   0.010  0.00  0.00    -0.015 A 
ATOM      2  C   UNL     1       1.177   2.209   0.003  0.00  0.00    +0.010 A 
ATOM      3  C   UNL     1       1.182   3.587   0.010  0.00  0.00    +0.047 A 
ATOM      4  C   UNL     1      -0.022   4.282   0.024  0.00  0.00    +0.136 A 
ATOM      5  C   UNL     1      -1.230   3.562   0.032  0.00  0.00    +0.021 A 
ATOM      6  C   UNL     1      -1.213   2.165   0.020  0.00  0.00    +0.018 A 
ATOM      7  C   UNL     1      -2.292   4.568   0.046  0.00  0.00    +0.063 A 
ATOM      8  C   UNL     1      -1.667   5.774   0.046  0.00  0.00    +0.190 A 
ATOM      9  O   UNL     1      -0.329   5.594   0.033  0.00  0.00    -0.450 OA
ENDROOT
BRANCH   1  12
ATOM     10  C   UNL     1       1.300  -2.024  -0.684  0.00  0.00    -0.075 C 
ATOM     11  C   UNL     1       1.253  -0.495  -0.731  0.00  0.00    +0.021 C 
ATOM     12  C   UNL     1       0.002  -0.004   0.002  0.00  0.00    +0.088 C 
ATOM     13  C   UNL     1       0.026  -0.523   1.442  0.00  0.00    +0.021 C 
ATOM     14  C   UNL     1       0.110  -2.051   1.427  0.00  0.00    -0.075 C 
ATOM     15  N   UNL     1       1.348  -2.458   0.728  0.00  0.00    +0.383 N 
ATOM     16  H   UNL     1       2.151  -2.013   1.187  0.00  0.00    -0.081 HD
BRANCH  12  17
ATOM     17  O   UNL     1      -1.164  -0.494  -0.663  0.00  0.00    -0.384 OA
ATOM     18  H   UNL     1      -1.995  -0.223  -0.250  0.00  0.00    +0.211 HD
ENDBRANCH  12  17
BRANCH  15  19
ATOM     19  C   UNL     1       1.508  -3.925   0.800  0.00  0.00    -0.036 C 
BRANCH  19  22
ATOM     20  C   UNL     1       0.164  -5.153   4.146  0.00  0.00    +0.008 A 
ATOM     21  C   UNL     1       0.132  -4.771   2.818  0.00  0.00    +0.009 A 
ATOM     22  C   UNL     1       1.283  -4.378   2.219  0.00  0.00    -0.027 A 
ATOM     23  S   UNL     1       2.462  -4.529   3.551  0.00  0.00    -0.103 S 
ATOM     24  C   UNL     1       1.343  -5.113   4.814  0.00  0.00    +0.045 A 
ENDBRANCH  19  22
ENDBRANCH  15  19
ENDBRANCH   1  12
BRANCH   8  25
ATOM     25  C   UNL     1      -2.345   7.078   0.059  0.00  0.00    +0.280 C 
ATOM     26  O   UNL     1      -3.560   7.132   0.071  0.00  0.00    -0.267 OA
ATOM     27  N   UNL     1      -1.620   8.214   0.057  0.00  0.00    -0.305 N 
ATOM     28  H   UNL     1      -0.651   8.171   0.048  0.00  0.00    +0.149 HD
BRANCH  27  29
ATOM     29  C   UNL     1      -2.296   9.514   0.070  0.00  0.00    +0.140 C 
BRANCH  29  30
ATOM     30  C   UNL     1      -1.267  10.615   0.066  0.00  0.00    -0.027 A 
ATOM     31  C   UNL     1      -0.788  11.117   1.262  0.00  0.00    +0.009 A 
ATOM     32  C   UNL     1       0.160  12.123   1.263  0.00  0.00    +0.050 A 
ATOM     33  C   UNL     1       0.624  12.640   0.064  0.00  0.00    +0.166 A 
ATOM     34  C   UNL     1       0.138  12.137  -1.141  0.00  0.00    +0.167 A 
ATOM     35  C   UNL     1      -0.807  11.125  -1.134  0.00  0.00    +0.054 A 
ATOM     36  O   UNL     1       0.745  12.803  -2.167  0.00  0.00    -0.453 OA
ATOM     37  C   UNL     1       1.301  13.993  -1.578  0.00  0.00    +0.466 C 
ATOM     38  O   UNL     1       1.535  13.620  -0.207  0.00  0.00    -0.453 OA
ENDBRANCH  29  30
ENDBRANCH  27  29
ENDBRANCH   8  25
TORSDOF 7
