REMARK  Name = ZINC04690517
REMARK  9 active torsions:
REMARK  status: ('A' for Active; 'I' for Inactive)
REMARK    1  A    between atoms: C_1  and  C_2
REMARK    2  A    between atoms: C_6  and  N_9
REMARK    3  A    between atoms: C_7  and  C_8
REMARK    4  A    between atoms: C_10  and  C_12
REMARK    5  A    between atoms: C_12  and  C_13
REMARK    6  A    between atoms: C_13  and  C_27
REMARK    7  A    between atoms: N_14  and  N_15
REMARK    8  A    between atoms: C_16  and  C_18
REMARK    9  A    between atoms: C_23  and  N_24
REMARK                            x       y       z     vdW  Elec       q    Type
REMARK                         _______ _______ _______ _____ _____    ______ ____
ROOT
ATOM      1  C   UNL     1      -1.414   6.221  -0.321  0.00  0.00    +0.043 C 
ATOM      2  N   UNL     1      -1.909   6.918   0.633  0.00  0.00    -0.189 NA
ATOM      3  C   UNL     1      -2.261   5.878  -1.519  0.00  0.00    +0.063 C 
ENDROOT
BRANCH   2   4
ATOM      4  N   UNL     1      -3.236   7.359   0.563  0.00  0.00    -0.203 N 
ATOM      5  C   UNL     1      -3.756   8.092   1.567  0.00  0.00    +0.265 C 
ATOM      6  O   UNL     1      -3.074   8.370   2.535  0.00  0.00    -0.268 OA
ATOM      7  H   UNL     1      -3.781   7.138  -0.208  0.00  0.00    +0.178 HD
BRANCH   5   8
ATOM      8  C   UNL     1      -5.157   8.559   1.494  0.00  0.00    +0.068 A 
ATOM      9  C   UNL     1      -5.978   8.148   0.442  0.00  0.00    +0.015 A 
ATOM     10  C   UNL     1      -7.286   8.583   0.381  0.00  0.00    +0.001 A 
ATOM     11  C   UNL     1      -7.781   9.433   1.354  0.00  0.00    +0.002 A 
ATOM     12  C   UNL     1      -6.971   9.849   2.396  0.00  0.00    +0.033 A 
ATOM     13  C   UNL     1      -5.663   9.417   2.471  0.00  0.00    +0.138 A 
BRANCH  13  14
ATOM     14  N   UNL     1      -4.797   9.863   3.586  0.00  0.00    +0.057 N 
ATOM     15  O   UNL     1      -5.157   9.701   4.739  0.00  0.00    -0.126 OA
ATOM     16  O   UNL     1      -3.725  10.392   3.352  0.00  0.00    -0.126 OA
ENDBRANCH  13  14
ENDBRANCH   5   8
ENDBRANCH   2   4
BRANCH   1  17
ATOM     17  C   UNL     1       0.014   5.746  -0.245  0.00  0.00    +0.148 C 
BRANCH  17  19
ATOM     18  N   UNL     1       1.216   3.590  -0.094  0.00  0.00    -0.285 N 
ATOM     19  C   UNL     1       0.039   4.241  -0.169  0.00  0.00    +0.223 C 
ATOM     20  O   UNL     1      -1.001   3.616  -0.176  0.00  0.00    -0.275 OA
ATOM     21  H   UNL     1       2.042   4.090  -0.003  0.00  0.00    +0.155 HD
BRANCH  18  27
ATOM     22  C   UNL     1       3.484  -0.638   0.981  0.00  0.00    +0.044 C 
ATOM     23  C   UNL     1       2.335   0.117   0.366  0.00  0.00    -0.046 A 
ATOM     24  C   UNL     1       1.308  -0.573  -0.254  0.00  0.00    +0.004 A 
ATOM     25  C   UNL     1       0.252   0.116  -0.820  0.00  0.00    +0.002 A 
ATOM     26  C   UNL     1       0.218   1.496  -0.768  0.00  0.00    +0.023 A 
ATOM     27  C   UNL     1       1.247   2.192  -0.147  0.00  0.00    +0.037 A 
ATOM     28  C   UNL     1       2.307   1.497   0.420  0.00  0.00    -0.026 A 
ATOM     29  C   UNL     1       3.425   2.247   1.096  0.00  0.00    +0.046 C 
ENDBRANCH  18  27
ENDBRANCH  17  19
ENDBRANCH   1  17
TORSDOF 6
