REMARK  Name = ZINC35503492
REMARK  7 active torsions:
REMARK  status: ('A' for Active; 'I' for Inactive)
REMARK    1  A    between atoms: C_1  and  C_2
REMARK    2  A    between atoms: C_2  and  C_3
REMARK    3  A    between atoms: C_3  and  C_5
REMARK    4  A    between atoms: C_3  and  N_6
REMARK    5  A    between atoms: C_7  and  C_9
REMARK    6  A    between atoms: C_12  and  C_14
REMARK    7  A    between atoms: C_15  and  C_23
REMARK                            x       y       z     vdW  Elec       q    Type
REMARK                         _______ _______ _______ _____ _____    ______ ____
ROOT
ATOM      1  C   UNL     1      -0.123   0.361   4.831  0.00  0.00    +0.304 A 
ATOM      2  N   UNL     1      -1.417   0.590   4.901  0.00  0.00    -0.102 NA
ATOM      3  N   UNL     1      -1.733   0.890   6.112  0.00  0.00    -0.103 NA
ATOM      4  C   UNL     1      -0.647   0.864   6.866  0.00  0.00    +0.284 A 
ATOM      5  O   UNL     1       0.386   0.525   6.072  0.00  0.00    -0.410 OA
ENDROOT
BRANCH   4   6
ATOM      6  C   UNL     1      -0.582   1.148   8.305  0.00  0.00    +0.195 A 
ATOM      7  C   UNL     1      -1.644   1.479   9.086  0.00  0.00    +0.008 A 
ATOM      8  C   UNL     1      -1.110   1.669  10.435  0.00  0.00    +0.024 A 
ATOM      9  C   UNL     1      -1.675   2.013  11.666  0.00  0.00    +0.012 A 
ATOM     10  C   UNL     1      -0.878   2.111  12.772  0.00  0.00    +0.001 A 
ATOM     11  C   UNL     1       0.486   1.873  12.680  0.00  0.00    +0.004 A 
ATOM     12  C   UNL     1       1.062   1.533  11.474  0.00  0.00    +0.047 A 
ATOM     13  C   UNL     1       0.273   1.426  10.336  0.00  0.00    +0.136 A 
ATOM     14  O   UNL     1       0.541   1.114   9.052  0.00  0.00    -0.450 OA
ATOM     15  C   UNL     1      -3.079   1.621   8.651  0.00  0.00    +0.048 C 
ENDBRANCH   4   6
BRANCH   1  17
ATOM     16  N   UNL     1      -0.008  -0.140   2.444  0.00  0.00    -0.305 N 
ATOM     17  C   UNL     1       0.630  -0.011   3.624  0.00  0.00    +0.301 C 
ATOM     18  O   UNL     1       1.830  -0.203   3.690  0.00  0.00    -0.265 OA
ATOM     19  H   UNL     1      -0.965   0.013   2.391  0.00  0.00    +0.149 HD
BRANCH  16  20
ATOM     20  C   UNL     1       0.742  -0.511   1.242  0.00  0.00    +0.070 C 
ATOM     21  C   UNL     1       0.872  -2.034   1.171  0.00  0.00    +0.028 C 
BRANCH  20  23
ATOM     22  C   UNL     1      -0.019   1.526   0.010  0.00  0.00    +0.005 C 
ATOM     23  C   UNL     1       0.002  -0.004   0.002  0.00  0.00    +0.018 C 
ENDBRANCH  20  23
ENDBRANCH  16  20
ENDBRANCH   1  17
TORSDOF 4
