REMARK  Name = ZINC39665895
REMARK  8 active torsions:
REMARK  status: ('A' for Active; 'I' for Inactive)
REMARK    1  A    between atoms: C_1  and  C_2
REMARK    2  A    between atoms: C_5  and  O_8
REMARK    3  A    between atoms: O_8  and  C_9
REMARK    4  A    between atoms: C_9  and  C_11
REMARK    5  A    between atoms: C_9  and  C_12
REMARK    6  A    between atoms: C_12  and  N_13
REMARK    7  A    between atoms: C_14  and  C_16
REMARK    8  A    between atoms: C_27  and  C_29
REMARK                            x       y       z     vdW  Elec       q    Type
REMARK                         _______ _______ _______ _____ _____    ______ ____
ROOT
ATOM      1  C   UNL     1      -3.570  -6.982  -0.032  0.00  0.00    +0.100 C 
ATOM      2  C   UNL     1      -3.708  -6.457  -1.479  0.00  0.00    +0.121 C 
ATOM      3  N   UNL     1      -3.798  -7.678  -2.313  0.00  0.00    -0.296 N 
ATOM      4  C   UNL     1      -4.640  -8.606  -1.519  0.00  0.00    +0.115 C 
ATOM      5  C   UNL     1      -4.185  -8.391  -0.062  0.00  0.00    -0.004 C 
ATOM      6  C   UNL     1      -3.139  -9.432   0.322  0.00  0.00    -0.010 C 
ATOM      7  C   UNL     1      -3.789 -10.819   0.340  0.00  0.00    -0.082 C 
ATOM      8  N   UNL     1      -4.896 -10.830   1.304  0.00  0.00    +0.379 N 
ATOM      9  C   UNL     1      -5.941  -9.891   0.876  0.00  0.00    -0.082 C 
ATOM     10  C   UNL     1      -5.382  -8.466   0.881  0.00  0.00    -0.010 C 
ATOM     11  C   UNL     1      -3.240  -7.897  -3.520  0.00  0.00    +0.248 C 
ATOM     12  O   UNL     1      -2.646  -7.000  -4.087  0.00  0.00    -0.270 OA
ATOM     13  H   UNL     1      -5.283 -11.760   1.359  0.00  0.00    -0.086 HD
ATOM     14  H   UNL     1      -4.552 -10.557   2.212  0.00  0.00    -0.086 HD
ENDROOT
BRANCH  11  15
ATOM     15  C   UNL     1      -3.352  -9.226  -4.156  0.00  0.00    +0.055 A 
ATOM     16  C   UNL     1      -4.558  -9.928  -4.106  0.00  0.00    +0.016 A 
ATOM     17  C   UNL     1      -4.655 -11.168  -4.701  0.00  0.00    +0.021 A 
ATOM     18  C   UNL     1      -3.560 -11.719  -5.347  0.00  0.00    +0.042 A 
ATOM     19  C   UNL     1      -2.361 -11.029  -5.399  0.00  0.00    +0.040 A 
ATOM     20  C   UNL     1      -2.252  -9.783  -4.814  0.00  0.00    +0.054 A 
ATOM     21 CL   UNL     1      -0.750  -8.915  -4.887  0.00  0.00    -0.083 Cl
ATOM     22 CL   UNL     1      -3.692 -13.281  -6.092  0.00  0.00    -0.083 Cl
ENDBRANCH  11  15
BRANCH   1  24
ATOM     23  N   UNL     1      -1.772  -7.028   1.666  0.00  0.00    -0.312 N 
ATOM     24  C   UNL     1      -2.117  -7.052   0.364  0.00  0.00    +0.218 C 
ATOM     25  O   UNL     1      -1.259  -7.129  -0.490  0.00  0.00    -0.275 OA
ATOM     26  H   UNL     1      -2.458  -6.966   2.349  0.00  0.00    +0.149 HD
BRANCH  23  27
ATOM     27  C   UNL     1      -0.360  -7.096   2.051  0.00  0.00    +0.148 C 
BRANCH  27  28
ATOM     28  C   UNL     1      -0.244  -7.052   3.576  0.00  0.00    +0.187 C 
ATOM     29  C   UNL     1       1.230  -7.123   3.978  0.00  0.00    +0.053 C 
BRANCH  28  30
ATOM     30  O   UNL     1      -0.812  -5.834   4.062  0.00  0.00    -0.488 OA
BRANCH  30  35
ATOM     31  C   UNL     1      -2.650  -5.814   9.386  0.00  0.00    +0.044 C 
ATOM     32  C   UNL     1      -2.158  -5.819   7.961  0.00  0.00    -0.050 A 
ATOM     33  C   UNL     1      -1.636  -6.977   7.416  0.00  0.00    +0.007 A 
ATOM     34  C   UNL     1      -1.184  -6.985   6.110  0.00  0.00    +0.046 A 
ATOM     35  C   UNL     1      -1.256  -5.829   5.346  0.00  0.00    +0.121 A 
ATOM     36  C   UNL     1      -1.781  -4.668   5.896  0.00  0.00    +0.046 A 
ATOM     37  C   UNL     1      -2.236  -4.668   7.200  0.00  0.00    +0.007 A 
ENDBRANCH  30  35
ENDBRANCH  28  30
ENDBRANCH  27  28
ENDBRANCH  23  27
ENDBRANCH   1  24
TORSDOF 6
