REMARK  Name = ZINC62917152
REMARK  4 active torsions:
REMARK  status: ('A' for Active; 'I' for Inactive)
REMARK    1  A    between atoms: C_1  and  C_2
REMARK    2  A    between atoms: C_2  and  C_3
REMARK    3  A    between atoms: C_3  and  C_22
REMARK    4  A    between atoms: C_8  and  C_10
REMARK                            x       y       z     vdW  Elec       q    Type
REMARK                         _______ _______ _______ _____ _____    ______ ____
ROOT
ATOM      1  C   UNL     1       0.718  -0.497  -1.257  0.00  0.00    +0.089 C 
ATOM      2  C   UNL     1      -0.074  -0.089  -2.520  0.00  0.00    +0.039 C 
ATOM      3  C   UNL     1       0.065  -1.335  -3.431  0.00  0.00    +0.109 C 
ATOM      4  N   UNL     1      -0.008  -2.464  -2.476  0.00  0.00    -0.302 N 
ATOM      5  C   UNL     1       0.750  -2.037  -1.285  0.00  0.00    +0.126 C 
ATOM      6  C   UNL     1      -0.639  -3.641  -2.658  0.00  0.00    +0.202 C 
ATOM      7  O   UNL     1      -0.617  -4.482  -1.784  0.00  0.00    -0.277 OA
ENDROOT
BRANCH   6   8
ATOM      8  C   UNL     1      -1.371  -3.913  -3.946  0.00  0.00    +0.017 C 
ATOM      9  C   UNL     1      -0.381  -3.885  -5.133  0.00  0.00    -0.005 C 
ATOM     10  C   UNL     1      -0.936  -5.012  -6.059  0.00  0.00    -0.026 C 
ATOM     11  C   UNL     1      -2.158  -4.431  -6.772  0.00  0.00    +0.002 C 
ATOM     12  C   UNL     1      -3.011  -5.546  -7.372  0.00  0.00    +0.000 C 
ATOM     13  C   UNL     1      -3.516  -6.444  -6.238  0.00  0.00    -0.002 C 
ATOM     14  C   UNL     1      -2.309  -7.090  -5.558  0.00  0.00    -0.015 C 
ATOM     15  C   UNL     1      -1.355  -6.051  -4.998  0.00  0.00    -0.068 C 
ATOM     16  N   UNL     1      -1.968  -5.267  -3.913  0.00  0.00    +0.389 N 
ATOM     17  H   UNL     1      -1.775  -5.704  -3.024  0.00  0.00    -0.084 HD
ATOM     18  H   UNL     1      -2.965  -5.205  -4.056  0.00  0.00    -0.084 HD
ENDBRANCH   6   8
BRANCH   1  19
ATOM     19  C   UNL     1       2.119   0.057  -1.312  0.00  0.00    +0.364 C 
ATOM     20  O   UNL     1       2.525   0.777  -0.417  0.00  0.00    -0.246 OA
ATOM     21  O   UNL     1       2.845  -0.216  -2.253  0.00  0.00    -0.246 OA
ENDBRANCH   1  19
BRANCH   1  23
ATOM     22  C   UNL     1      -0.019   1.526   0.010  0.00  0.00    +0.005 C 
ATOM     23  C   UNL     1       0.002  -0.004   0.002  0.00  0.00    +0.016 C 
ENDBRANCH   1  23
TORSDOF 3
