REMARK  Name = ZINC49212396
REMARK  4 active torsions:
REMARK  status: ('A' for Active; 'I' for Inactive)
REMARK    1  A    between atoms: C_1  and  C_2
REMARK    2  A    between atoms: N_10  and  N_11
REMARK    3  A    between atoms: N_11  and  C_12
REMARK    4  A    between atoms: C_12  and  C_19
REMARK                            x       y       z     vdW  Elec       q    Type
REMARK                         _______ _______ _______ _____ _____    ______ ____
ROOT
ATOM      1  C   UNL     1      -0.018   1.503   0.010  0.00  0.00    +0.066 C 
ATOM      2  C   UNL     1       0.002  -0.004   0.002  0.00  0.00    +0.047 A 
ATOM      3  C   UNL     1       0.006  -0.706  -1.158  0.00  0.00    +0.071 A 
ATOM      4  S   UNL     1       0.032  -2.378  -0.535  0.00  0.00    -0.060 S 
ATOM      5  C   UNL     1       0.036  -2.015   1.109  0.00  0.00    +0.166 A 
ATOM      6  N   UNL     1       0.023  -0.700   1.124  0.00  0.00    -0.230 NA
ATOM      7  N   UNL     1       0.054  -2.892   2.187  0.00  0.00    -0.247 N 
ATOM      8  C   UNL     1       0.071  -4.222   1.974  0.00  0.00    +0.319 C 
ATOM      9  O   UNL     1       0.072  -4.656   0.838  0.00  0.00    -0.251 OA
ATOM     10  N   UNL     1       0.089  -5.072   3.020  0.00  0.00    -0.234 N 
ATOM     11  H   UNL     1       0.053  -2.546   3.093  0.00  0.00    +0.158 HD
ATOM     12  H   UNL     1       0.102  -6.030   2.866  0.00  0.00    +0.171 HD
ENDROOT
BRANCH  10  13
ATOM     13  N   UNL     1       0.088  -4.585   4.296  0.00  0.00    -0.232 NA
ATOM     14  H   UNL     1       0.861  -3.953   4.442  0.00  0.00    +0.145 HD
BRANCH  13  15
ATOM     15  C   UNL     1       0.108  -5.678   5.277  0.00  0.00    +0.054 C 
ATOM     16  C   UNL     1       1.320  -6.566   4.996  0.00  0.00    +0.047 C 
ATOM     17  C   UNL     1       2.554  -6.063   5.798  0.00  0.00    +0.168 C 
ATOM     18  S   UNL     1       1.725  -5.612   7.385  0.00  0.00    -0.029 S 
ATOM     19  O   UNL     1       1.532  -6.786   8.162  0.00  0.00    -0.174 OA
ATOM     20  O   UNL     1       2.388  -4.492   7.957  0.00  0.00    -0.174 OA
ATOM     21  C   UNL     1       0.107  -5.071   6.693  0.00  0.00    +0.189 C 
ATOM     22  C   UNL     1      -1.159  -6.516   5.101  0.00  0.00    +0.031 C 
ENDBRANCH  13  15
ENDBRANCH  10  13
TORSDOF 2
