REMARK  Name = ZINC60280774
REMARK  3 active torsions:
REMARK  status: ('A' for Active; 'I' for Inactive)
REMARK    1  A    between atoms: C_1  and  N_2
REMARK    2  A    between atoms: C_4  and  C_12
REMARK    3  A    between atoms: C_6  and  C_7
REMARK                            x       y       z     vdW  Elec       q    Type
REMARK                         _______ _______ _______ _____ _____    ______ ____
ROOT
ATOM      1  C   UNL     1      -0.013   1.086   0.008  0.00  0.00    +0.138 C 
ATOM      2  N   UNL     1      -0.721   1.571  -1.179  0.00  0.00    -0.282 N 
ATOM      3  C   UNL     1      -0.131   1.843  -2.394  0.00  0.00    +0.100 C 
ATOM      4  C   UNL     1      -1.274   2.309  -3.276  0.00  0.00    +0.175 C 
ATOM      5  N   UNL     1      -2.450   2.240  -2.395  0.00  0.00    -0.363 N 
ATOM      6  C   UNL     1      -2.064   1.814  -1.244  0.00  0.00    +0.079 C 
ATOM      7  N   UNL     1       1.116   1.728  -2.712  0.00  0.00    -0.388 N 
ATOM      8  H   UNL     1       1.757   1.417  -2.054  0.00  0.00    +0.157 HD
ATOM      9  H   UNL     1       1.411   1.953  -3.608  0.00  0.00    +0.157 HD
ATOM     10  H   UNL     1      -3.360   2.471  -2.640  0.00  0.00    +0.162 HD
ENDROOT
BRANCH   4  11
ATOM     11  C   UNL     1      -1.043   3.725  -3.738  0.00  0.00    +0.017 A 
ATOM     12  C   UNL     1      -1.597   4.780  -3.038  0.00  0.00    +0.010 A 
ATOM     13  C   UNL     1      -1.385   6.078  -3.461  0.00  0.00    +0.016 A 
ATOM     14  C   UNL     1      -0.618   6.324  -4.586  0.00  0.00    +0.021 A 
ATOM     15  C   UNL     1      -0.063   5.270  -5.288  0.00  0.00    +0.054 A 
ATOM     16  C   UNL     1      -0.270   3.969  -4.861  0.00  0.00    +0.130 A 
ATOM     17  F   UNL     1       0.276   2.938  -5.543  0.00  0.00    -0.205 F 
ATOM     18 BR   UNL     1      -0.329   8.101  -5.164  0.00  0.00    -0.050 Br
ENDBRANCH   4  11
BRANCH   6  19
ATOM     19  C   UNL     1      -3.000   1.609  -0.081  0.00  0.00    +0.051 C 
ATOM     20  C   UNL     1      -3.212   2.938   0.686  0.00  0.00    +0.011 C 
ATOM     21  C   UNL     1      -4.574   2.715   1.388  0.00  0.00    +0.001 C 
ATOM     22  C   UNL     1      -5.410   1.935   0.352  0.00  0.00    +0.001 C 
ATOM     23  C   UNL     1      -4.410   1.232  -0.582  0.00  0.00    +0.011 C 
ENDBRANCH   6  19
TORSDOF 2
