REMARK  Name = ZINC09832321
REMARK  13 active torsions:
REMARK  status: ('A' for Active; 'I' for Inactive)
REMARK    1  A    between atoms: C_1  and  N_2
REMARK    2  A    between atoms: N_2  and  C_3
REMARK    3  A    between atoms: N_2  and  S_10
REMARK    4  A    between atoms: C_3  and  C_4
REMARK    5  A    between atoms: S_10  and  C_13
REMARK    6  A    between atoms: C_16  and  C_19
REMARK    7  A    between atoms: C_19  and  N_21
REMARK    8  A    between atoms: N_23  and  C_33
REMARK    9  A    between atoms: C_27  and  O_31
REMARK   10  A    between atoms: O_31  and  C_32
REMARK   11  A    between atoms: C_33  and  C_34
REMARK   12  A    between atoms: C_34  and  O_35
REMARK   13  A    between atoms: O_35  and  C_36
REMARK                            x       y       z     vdW  Elec       q    Type
REMARK                         _______ _______ _______ _____ _____    ______ ____
ROOT
ATOM      1  C   UNL     1       6.077  -1.562  -3.258  0.00  0.00    +0.269 C 
ATOM      2  O   UNL     1       6.486  -0.817  -4.132  0.00  0.00    -0.268 OA
ENDROOT
BRANCH   1   3
ATOM      3  N   UNL     1       6.766  -2.663  -2.943  0.00  0.00    -0.152 NA
ATOM      4  C   UNL     1       6.401  -3.840  -3.441  0.00  0.00    +0.167 A 
ATOM      5  N   UNL     1       5.499  -4.083  -4.426  0.00  0.00    -0.319 N 
ATOM      6  C   UNL     1       5.244  -5.386  -4.817  0.00  0.00    +0.058 A 
ATOM      7  C   UNL     1       4.363  -5.857  -5.800  0.00  0.00    +0.030 A 
ATOM      8  C   UNL     1       4.245  -7.205  -6.049  0.00  0.00    +0.048 A 
ATOM      9  C   UNL     1       4.992  -8.135  -5.337  0.00  0.00    +0.121 A 
ATOM     10  C   UNL     1       5.871  -7.692  -4.359  0.00  0.00    +0.062 A 
ATOM     11  C   UNL     1       5.987  -6.344  -4.113  0.00  0.00    +0.042 A 
ATOM     12  S   UNL     1       6.957  -5.363  -2.998  0.00  0.00    -0.052 S 
BRANCH   9  13
ATOM     13  O   UNL     1       4.863  -9.463  -5.594  0.00  0.00    -0.495 OA
ATOM     14  C   UNL     1       3.936  -9.839  -6.616  0.00  0.00    +0.277 C 
ENDBRANCH   9  13
BRANCH   5  15
ATOM     15  C   UNL     1       4.798  -2.971  -5.071  0.00  0.00    +0.152 C 
BRANCH  15  16
ATOM     16  C   UNL     1       5.676  -2.388  -6.180  0.00  0.00    +0.181 C 
BRANCH  16  17
ATOM     17  O   UNL     1       5.860  -3.366  -7.206  0.00  0.00    -0.381 OA
ATOM     18  C   UNL     1       6.671  -2.921  -8.295  0.00  0.00    +0.194 C 
ENDBRANCH  16  17
ENDBRANCH  15  16
ENDBRANCH   5  15
ENDBRANCH   1   3
BRANCH   1  22
ATOM     19  C   UNL     1       2.464  -0.657  -1.212  0.00  0.00    +0.106 A 
ATOM     20  C   UNL     1       2.925   0.190  -2.203  0.00  0.00    +0.029 A 
ATOM     21  C   UNL     1       4.097  -0.098  -2.871  0.00  0.00    +0.015 A 
ATOM     22  C   UNL     1       4.818  -1.246  -2.544  0.00  0.00    +0.039 A 
ATOM     23  C   UNL     1       4.348  -2.097  -1.544  0.00  0.00    +0.015 A 
ATOM     24  C   UNL     1       3.177  -1.795  -0.879  0.00  0.00    +0.029 A 
BRANCH  19  25
ATOM     25  S   UNL     1       0.965  -0.283  -0.363  0.00  0.00    +0.061 S 
ATOM     26  O   UNL     1       0.469  -1.513   0.146  0.00  0.00    -0.153 OA
ATOM     27  O   UNL     1       0.204   0.545  -1.231  0.00  0.00    -0.153 OA
BRANCH  25  29
ATOM     28  C   UNL     1       1.406   2.106   0.826  0.00  0.00    +0.131 C 
ATOM     29  N   UNL     1       1.364   0.647   0.948  0.00  0.00    -0.177 NA
BRANCH  29  30
ATOM     30  C   UNL     1       1.676   0.009   2.230  0.00  0.00    +0.140 C 
BRANCH  30  31
ATOM     31  C   UNL     1       0.418  -0.029   3.099  0.00  0.00    +0.134 C 
ATOM     32  C   UNL     1       0.763  -0.588   4.496  0.00  0.00    +0.035 C 
ATOM     33  C   UNL     1      -0.474  -1.473   4.812  0.00  0.00    +0.031 C 
ATOM     34  C   UNL     1      -0.829  -1.998   3.399  0.00  0.00    +0.160 C 
ATOM     35  O   UNL     1      -0.554  -0.901   2.510  0.00  0.00    -0.375 OA
ENDBRANCH  30  31
ENDBRANCH  29  30
ENDBRANCH  25  29
ENDBRANCH  19  25
ENDBRANCH   1  22
TORSDOF 10
