REMARK  Name = ZINC12309624
REMARK  10 active torsions:
REMARK  status: ('A' for Active; 'I' for Inactive)
REMARK    1  A    between atoms: C_1  and  C_2
REMARK    2  A    between atoms: C_2  and  C_3
REMARK    3  A    between atoms: C_3  and  C_4
REMARK    4  A    between atoms: C_10  and  N_11
REMARK    5  A    between atoms: N_11  and  O_12
REMARK    6  A    between atoms: O_12  and  C_13
REMARK    7  A    between atoms: C_13  and  C_14
REMARK    8  A    between atoms: N_16  and  C_17
REMARK    9  A    between atoms: N_26  and  C_31
REMARK   10  A    between atoms: N_29  and  C_30
REMARK                            x       y       z     vdW  Elec       q    Type
REMARK                         _______ _______ _______ _____ _____    ______ ____
ROOT
ATOM      1  C   UNL     1       0.044   0.064  -0.345  0.00  0.00    -0.005 A 
ATOM      2  C   UNL     1       1.194  -0.594  -0.128  0.00  0.00    +0.090 A 
ATOM      3  N   UNL     1       2.313   0.042   0.339  0.00  0.00    -0.347 N 
ATOM      4  H   UNL     1       3.159  -0.546   0.725  0.00  0.00    +0.167 HD
ATOM      5  C   UNL     1       2.424   1.397   0.346  0.00  0.00    +0.129 A 
ATOM      6  C   UNL     1       1.294   2.186   0.147  0.00  0.00    +0.106 A 
ATOM      7  C   UNL     1      -0.000   1.515  -0.074  0.00  0.00    +0.082 A 
ATOM      8  C   UNL     1       1.417   3.594   0.163  0.00  0.00    +0.268 A 
ATOM      9  O   UNL     1       0.442   4.304  -0.005  0.00  0.00    -0.267 OA
ATOM     10  N   UNL     1       2.637   4.138   0.369  0.00  0.00    -0.263 N 
ATOM     11  C   UNL     1       3.715   3.357   0.554  0.00  0.00    +0.333 A 
ATOM     12  O   UNL     1       4.798   3.879   0.734  0.00  0.00    -0.246 OA
ATOM     13  N   UNL     1       3.632   2.014   0.546  0.00  0.00    -0.282 N 
ATOM     14  C   UNL     1       4.838   1.207   0.752  0.00  0.00    +0.155 C 
ATOM     15  C   UNL     1       2.787   5.595   0.389  0.00  0.00    +0.157 C 
ENDROOT
BRANCH   7  16
ATOM     16  N   UNL     1      -1.135   2.176  -0.038  0.00  0.00    -0.264 N 
ATOM     17  H   UNL     1      -2.019   1.780  -0.560  0.00  0.00    +0.194 HD
BRANCH  16  18
ATOM     18  O   UNL     1      -1.221   3.397   0.674  0.00  0.00    -0.265 OA
BRANCH  18  19
ATOM     19  C   UNL     1      -2.512   4.007   0.629  0.00  0.00    +0.288 C 
BRANCH  19  20
ATOM     20  C   UNL     1      -2.488   5.293   1.414  0.00  0.00    +0.246 C 
ATOM     21  O   UNL     1      -1.466   5.652   1.958  0.00  0.00    -0.273 OA
ATOM     22  N   UNL     1      -3.603   6.044   1.511  0.00  0.00    -0.281 N 
ATOM     23  H   UNL     1      -4.550   5.680   1.086  0.00  0.00    +0.155 HD
BRANCH  22  24
ATOM     24  C   UNL     1      -3.556   7.287   2.154  0.00  0.00    +0.069 A 
ATOM     25  C   UNL     1      -2.409   8.066   2.078  0.00  0.00    +0.026 A 
ATOM     26  C   UNL     1      -2.368   9.295   2.708  0.00  0.00    +0.002 A 
ATOM     27  C   UNL     1      -3.462   9.745   3.424  0.00  0.00    +0.003 A 
ATOM     28  C   UNL     1      -4.604   8.971   3.506  0.00  0.00    +0.040 A 
ATOM     29  C   UNL     1      -4.655   7.742   2.873  0.00  0.00    +0.144 A 
ATOM     30  F   UNL     1      -5.772   6.985   2.954  0.00  0.00    -0.204 F 
ENDBRANCH  22  24
ENDBRANCH  19  20
ENDBRANCH  18  19
ENDBRANCH  16  18
ENDBRANCH   7  16
BRANCH   1  31
ATOM     31  C   UNL     1      -1.175  -0.662  -0.853  0.00  0.00    +0.038 C 
BRANCH  31  33
ATOM     32  C   UNL     1      -1.977  -2.582  -2.236  0.00  0.00    +0.004 C 
ATOM     33  C   UNL     1      -0.739  -1.845  -1.720  0.00  0.00    +0.001 C 
ENDBRANCH  31  33
ENDBRANCH   1  31
TORSDOF 7
