REMARK  Name = ZINC41719630
REMARK  4 active torsions:
REMARK  status: ('A' for Active; 'I' for Inactive)
REMARK    1  A    between atoms: C_1  and  C_2
REMARK    2  A    between atoms: N_6  and  C_7
REMARK    3  A    between atoms: C_7  and  C_13
REMARK    4  A    between atoms: C_17  and  O_19
REMARK                            x       y       z     vdW  Elec       q    Type
REMARK                         _______ _______ _______ _____ _____    ______ ____
ROOT
ATOM      1  C   UNL     1      -0.490   1.179  -0.112  0.00  0.00    +0.063 C 
ATOM      2  C   UNL     1      -0.180  -0.291   0.003  0.00  0.00    +0.017 A 
ATOM      3  C   UNL     1      -0.169  -1.180  -1.014  0.00  0.00    +0.029 A 
ATOM      4  C   UNL     1       0.168  -2.429  -0.472  0.00  0.00    +0.002 A 
ATOM      5  C   UNL     1       0.350  -2.262   0.858  0.00  0.00    +0.025 A 
ATOM      6  N   UNL     1       0.144  -0.953   1.153  0.00  0.00    -0.342 N 
ATOM      7  C   UNL     1       0.721  -3.377   1.805  0.00  0.00    +0.054 C 
ATOM      8  C   UNL     1       0.444  -4.715   1.111  0.00  0.00    +0.009 C 
ATOM      9  C   UNL     1       1.083  -4.712  -0.281  0.00  0.00    +0.036 C 
ATOM     10  C   UNL     1       0.316  -3.745  -1.192  0.00  0.00    +0.146 C 
ENDROOT
BRANCH   6  11
ATOM     11  C   UNL     1       0.248  -0.350   2.485  0.00  0.00    +0.043 C 
ATOM     12  C   UNL     1       1.212  -1.173   3.342  0.00  0.00    +0.028 C 
ATOM     13  C   UNL     1       2.592  -1.193   2.682  0.00  0.00    +0.002 C 
ATOM     14  C   UNL     1       3.117   0.239   2.555  0.00  0.00    +0.000 C 
ATOM     15  C   UNL     1       2.153   1.061   1.697  0.00  0.00    +0.002 C 
ATOM     16  C   UNL     1       0.773   1.081   2.357  0.00  0.00    +0.028 C 
ATOM     17  C   UNL     1      -1.132  -0.330   3.145  0.00  0.00    +0.034 C 
ENDBRANCH   6  11
BRANCH  10  18
ATOM     18  O   UNL     1       1.043  -3.550  -2.407  0.00  0.00    -0.387 OA
ATOM     19  H   UNL     1       1.174  -4.358  -2.921  0.00  0.00    +0.210 HD
ENDBRANCH  10  18
TORSDOF 2
