REMARK  Name = ZINC11818245
REMARK  12 active torsions:
REMARK  status: ('A' for Active; 'I' for Inactive)
REMARK    1  A    between atoms: C_1  and  C_2
REMARK    2  A    between atoms: C_2  and  O_3
REMARK    3  A    between atoms: O_3  and  C_4
REMARK    4  A    between atoms: C_9  and  C_10
REMARK    5  A    between atoms: C_10  and  N_68
REMARK    6  A    between atoms: C_11  and  C_12
REMARK    7  A    between atoms: C_11  and  N_68
REMARK    8  A    between atoms: C_12  and  O_13
REMARK    9  A    between atoms: O_13  and  C_14
REMARK   10  A    between atoms: C_15  and  C_16
REMARK   11  A    between atoms: C_15  and  N_68
REMARK   12  A    between atoms: C_22  and  N_70
REMARK                            x       y       z     vdW  Elec       q    Type
REMARK                         _______ _______ _______ _____ _____    ______ ____
ROOT
ATOM      1  C   UNL     1       3.707   0.214   0.978  0.00  0.00    -0.077 C 
ENDROOT
BRANCH   1   2
ATOM      2  C   UNL     1       4.616  -0.495   1.984  0.00  0.00    -0.044 C 
ATOM      3  C   UNL     1       3.790  -1.480   2.815  0.00  0.00    -0.002 C 
ATOM      4  C   UNL     1       4.718  -2.228   3.776  0.00  0.00    -0.018 C 
ATOM      5  C   UNL     1       5.808  -2.942   2.973  0.00  0.00    -0.078 C 
ATOM      6  C   UNL     1       5.710  -1.258   1.233  0.00  0.00    -0.077 C 
ATOM      7  N   UNL     1       6.582  -1.936   2.216  0.00  0.00    +0.382 N 
ATOM      8  H   UNL     1       6.951  -1.237   2.871  0.00  0.00    -0.081 HD
BRANCH   7   9
ATOM      9  C   UNL     1       7.713  -2.586   1.522  0.00  0.00    -0.060 C 
ATOM     10  C   UNL     1       8.636  -3.284   2.543  0.00  0.00    +0.020 C 
ATOM     11  C   UNL     1      10.039  -3.090   2.007  0.00  0.00    -0.046 A 
ATOM     12  C   UNL     1      11.217  -3.748   2.317  0.00  0.00    +0.004 A 
ATOM     13  C   UNL     1      12.396  -3.395   1.690  0.00  0.00    +0.000 A 
ATOM     14  C   UNL     1      12.401  -2.381   0.750  0.00  0.00    +0.000 A 
ATOM     15  C   UNL     1      11.227  -1.723   0.440  0.00  0.00    +0.004 A 
ATOM     16  C   UNL     1      10.043  -2.076   1.067  0.00  0.00    -0.046 A 
ATOM     17  C   UNL     1       8.645  -1.520   0.908  0.00  0.00    +0.020 C 
ENDBRANCH   7   9
ENDBRANCH   1   2
BRANCH   1  18
ATOM     18  N   UNL     1       2.695   0.995   1.720  0.00  0.00    +0.384 N 
ATOM     19  H   UNL     1       2.264   0.393   2.431  0.00  0.00    -0.081 HD
BRANCH  18  20
ATOM     20  C   UNL     1       1.645   1.471   0.794  0.00  0.00    -0.039 C 
BRANCH  20  26
ATOM     21  C   UNL     1       0.332   3.159   2.103  0.00  0.00    +0.122 A 
ATOM     22  C   UNL     1      -0.782   3.524   2.845  0.00  0.00    +0.046 A 
ATOM     23  C   UNL     1      -1.786   2.604   3.079  0.00  0.00    +0.004 A 
ATOM     24  C   UNL     1      -1.683   1.322   2.571  0.00  0.00    +0.000 A 
ATOM     25  C   UNL     1      -0.571   0.955   1.837  0.00  0.00    +0.005 A 
ATOM     26  C   UNL     1       0.436   1.871   1.599  0.00  0.00    -0.022 A 
BRANCH  21  27
ATOM     27  O   UNL     1       1.321   4.062   1.871  0.00  0.00    -0.492 OA
BRANCH  27  29
ATOM     28  C   UNL     1       2.330   6.253   2.030  0.00  0.00    +0.048 C 
ATOM     29  C   UNL     1       1.185   5.345   2.486  0.00  0.00    +0.225 C 
ENDBRANCH  27  29
ENDBRANCH  21  27
ENDBRANCH  20  26
ENDBRANCH  18  20
BRANCH  18  30
ATOM     30  C   UNL     1       3.336   2.146   2.390  0.00  0.00    -0.050 C 
BRANCH  30  31
ATOM     31  C   UNL     1       4.125   2.983   1.381  0.00  0.00    +0.141 C 
BRANCH  31  32
ATOM     32  O   UNL     1       3.218   3.621   0.479  0.00  0.00    -0.385 OA
ATOM     33  C   UNL     1       3.858   4.375  -0.552  0.00  0.00    +0.193 C 
ENDBRANCH  31  32
ENDBRANCH  30  31
ENDBRANCH  18  30
ENDBRANCH   1  18
TORSDOF 10
