REMARK  Name = ZINC34793280
REMARK  8 active torsions:
REMARK  status: ('A' for Active; 'I' for Inactive)
REMARK    1  A    between atoms: C_1  and  C_2
REMARK    2  A    between atoms: C_2  and  N_3
REMARK    3  A    between atoms: C_6  and  C_11
REMARK    4  A    between atoms: N_21  and  C_23
REMARK    5  A    between atoms: C_23  and  C_24
REMARK    6  A    between atoms: N_26  and  C_27
REMARK    7  A    between atoms: C_27  and  C_28
REMARK    8  A    between atoms: C_28  and  N_29
REMARK                            x       y       z     vdW  Elec       q    Type
REMARK                         _______ _______ _______ _____ _____    ______ ____
ROOT
ATOM      1  N   UNL     1       0.711  -0.489   1.189  0.00  0.00    -0.257 N 
ATOM      2  C   UNL     1       2.060  -0.680   1.102  0.00  0.00    +0.042 C 
ATOM      3  C   UNL     1       2.772  -1.125   2.157  0.00  0.00    +0.058 C 
ATOM      4  C   UNL     1       2.024  -1.405   3.445  0.00  0.00    +0.143 C 
ATOM      5  N   UNL     1       0.571  -1.168   3.436  0.00  0.00    -0.288 N 
ATOM      6  C   UNL     1       0.000  -0.716   2.302  0.00  0.00    +0.307 C 
ATOM      7  O   UNL     1      -1.198  -0.513   2.286  0.00  0.00    -0.252 OA
ATOM      8  C   UNL     1       4.136  -1.239   1.815  0.00  0.00    +0.247 C 
ATOM      9  O   UNL     1       5.006  -1.618   2.577  0.00  0.00    -0.270 OA
ATOM     10  N   UNL     1       4.348  -0.875   0.538  0.00  0.00    -0.283 N 
ATOM     11  C   UNL     1       3.047  -0.488  -0.028  0.00  0.00    +0.160 C 
ATOM     12  H   UNL     1       0.037  -1.329   4.230  0.00  0.00    +0.151 HD
ENDROOT
BRANCH   4  13
ATOM     13  C   UNL     1       2.256  -2.848   3.812  0.00  0.00    -0.004 A 
ATOM     14  C   UNL     1       1.343  -3.814   3.432  0.00  0.00    +0.008 A 
ATOM     15  C   UNL     1       1.555  -5.137   3.768  0.00  0.00    +0.020 A 
ATOM     16  C   UNL     1       2.682  -5.497   4.486  0.00  0.00    +0.042 A 
ATOM     17  C   UNL     1       3.597  -4.532   4.866  0.00  0.00    +0.040 A 
ATOM     18  C   UNL     1       3.386  -3.207   4.525  0.00  0.00    +0.048 A 
ATOM     19 CL   UNL     1       4.537  -1.996   4.996  0.00  0.00    -0.083 Cl
ATOM     20 CL   UNL     1       2.948  -7.159   4.909  0.00  0.00    -0.083 Cl
ENDBRANCH   4  13
BRANCH   1  22
ATOM     21  C   UNL     1      -0.019   1.526   0.010  0.00  0.00    +0.025 C 
ATOM     22  C   UNL     1       0.002  -0.004   0.002  0.00  0.00    +0.111 C 
ENDBRANCH   1  22
BRANCH  10  23
ATOM     23  C   UNL     1       5.636  -0.866  -0.160  0.00  0.00    +0.204 C 
BRANCH  23  24
ATOM     24  C   UNL     1       5.861  -2.204  -0.818  0.00  0.00    +0.230 C 
ATOM     25  O   UNL     1       5.027  -3.078  -0.714  0.00  0.00    -0.274 OA
ATOM     26  N   UNL     1       6.989  -2.427  -1.521  0.00  0.00    -0.316 N 
ATOM     27  H   UNL     1       7.655  -1.728  -1.605  0.00  0.00    +0.149 HD
BRANCH  26  28
ATOM     28  C   UNL     1       7.207  -3.727  -2.161  0.00  0.00    +0.086 C 
BRANCH  28  29
ATOM     29  C   UNL     1       8.552  -3.718  -2.889  0.00  0.00    -0.060 C 
BRANCH  29  30
ATOM     30  N   UNL     1       8.771  -5.021  -3.530  0.00  0.00    +0.381 N 
ATOM     31  C   UNL     1       8.886  -6.059  -2.499  0.00  0.00    -0.079 C 
ATOM     32  C   UNL     1       9.034  -7.430  -3.163  0.00  0.00    -0.019 C 
ATOM     33  C   UNL     1      10.291  -7.435  -4.037  0.00  0.00    -0.004 C 
ATOM     34  C   UNL     1      10.193  -6.301  -5.062  0.00  0.00    -0.019 C 
ATOM     35  C   UNL     1      10.003  -4.972  -4.327  0.00  0.00    -0.079 C 
ATOM     36  H   UNL     1       7.990  -5.234  -4.133  0.00  0.00    -0.082 HD
ENDBRANCH  29  30
ENDBRANCH  28  29
ENDBRANCH  26  28
ENDBRANCH  23  24
ENDBRANCH  10  23
TORSDOF 7
