REMARK  Name = ZINC63807109
REMARK  7 active torsions:
REMARK  status: ('A' for Active; 'I' for Inactive)
REMARK    1  A    between atoms: C_1  and  C_2
REMARK    2  A    between atoms: C_2  and  C_3
REMARK    3  A    between atoms: C_3  and  C_4
REMARK    4  A    between atoms: C_6  and  C_11
REMARK    5  A    between atoms: N_13  and  C_14
REMARK    6  A    between atoms: C_14  and  C_15
REMARK    7  A    between atoms: C_15  and  C_16
REMARK                            x       y       z     vdW  Elec       q    Type
REMARK                         _______ _______ _______ _____ _____    ______ ____
ROOT
ATOM      1  C   UNL     1      -3.701  -1.360   0.018  0.00  0.00    +0.229 C 
ATOM      2  O   UNL     1      -3.540  -0.531  -0.853  0.00  0.00    -0.275 OA
ATOM      3  N   UNL     1      -4.719  -1.229   0.892  0.00  0.00    -0.314 N 
ATOM      4  H   UNL     1      -4.848  -1.891   1.588  0.00  0.00    +0.149 HD
ENDROOT
BRANCH   1   6
ATOM      5  C   UNL     1      -3.306  -3.748  -0.671  0.00  0.00    +0.093 C 
ATOM      6  C   UNL     1      -2.765  -2.536   0.122  0.00  0.00    +0.167 C 
ATOM      7  S   UNL     1      -2.732  -3.207   1.839  0.00  0.00    -0.051 S 
ATOM      8  N   UNL     1      -2.861  -4.949   1.413  0.00  0.00    -0.199 NA
ATOM      9  N   UNL     1      -3.696  -4.860   0.202  0.00  0.00    -0.242 NA
ATOM     10  H   UNL     1      -1.954  -5.337   1.202  0.00  0.00    +0.154 HD
ATOM     11  H   UNL     1      -4.675  -4.807   0.440  0.00  0.00    +0.142 HD
BRANCH   5  12
ATOM     12  C   UNL     1      -4.526  -3.305  -1.482  0.00  0.00    +0.021 C 
BRANCH  12  14
ATOM     13  C   UNL     1      -6.178  -3.996  -3.223  0.00  0.00    +0.004 C 
ATOM     14  C   UNL     1      -4.959  -4.439  -2.412  0.00  0.00    -0.002 C 
ENDBRANCH  12  14
ENDBRANCH   5  12
ENDBRANCH   1   6
BRANCH   3  15
ATOM     15  C   UNL     1      -5.629  -0.086   0.790  0.00  0.00    +0.108 C 
BRANCH  15  16
ATOM     16  C   UNL     1      -6.686  -0.175   1.893  0.00  0.00    +0.052 C 
BRANCH  16  17
ATOM     17  C   UNL     1      -7.622   1.001   1.789  0.00  0.00    -0.040 C 
ATOM     18  C   UNL     1      -8.816   1.036   1.155  0.00  0.00    +0.000 A 
ATOM     19  C   UNL     1      -9.571   0.028   0.400  0.00  0.00    +0.030 A 
ATOM     20  C   UNL     1     -10.768   0.367  -0.133  0.00  0.00    +0.042 A 
ATOM     21  C   UNL     1     -11.303   1.655   0.018  0.00  0.00    +0.022 A 
ATOM     22  C   UNL     1     -10.668   2.633   0.697  0.00  0.00    +0.027 A 
ATOM     23  C   UNL     1      -9.403   2.387   1.299  0.00  0.00    +0.043 A 
ATOM     24  N   UNL     1      -8.604   3.157   1.996  0.00  0.00    -0.380 N 
ATOM     25  C   UNL     1      -7.420   2.379   2.378  0.00  0.00    +0.144 C 
ATOM     26 CL   UNL     1     -11.663  -0.822  -1.026  0.00  0.00    -0.084 Cl
ATOM     27  H   UNL     1      -8.768   4.085   2.224  0.00  0.00    +0.160 HD
ENDBRANCH  16  17
ENDBRANCH  15  16
ENDBRANCH   3  15
TORSDOF 6
