REMARK  Name = ZINC19312374
REMARK  8 active torsions:
REMARK  status: ('A' for Active; 'I' for Inactive)
REMARK    1  A    between atoms: C_1  and  N_2
REMARK    2  A    between atoms: N_2  and  C_3
REMARK    3  A    between atoms: C_3  and  C_4
REMARK    4  A    between atoms: C_9  and  C_11
REMARK    5  A    between atoms: C_11  and  O_12
REMARK    6  A    between atoms: O_12  and  C_13
REMARK    7  A    between atoms: C_13  and  C_15
REMARK    8  A    between atoms: C_20  and  N_21
REMARK                            x       y       z     vdW  Elec       q    Type
REMARK                         _______ _______ _______ _____ _____    ______ ____
ROOT
ATOM      1  C   UNL     1      -1.038   8.717  -5.618  0.00  0.00    +0.080 A 
ATOM      2  C   UNL     1      -0.184   9.445  -4.791  0.00  0.00    +0.017 A 
ATOM      3  C   UNL     1       0.530  10.518  -5.292  0.00  0.00    +0.013 A 
ATOM      4  C   UNL     1       0.406  10.884  -6.629  0.00  0.00    +0.035 A 
ATOM      5  C   UNL     1      -0.450  10.161  -7.479  0.00  0.00    +0.054 A 
ATOM      6  C   UNL     1      -1.172   9.070  -6.974  0.00  0.00    +0.050 A 
ATOM      7  C   UNL     1      -0.585  10.544  -8.894  0.00  0.00    +0.196 C 
ATOM      8  O   UNL     1      -1.325   9.917  -9.627  0.00  0.00    -0.287 OA
ATOM      9  C   UNL     1       0.181  11.692  -9.424  0.00  0.00    +0.033 A 
ATOM     10  C   UNL     1       0.059  12.060 -10.761  0.00  0.00    +0.012 A 
ATOM     11  C   UNL     1       0.781  13.136 -11.249  0.00  0.00    +0.001 A 
ATOM     12  C   UNL     1       1.623  13.850 -10.417  0.00  0.00    +0.001 A 
ATOM     13  C   UNL     1       1.757  13.498  -9.085  0.00  0.00    +0.012 A 
ATOM     14  C   UNL     1       1.038  12.418  -8.578  0.00  0.00    +0.033 A 
ATOM     15  C   UNL     1       1.174  12.034  -7.158  0.00  0.00    +0.195 C 
ATOM     16  O   UNL     1       1.914  12.660  -6.426  0.00  0.00    -0.287 OA
ENDROOT
BRANCH   6  17
ATOM     17  N   UNL     1      -2.010   8.350  -7.799  0.00  0.00    -0.357 N 
ATOM     18  H   UNL     1      -2.112   8.629  -8.858  0.00  0.00    +0.142 HD
ATOM     19  H   UNL     1      -2.578   7.497  -7.398  0.00  0.00    +0.142 HD
ENDBRANCH   6  17
BRANCH   1  20
ATOM     20  C   UNL     1      -1.795   7.574  -5.074  0.00  0.00    +0.341 C 
ATOM     21  O   UNL     1      -2.580   6.974  -5.782  0.00  0.00    -0.245 OA
BRANCH  20  22
ATOM     22  O   UNL     1      -1.617   7.196  -3.794  0.00  0.00    -0.452 OA
BRANCH  22  23
ATOM     23  C   UNL     1      -2.396   6.063  -3.327  0.00  0.00    +0.328 C 
BRANCH  23  26
ATOM     24  C   UNL     1      -3.653   3.940  -1.933  0.00  0.00    +0.132 C 
ATOM     25  N   UNL     1      -2.672   4.774  -1.234  0.00  0.00    -0.297 N 
ATOM     26  C   UNL     1      -2.066   5.787  -1.882  0.00  0.00    +0.253 C 
ATOM     27  O   UNL     1      -1.254   6.478  -1.304  0.00  0.00    -0.272 OA
BRANCH  25  28
ATOM     28  C   UNL     1      -2.351   4.506   0.171  0.00  0.00    +0.143 C 
BRANCH  28  29
ATOM     29  C   UNL     1      -1.203   3.533   0.247  0.00  0.00    -0.023 A 
ATOM     30  C   UNL     1      -1.438   2.172   0.280  0.00  0.00    +0.013 A 
ATOM     31  C   UNL     1      -0.383   1.324   0.353  0.00  0.00    +0.045 A 
ATOM     32  S   UNL     1       0.999   2.454   0.365  0.00  0.00    -0.105 S 
ATOM     33  C   UNL     1       0.076   3.980   0.278  0.00  0.00    +0.050 A 
ENDBRANCH  28  29
ENDBRANCH  25  28
ENDBRANCH  23  26
ENDBRANCH  22  23
ENDBRANCH  20  22
ENDBRANCH   1  20
TORSDOF 7
