REMARK  Name = ZINC38575609
REMARK  7 active torsions:
REMARK  status: ('A' for Active; 'I' for Inactive)
REMARK    1  A    between atoms: C_1  and  C_2
REMARK    2  A    between atoms: C_5  and  C_8
REMARK    3  A    between atoms: C_11  and  C_33
REMARK    4  A    between atoms: C_14  and  C_16
REMARK    5  A    between atoms: C_16  and  S_17
REMARK    6  A    between atoms: S_17  and  C_18
REMARK    7  A    between atoms: C_24  and  C_27
REMARK                            x       y       z     vdW  Elec       q    Type
REMARK                         _______ _______ _______ _____ _____    ______ ____
ROOT
ATOM      1  C   UNL     1       0.059  -4.275  -0.021  0.00  0.00    +0.137 C 
ATOM      2  C   UNL     1      -1.343  -4.837   0.286  0.00  0.00    +0.087 C 
ATOM      3  C   UNL     1      -1.147  -5.626   1.561  0.00  0.00    +0.075 C 
ATOM      4  N   UNL     1       0.088  -5.551   1.929  0.00  0.00    -0.180 NA
ATOM      5  N   UNL     1       0.891  -4.788   1.079  0.00  0.00    -0.184 N 
ATOM      6  C   UNL     1       2.209  -4.558   1.238  0.00  0.00    +0.246 C 
ATOM      7  O   UNL     1       2.807  -3.875   0.433  0.00  0.00    -0.273 OA
ENDROOT
BRANCH   1  12
ATOM      8  C   UNL     1      -0.018   1.503   0.010  0.00  0.00    +0.044 C 
ATOM      9  C   UNL     1       0.002  -0.004   0.002  0.00  0.00    -0.050 A 
ATOM     10  C   UNL     1       0.006  -0.689  -1.199  0.00  0.00    +0.004 A 
ATOM     11  C   UNL     1       0.025  -2.071  -1.206  0.00  0.00    +0.006 A 
ATOM     12  C   UNL     1       0.040  -2.768  -0.013  0.00  0.00    -0.025 A 
ATOM     13  C   UNL     1       0.037  -2.084   1.188  0.00  0.00    +0.006 A 
ATOM     14  C   UNL     1       0.023  -0.702   1.195  0.00  0.00    +0.004 A 
ENDBRANCH   1  12
BRANCH   3  15
ATOM     15  C   UNL     1      -2.199  -6.362   2.271  0.00  0.00    +0.035 A 
ATOM     16  C   UNL     1      -2.112  -7.101   3.438  0.00  0.00    +0.017 A 
ATOM     17  C   UNL     1      -3.251  -7.707   3.914  0.00  0.00    +0.008 A 
ATOM     18  C   UNL     1      -4.416  -7.564   3.231  0.00  0.00    +0.046 A 
ATOM     19  S   UNL     1      -3.928  -6.532   1.859  0.00  0.00    -0.095 S 
ENDBRANCH   3  15
BRANCH   6  20
ATOM     20  C   UNL     1       2.941  -5.147   2.416  0.00  0.00    +0.173 C 
BRANCH  20  21
ATOM     21  S   UNL     1       4.686  -4.659   2.350  0.00  0.00    -0.095 S 
BRANCH  21  22
ATOM     22  C   UNL     1       5.395  -5.417   3.775  0.00  0.00    +0.118 A 
ATOM     23  C   UNL     1       6.766  -5.241   4.048  0.00  0.00    +0.040 A 
ATOM     24  C   UNL     1       7.322  -5.822   5.144  0.00  0.00    +0.053 A 
ATOM     25  C   UNL     1       6.513  -6.596   5.996  0.00  0.00    +0.178 A 
ATOM     26  N   UNL     1       6.746  -7.274   7.112  0.00  0.00    -0.128 NA
ATOM     27  N   UNL     1       5.656  -7.826   7.517  0.00  0.00    -0.125 NA
ATOM     28  C   UNL     1       4.667  -7.537   6.690  0.00  0.00    +0.203 A 
ATOM     29  N   UNL     1       5.182  -6.749   5.703  0.00  0.00    -0.190 N 
ATOM     30  N   UNL     1       4.638  -6.136   4.572  0.00  0.00    -0.157 NA
BRANCH  28  31
ATOM     31  C   UNL     1       3.265  -7.983   6.813  0.00  0.00    +0.110 A 
ATOM     32  C   UNL     1       2.885  -8.787   7.889  0.00  0.00    +0.031 A 
ATOM     33  C   UNL     1       1.568  -9.197   7.989  0.00  0.00    +0.004 A 
ATOM     34  C   UNL     1       0.671  -8.790   7.011  0.00  0.00    +0.020 A 
ATOM     35  C   UNL     1       1.114  -7.994   5.971  0.00  0.00    +0.111 A 
ATOM     36  N   UNL     1       2.373  -7.612   5.900  0.00  0.00    -0.252 NA
ENDBRANCH  28  31
ENDBRANCH  21  22
ENDBRANCH  20  21
ENDBRANCH   6  20
TORSDOF 6
