REMARK  Name = ZINC35938530
REMARK  8 active torsions:
REMARK  status: ('A' for Active; 'I' for Inactive)
REMARK    1  A    between atoms: C_1  and  C_2
REMARK    2  A    between atoms: C_5  and  S_8
REMARK    3  A    between atoms: S_8  and  N_11
REMARK    4  A    between atoms: C_16  and  C_18
REMARK    5  A    between atoms: C_19  and  C_21
REMARK    6  A    between atoms: C_21  and  N_22
REMARK    7  A    between atoms: C_30  and  C_32
REMARK    8  A    between atoms: C_37  and  C_38
REMARK                            x       y       z     vdW  Elec       q    Type
REMARK                         _______ _______ _______ _____ _____    ______ ____
ROOT
ATOM      1  N   UNL     1       1.668  -4.925  -0.036  0.00  0.00    -0.171 NA
ATOM      2  C   UNL     1       2.348  -5.217  -1.306  0.00  0.00    +0.129 C 
ATOM      3  C   UNL     1       2.874  -6.657  -1.262  0.00  0.00    +0.125 C 
ATOM      4  N   UNL     1       3.610  -6.849  -0.004  0.00  0.00    -0.298 N 
ATOM      5  C   UNL     1       2.931  -6.558   1.266  0.00  0.00    +0.128 C 
ATOM      6  C   UNL     1       2.406  -5.112   1.221  0.00  0.00    +0.094 C 
ATOM      7  C   UNL     1       1.472  -4.866   2.407  0.00  0.00    +0.027 C 
ATOM      8  C   UNL     1       4.885  -7.285  -0.016  0.00  0.00    +0.230 C 
ATOM      9  O   UNL     1       5.482  -7.440   1.028  0.00  0.00    -0.274 OA
ENDROOT
BRANCH   1  10
ATOM     10  S   UNL     1       0.102  -4.389  -0.022  0.00  0.00    +0.061 S 
ATOM     11  O   UNL     1      -0.471  -4.842   1.197  0.00  0.00    -0.153 OA
ATOM     12  O   UNL     1      -0.450  -4.715  -1.290  0.00  0.00    -0.153 OA
BRANCH  10  17
ATOM     13  C   UNL     1       0.276   1.634   0.289  0.00  0.00    +0.044 C 
ATOM     14  C   UNL     1       0.233   0.129   0.211  0.00  0.00    -0.050 A 
ATOM     15  C   UNL     1       0.224  -0.499  -1.020  0.00  0.00    +0.005 A 
ATOM     16  C   UNL     1       0.184  -1.879  -1.091  0.00  0.00    +0.029 A 
ATOM     17  C   UNL     1       0.153  -2.631   0.069  0.00  0.00    +0.106 A 
ATOM     18  C   UNL     1       0.163  -2.002   1.300  0.00  0.00    +0.029 A 
ATOM     19  C   UNL     1       0.207  -0.622   1.371  0.00  0.00    +0.005 A 
ENDBRANCH  10  17
ENDBRANCH   1  10
BRANCH   8  20
ATOM     20  C   UNL     1       5.569  -7.580  -1.326  0.00  0.00    +0.181 C 
BRANCH  20  21
ATOM     21  N   UNL     1       6.941  -8.037  -1.071  0.00  0.00    -0.283 NA
ATOM     22  C   UNL     1       6.944  -9.316  -0.346  0.00  0.00    +0.091 C 
ATOM     23  C   UNL     1       8.343  -9.543   0.253  0.00  0.00    +0.058 C 
ATOM     24  C   UNL     1       9.347  -9.251  -0.814  0.00  0.00    -0.004 A 
ATOM     25  C   UNL     1       9.117  -8.609  -1.994  0.00  0.00    -0.016 A 
ATOM     26  C   UNL     1      10.213  -8.452  -2.840  0.00  0.00    +0.013 A 
ATOM     27  C   UNL     1      11.426  -8.924  -2.471  0.00  0.00    +0.046 A 
ATOM     28  S   UNL     1      11.075  -9.634  -0.869  0.00  0.00    -0.101 S 
ATOM     29  C   UNL     1       7.713  -8.108  -2.318  0.00  0.00    +0.119 C 
BRANCH  29  30
ATOM     30  C   UNL     1       7.796  -6.737  -2.939  0.00  0.00    -0.023 A 
ATOM     31  C   UNL     1       7.681  -5.611  -2.147  0.00  0.00    +0.006 A 
ATOM     32  C   UNL     1       7.757  -4.354  -2.717  0.00  0.00    +0.000 A 
ATOM     33  C   UNL     1       7.949  -4.224  -4.080  0.00  0.00    +0.000 A 
ATOM     34  C   UNL     1       8.065  -5.350  -4.872  0.00  0.00    +0.004 A 
ATOM     35  C   UNL     1       7.993  -6.607  -4.301  0.00  0.00    -0.045 A 
ATOM     36  C   UNL     1       8.125  -7.836  -5.164  0.00  0.00    +0.044 C 
ENDBRANCH  29  30
ENDBRANCH  20  21
ENDBRANCH   8  20
TORSDOF 5
