REMARK  Name = ZINC20935072
REMARK  8 active torsions:
REMARK  status: ('A' for Active; 'I' for Inactive)
REMARK    1  A    between atoms: C_1  and  C_2
REMARK    2  A    between atoms: C_2  and  C_3
REMARK    3  A    between atoms: C_3  and  C_27
REMARK    4  A    between atoms: N_6  and  N_10
REMARK    5  A    between atoms: C_11  and  C_12
REMARK    6  A    between atoms: C_13  and  C_26
REMARK    7  A    between atoms: N_15  and  C_18
REMARK    8  A    between atoms: C_18  and  C_19
REMARK                            x       y       z     vdW  Elec       q    Type
REMARK                         _______ _______ _______ _____ _____    ______ ____
ROOT
ATOM      1  C   UNL     1       2.077   0.730  -0.004  0.00  0.00    +0.054 A 
ATOM      2  C   UNL     1       1.241  -0.408   0.007  0.00  0.00    +0.070 A 
ATOM      3  N   UNL     1       0.001  -0.002   0.019  0.00  0.00    -0.174 NA
ATOM      4  N   UNL     1      -0.017   1.398   0.017  0.00  0.00    -0.248 N 
ATOM      5  C   UNL     1       1.256   1.840   0.003  0.00  0.00    +0.136 A 
ATOM      6 CL   UNL     1       1.768   3.498  -0.005  0.00  0.00    -0.062 Cl
ATOM      7  C   UNL     1       1.702  -1.844   0.005  0.00  0.00    +0.068 C 
ENDROOT
BRANCH   1   9
ATOM      8  N   UNL     1       4.198   1.858  -0.028  0.00  0.00    -0.176 NA
ATOM      9  C   UNL     1       3.551   0.733  -0.019  0.00  0.00    +0.143 C 
BRANCH   8  13
ATOM     10  C   UNL     1       7.790   1.238   0.177  0.00  0.00    +0.111 C 
ATOM     11  C   UNL     1       6.359   0.752   0.060  0.00  0.00    +0.266 C 
ATOM     12  O   UNL     1       5.980  -0.397  -0.021  0.00  0.00    -0.271 OA
ATOM     13  N   UNL     1       5.596   1.863   0.064  0.00  0.00    -0.109 N 
ATOM     14  C   UNL     1       6.338   2.972   0.162  0.00  0.00    +0.330 C 
ATOM     15  O   UNL     1       5.876   4.095   0.182  0.00  0.00    -0.250 OA
ATOM     16  N   UNL     1       7.654   2.703   0.240  0.00  0.00    -0.284 N 
ATOM     17  C   UNL     1       8.439   0.699   1.454  0.00  0.00    +0.041 C 
ATOM     18  H   UNL     1       8.550   3.335   0.333  0.00  0.00    +0.151 HD
BRANCH  10  20
ATOM     19  C   UNL     1      10.039   1.327  -0.907  0.00  0.00    +0.006 C 
ATOM     20  C   UNL     1       8.601   0.825  -1.052  0.00  0.00    +0.032 C 
ENDBRANCH  10  20
ENDBRANCH   8  13
ENDBRANCH   1   9
BRANCH   4  21
ATOM     21  C   UNL     1      -1.216   2.239   0.022  0.00  0.00    +0.180 C 
BRANCH  21  22
ATOM     22  C   UNL     1      -1.619   2.530   1.445  0.00  0.00    -0.026 A 
ATOM     23  C   UNL     1      -2.495   1.687   2.102  0.00  0.00    +0.007 A 
ATOM     24  C   UNL     1      -2.861   1.950   3.409  0.00  0.00    +0.020 A 
ATOM     25  C   UNL     1      -2.357   3.065   4.056  0.00  0.00    +0.041 A 
ATOM     26  C   UNL     1      -1.485   3.912   3.396  0.00  0.00    +0.020 A 
ATOM     27  C   UNL     1      -1.116   3.644   2.091  0.00  0.00    +0.007 A 
ATOM     28 CL   UNL     1      -2.821   3.400   5.695  0.00  0.00    -0.084 Cl
ENDBRANCH  21  22
ENDBRANCH   4  21
TORSDOF 5
