REMARK  Name = ZINC67406478
REMARK  6 active torsions:
REMARK  status: ('A' for Active; 'I' for Inactive)
REMARK    1  A    between atoms: C_1  and  C_2
REMARK    2  A    between atoms: C_7  and  C_11
REMARK    3  A    between atoms: C_11  and  N_12
REMARK    4  A    between atoms: C_18  and  N_21
REMARK    5  A    between atoms: C_22  and  C_24
REMARK    6  A    between atoms: C_28  and  C_29
REMARK                            x       y       z     vdW  Elec       q    Type
REMARK                         _______ _______ _______ _____ _____    ______ ____
ROOT
ATOM      1  N   UNL     1       1.471  -5.969   2.491  0.00  0.00    -0.294 N 
ATOM      2  C   UNL     1       1.735  -7.130   3.123  0.00  0.00    +0.303 C 
ATOM      3  O   UNL     1       0.837  -7.746   3.664  0.00  0.00    -0.253 OA
ATOM      4  N   UNL     1       2.994  -7.609   3.153  0.00  0.00    -0.286 N 
ATOM      5  C   UNL     1       4.108  -6.822   2.607  0.00  0.00    +0.111 C 
ATOM      6  C   UNL     1       4.868  -7.682   1.592  0.00  0.00    +0.041 C 
ATOM      7  C   UNL     1       5.292  -8.994   2.256  0.00  0.00    +0.076 C 
ATOM      8  C   UNL     1       4.049  -9.764   2.708  0.00  0.00    +0.041 C 
ATOM      9  C   UNL     1       3.280  -8.925   3.740  0.00  0.00    +0.111 C 
ATOM     10  H   UNL     1       2.197  -5.441   2.124  0.00  0.00    +0.151 HD
ENDROOT
BRANCH   7  11
ATOM     11  N   UNL     1       6.047  -9.805   1.298  0.00  0.00    -0.308 N 
ATOM     12  C   UNL     1       6.932 -10.720   1.740  0.00  0.00    +0.248 C 
ATOM     13  O   UNL     1       7.103 -10.874   2.934  0.00  0.00    -0.270 OA
ATOM     14  H   UNL     1       5.911  -9.682   0.345  0.00  0.00    +0.149 HD
BRANCH  12  15
ATOM     15  C   UNL     1       7.692 -11.536   0.776  0.00  0.00    +0.077 A 
ATOM     16  C   UNL     1       7.616 -11.479  -0.691  0.00  0.00    +0.054 A 
ATOM     17  C   UNL     1       8.483 -12.398  -1.141  0.00  0.00    +0.196 A 
ATOM     18  O   UNL     1       9.070 -12.999  -0.095  0.00  0.00    -0.467 OA
ATOM     19  C   UNL     1       8.617 -12.498   1.059  0.00  0.00    +0.114 A 
ATOM     20  C   UNL     1       9.053 -12.924   2.437  0.00  0.00    +0.087 C 
ENDBRANCH  12  15
ENDBRANCH   7  11
BRANCH   1  21
ATOM     21  C   UNL     1       0.088  -5.504   2.361  0.00  0.00    +0.160 C 
BRANCH  21  28
ATOM     22  C   UNL     1      -0.021   1.500   0.004  0.00  0.00    +0.045 C 
ATOM     23  C   UNL     1       0.001  -0.007  -0.003  0.00  0.00    -0.034 A 
ATOM     24  C   UNL     1       0.005  -0.700  -1.225  0.00  0.00    +0.008 A 
ATOM     25  C   UNL     1       0.025  -2.060  -1.228  0.00  0.00    +0.045 A 
ATOM     26  C   UNL     1       0.040  -2.753  -0.001  0.00  0.00    +0.115 A 
ATOM     27  N   UNL     1       0.059  -4.045   0.295  0.00  0.00    -0.342 N 
ATOM     28  C   UNL     1       0.067  -4.191   1.622  0.00  0.00    +0.051 A 
ATOM     29  C   UNL     1       0.052  -2.966   2.191  0.00  0.00    +0.115 A 
ATOM     30  N   UNL     1       0.035  -2.049   1.175  0.00  0.00    -0.308 N 
ATOM     31  C   UNL     1       0.020  -0.684   1.164  0.00  0.00    +0.096 A 
ATOM     32  H   UNL     1       0.067  -4.769  -0.351  0.00  0.00    +0.167 HD
ENDBRANCH  21  28
ENDBRANCH   1  21
TORSDOF 4
