REMARK  Name = ZINC43529798
REMARK  9 active torsions:
REMARK  status: ('A' for Active; 'I' for Inactive)
REMARK    1  A    between atoms: C_1  and  N_2
REMARK    2  A    between atoms: N_2  and  C_3
REMARK    3  A    between atoms: N_2  and  C_4
REMARK    4  A    between atoms: C_4  and  C_6
REMARK    5  A    between atoms: C_4  and  C_25
REMARK    6  A    between atoms: C_6  and  N_7
REMARK    7  A    between atoms: C_12  and  C_21
REMARK    8  A    between atoms: C_21  and  O_23
REMARK    9  A    between atoms: O_23  and  C_24
REMARK                            x       y       z     vdW  Elec       q    Type
REMARK                         _______ _______ _______ _____ _____    ______ ____
ROOT
ATOM      1  N   UNL     1      -0.229  -2.819   0.710  0.00  0.00    -0.300 N 
ATOM      2  C   UNL     1       0.003  -4.146   0.718  0.00  0.00    +0.307 C 
ATOM      3  O   UNL     1      -0.405  -4.840  -0.194  0.00  0.00    -0.252 OA
ATOM      4  N   UNL     1       0.688  -4.705   1.735  0.00  0.00    -0.248 N 
ATOM      5  C   UNL     1       1.122  -3.904   2.893  0.00  0.00    +0.171 C 
ATOM      6  C   UNL     1       2.553  -4.336   3.244  0.00  0.00    +0.299 C 
ATOM      7  O   UNL     1       2.555  -5.738   3.526  0.00  0.00    -0.474 OA
ATOM      8  C   UNL     1       1.950  -6.564   2.633  0.00  0.00    +0.143 A 
ATOM      9  C   UNL     1       1.007  -6.074   1.732  0.00  0.00    +0.080 A 
ATOM     10  C   UNL     1       0.391  -6.929   0.833  0.00  0.00    +0.027 A 
ATOM     11  C   UNL     1       0.710  -8.275   0.832  0.00  0.00    +0.002 A 
ATOM     12  C   UNL     1       1.643  -8.766   1.726  0.00  0.00    +0.004 A 
ATOM     13  C   UNL     1       2.270  -7.914   2.621  0.00  0.00    +0.047 A 
ATOM     14  H   UNL     1       0.159  -2.255   1.398  0.00  0.00    +0.150 HD
ENDROOT
BRANCH   6  15
ATOM     15  C   UNL     1       3.027  -3.574   4.455  0.00  0.00    +0.350 C 
ATOM     16  O   UNL     1       3.261  -4.161   5.485  0.00  0.00    -0.247 OA
BRANCH  15  17
ATOM     17  O   UNL     1       3.190  -2.243   4.388  0.00  0.00    -0.465 OA
ATOM     18  C   UNL     1       3.643  -1.585   5.574  0.00  0.00    +0.280 C 
ENDBRANCH  15  17
ENDBRANCH   6  15
BRANCH   1  19
ATOM     19  C   UNL     1      -1.067  -2.227  -0.336  0.00  0.00    +0.095 C 
BRANCH  19  20
ATOM     20  C   UNL     1      -1.272  -0.739  -0.044  0.00  0.00    -0.014 C 
BRANCH  20  21
ATOM     21  C   UNL     1      -1.975  -0.579   1.280  0.00  0.00    -0.022 A 
ATOM     22  C   UNL     1      -1.453  -0.270   2.491  0.00  0.00    +0.009 A 
ATOM     23  C   UNL     1      -2.298  -0.174   3.581  0.00  0.00    +0.008 A 
ATOM     24  C   UNL     1      -3.624  -0.394   3.406  0.00  0.00    +0.045 A 
ATOM     25  S   UNL     1      -3.713  -0.741   1.657  0.00  0.00    -0.103 S 
ENDBRANCH  20  21
BRANCH  20  27
ATOM     26  C   UNL     1      -2.200   1.308  -0.883  0.00  0.00    -0.096 C 
ATOM     27  N   UNL     1      -2.089  -0.140  -1.108  0.00  0.00    +0.382 N 
ATOM     28  C   UNL     1      -1.455  -0.387  -2.410  0.00  0.00    -0.096 C 
ATOM     29  H   UNL     1      -3.010  -0.553  -1.098  0.00  0.00    -0.082 HD
ENDBRANCH  20  27
ENDBRANCH  19  20
ENDBRANCH   1  19
TORSDOF 6
