REMARK  Name = ZINC12006826
REMARK  8 active torsions:
REMARK  status: ('A' for Active; 'I' for Inactive)
REMARK    1  A    between atoms: C_1  and  C_2
REMARK    2  A    between atoms: C_2  and  C_3
REMARK    3  A    between atoms: C_12  and  N_21
REMARK    4  A    between atoms: C_14  and  C_16
REMARK    5  A    between atoms: C_22  and  C_24
REMARK    6  A    between atoms: C_24  and  C_26
REMARK    7  A    between atoms: C_24  and  O_27
REMARK    8  A    between atoms: O_27  and  C_28
REMARK                            x       y       z     vdW  Elec       q    Type
REMARK                         _______ _______ _______ _____ _____    ______ ____
ROOT
ATOM      1  C   UNL     1      -8.384   0.229  -0.682  0.00  0.00    +0.050 A 
ATOM      2  C   UNL     1      -9.652  -0.128  -1.033  0.00  0.00    +0.093 A 
ATOM      3  C   UNL     1     -10.428   0.774  -1.786  0.00  0.00    +0.253 A 
ATOM      4  O   UNL     1     -11.567   0.488  -2.118  0.00  0.00    -0.268 OA
ATOM      5  N   UNL     1      -9.888   1.963  -2.129  0.00  0.00    -0.291 N 
ATOM      6  H   UNL     1     -10.406   2.602  -2.644  0.00  0.00    +0.172 HD
ATOM      7  C   UNL     1      -8.616   2.261  -1.754  0.00  0.00    +0.234 A 
ATOM      8  N   UNL     1      -7.897   1.413  -1.050  0.00  0.00    -0.217 NA
ATOM      9  N   UNL     1      -8.070   3.478  -2.113  0.00  0.00    -0.184 N 
ATOM     10  C   UNL     1      -6.813   3.916  -1.805  0.00  0.00    +0.132 A 
ATOM     11  C   UNL     1      -6.665   5.152  -2.345  0.00  0.00    +0.077 A 
ATOM     12  C   UNL     1      -7.870   5.486  -2.999  0.00  0.00    +0.130 A 
ATOM     13  N   UNL     1      -8.709   4.480  -2.853  0.00  0.00    -0.159 NA
ENDROOT
BRANCH  12  14
ATOM     14  C   UNL     1      -8.144   6.745  -3.722  0.00  0.00    +0.155 A 
ATOM     15  C   UNL     1      -9.303   7.065  -4.357  0.00  0.00    +0.051 A 
ATOM     16  C   UNL     1      -9.125   8.352  -4.902  0.00  0.00    +0.042 A 
ATOM     17  C   UNL     1      -7.877   8.747  -4.584  0.00  0.00    +0.196 A 
ATOM     18  O   UNL     1      -7.287   7.774  -3.871  0.00  0.00    -0.461 OA
ENDBRANCH  12  14
BRANCH  10  19
ATOM     19  N   UNL     1      -5.855   3.218  -1.075  0.00  0.00    -0.267 N 
ATOM     20  C   UNL     1      -4.646   3.769  -0.848  0.00  0.00    +0.259 C 
ATOM     21  O   UNL     1      -4.393   4.874  -1.280  0.00  0.00    -0.271 OA
ATOM     22  H   UNL     1      -6.057   2.334  -0.729  0.00  0.00    +0.156 HD
BRANCH  20  23
ATOM     23  C   UNL     1      -3.609   3.014  -0.057  0.00  0.00    +0.256 C 
ATOM     24  C   UNL     1      -4.150   2.720   1.343  0.00  0.00    +0.062 C 
BRANCH  23  25
ATOM     25  O   UNL     1      -2.422   3.802   0.046  0.00  0.00    -0.480 OA
BRANCH  25  26
ATOM     26  C   UNL     1      -1.255   3.135   0.248  0.00  0.00    +0.122 A 
ATOM     27  C   UNL     1      -1.264   1.763   0.450  0.00  0.00    +0.045 A 
ATOM     28  C   UNL     1      -0.077   1.089   0.661  0.00  0.00    +0.004 A 
ATOM     29  C   UNL     1       1.121   1.779   0.660  0.00  0.00    +0.000 A 
ATOM     30  C   UNL     1       1.134   3.146   0.453  0.00  0.00    +0.004 A 
ATOM     31  C   UNL     1      -0.051   3.825   0.247  0.00  0.00    +0.045 A 
ENDBRANCH  25  26
ENDBRANCH  23  25
ENDBRANCH  20  23
ENDBRANCH  10  19
BRANCH   1  33
ATOM     32  C   UNL     1      -6.648  -1.537  -0.819  0.00  0.00    +0.010 C 
ATOM     33  C   UNL     1      -7.531  -0.717   0.124  0.00  0.00    +0.052 C 
ENDBRANCH   1  33
TORSDOF 6
