REMARK  Name = ZINC38790886
REMARK  13 active torsions:
REMARK  status: ('A' for Active; 'I' for Inactive)
REMARK    1  A    between atoms: C_1  and  C_2
REMARK    2  A    between atoms: C_2  and  O_3
REMARK    3  A    between atoms: O_3  and  C_4
REMARK    4  A    between atoms: C_4  and  C_6
REMARK    5  A    between atoms: C_10  and  N_11
REMARK    6  A    between atoms: C_12  and  C_14
REMARK    7  A    between atoms: C_14  and  C_16
REMARK    8  A    between atoms: C_14  and  N_17
REMARK    9  A    between atoms: C_22  and  C_24
REMARK   10  A    between atoms: C_27  and  O_32
REMARK   11  A    between atoms: C_28  and  O_30
REMARK   12  A    between atoms: O_30  and  C_31
REMARK   13  A    between atoms: O_32  and  C_33
REMARK                            x       y       z     vdW  Elec       q    Type
REMARK                         _______ _______ _______ _____ _____    ______ ____
ROOT
ATOM      1  C   UNL     1      -2.591  -2.599  -5.391  0.00  0.00    +0.194 C 
ATOM      2  C   UNL     1      -3.396  -3.444  -4.401  0.00  0.00    +0.043 C 
ENDROOT
BRANCH   1   3
ATOM      3  N   UNL     1      -2.898  -3.024  -6.759  0.00  0.00    -0.217 N 
ATOM      4  C   UNL     1      -3.418  -2.131  -7.621  0.00  0.00    +0.268 A 
ATOM      5  O   UNL     1      -3.630  -0.983  -7.264  0.00  0.00    -0.266 OA
ATOM      6  C   UNL     1      -3.717  -2.531  -8.942  0.00  0.00    +0.074 A 
ATOM      7  C   UNL     1      -3.461  -3.825  -9.290  0.00  0.00    +0.035 A 
ATOM      8  C   UNL     1      -2.914  -4.686  -8.311  0.00  0.00    +0.092 A 
ATOM      9  N   UNL     1      -2.659  -4.237  -7.104  0.00  0.00    -0.168 NA
BRANCH   8  10
ATOM     10  C   UNL     1      -2.622  -6.100  -8.651  0.00  0.00    +0.006 A 
ATOM     11  C   UNL     1      -2.088  -6.953  -7.687  0.00  0.00    +0.014 A 
ATOM     12  C   UNL     1      -1.817  -8.269  -8.003  0.00  0.00    +0.050 A 
ATOM     13  C   UNL     1      -2.075  -8.745  -9.280  0.00  0.00    +0.162 A 
ATOM     14  C   UNL     1      -2.608  -7.897 -10.247  0.00  0.00    +0.162 A 
ATOM     15  C   UNL     1      -2.887  -6.579  -9.933  0.00  0.00    +0.059 A 
BRANCH  14  16
ATOM     16  O   UNL     1      -2.861  -8.366 -11.498  0.00  0.00    -0.491 OA
ATOM     17  C   UNL     1      -3.408  -7.440 -12.440  0.00  0.00    +0.277 C 
ENDBRANCH  14  16
BRANCH  13  18
ATOM     18  O   UNL     1      -1.806 -10.041  -9.588  0.00  0.00    -0.491 OA
ATOM     19  C   UNL     1      -1.259 -10.855  -8.549  0.00  0.00    +0.277 C 
ENDBRANCH  13  18
ENDBRANCH   8  10
ENDBRANCH   1   3
BRANCH   1  21
ATOM     20  N   UNL     1      -0.604  -2.455  -3.925  0.00  0.00    -0.278 N 
ATOM     21  C   UNL     1      -1.119  -2.783  -5.126  0.00  0.00    +0.242 C 
ATOM     22  O   UNL     1      -0.397  -3.225  -5.995  0.00  0.00    -0.273 OA
ATOM     23  H   UNL     1      -1.181  -2.102  -3.230  0.00  0.00    +0.155 HD
BRANCH  20  28
ATOM     24  C   UNL     1       1.449  -2.344  -2.516  0.00  0.00    +0.091 A 
ATOM     25  C   UNL     1       2.876  -2.619  -2.515  0.00  0.00    -0.021 A 
ATOM     26  C   UNL     1       3.343  -3.117  -3.680  0.00  0.00    -0.004 A 
ATOM     27  S   UNL     1       1.922  -3.212  -4.730  0.00  0.00    -0.077 S 
ATOM     28  C   UNL     1       0.750  -2.624  -3.681  0.00  0.00    +0.086 A 
ATOM     29  C   UNL     1       4.757  -3.498  -3.993  0.00  0.00    +0.043 C 
ATOM     30  C   UNL     1       5.669  -2.887  -2.920  0.00  0.00    +0.005 C 
ATOM     31  C   UNL     1       5.082  -3.191  -1.538  0.00  0.00    +0.005 C 
ATOM     32  C   UNL     1       3.799  -2.383  -1.329  0.00  0.00    +0.037 C 
BRANCH  24  33
ATOM     33  C   UNL     1       0.776  -1.800  -1.335  0.00  0.00    +0.342 C 
ATOM     34  O   UNL     1       0.312  -2.552  -0.499  0.00  0.00    -0.245 OA
BRANCH  33  35
ATOM     35  O   UNL     1       0.671  -0.465  -1.174  0.00  0.00    -0.461 OA
BRANCH  35  37
ATOM     36  C   UNL     1      -0.019   1.526   0.010  0.00  0.00    +0.048 C 
ATOM     37  C   UNL     1       0.002  -0.004   0.002  0.00  0.00    +0.229 C 
ENDBRANCH  35  37
ENDBRANCH  33  35
ENDBRANCH  24  33
ENDBRANCH  20  28
ENDBRANCH   1  21
TORSDOF 9
