REMARK  Name = ZINC50672140
REMARK  6 active torsions:
REMARK  status: ('A' for Active; 'I' for Inactive)
REMARK    1  A    between atoms: C_1  and  C_2
REMARK    2  A    between atoms: C_2  and  C_3
REMARK    3  A    between atoms: C_2  and  C_4
REMARK    4  A    between atoms: N_9  and  S_10
REMARK    5  A    between atoms: S_10  and  C_13
REMARK    6  A    between atoms: C_14  and  N_21
REMARK                            x       y       z     vdW  Elec       q    Type
REMARK                         _______ _______ _______ _____ _____    ______ ____
ROOT
ATOM      1  S   UNL     1      -5.975  -1.241   1.636  0.00  0.00    +0.120 S 
ATOM      2  O   UNL     1      -6.529  -0.621   0.484  0.00  0.00    -0.145 OA
ATOM      3  O   UNL     1      -5.771  -2.645   1.722  0.00  0.00    -0.145 OA
ENDROOT
BRANCH   1   4
ATOM      4  C   UNL     1      -7.008  -0.798   2.993  0.00  0.00    +0.228 A 
ATOM      5  C   UNL     1      -7.140  -1.479   4.150  0.00  0.00    +0.164 A 
ATOM      6  N   UNL     1      -8.017  -0.823   4.928  0.00  0.00    -0.205 NA
ATOM      7  C   UNL     1      -8.433   0.239   4.297  0.00  0.00    +0.181 A 
ATOM      8  N   UNL     1      -7.836   0.326   3.068  0.00  0.00    -0.276 N 
ATOM      9  C   UNL     1      -8.175   1.407   2.284  0.00  0.00    +0.102 A 
ATOM     10  C   UNL     1      -9.044   2.318   2.718  0.00  0.00    +0.067 A 
ATOM     11  S   UNL     1      -9.472   1.681   4.331  0.00  0.00    -0.058 S 
BRANCH   5  12
ATOM     12  N   UNL     1      -6.475  -2.669   4.484  0.00  0.00    -0.340 N 
ATOM     13  H   UNL     1      -5.856  -3.072   3.854  0.00  0.00    +0.144 HD
ATOM     14  H   UNL     1      -6.634  -3.089   5.343  0.00  0.00    +0.144 HD
ENDBRANCH   5  12
ENDBRANCH   1   4
BRANCH   1  20
ATOM     15  C   UNL     1      -1.412  -0.526   0.013  0.00  0.00    +0.027 A 
ATOM     16  C   UNL     1      -1.843  -1.297  -0.985  0.00  0.00    +0.070 A 
ATOM     17  S   UNL     1      -3.529  -1.631  -0.500  0.00  0.00    -0.057 S 
ATOM     18  C   UNL     1      -3.533  -0.701   1.025  0.00  0.00    +0.192 A 
ATOM     19  N   UNL     1      -2.244  -0.212   1.047  0.00  0.00    -0.336 N 
ATOM     20  N   UNL     1      -4.500  -0.532   1.892  0.00  0.00    -0.102 NA
ATOM     21  H   UNL     1      -1.938   0.345   1.779  0.00  0.00    +0.168 HD
BRANCH  15  23
ATOM     22  C   UNL     1      -0.019   1.526   0.010  0.00  0.00    +0.013 C 
ATOM     23  C   UNL     1       0.002  -0.004   0.002  0.00  0.00    +0.030 C 
ATOM     24  C   UNL     1       0.742  -0.511   1.242  0.00  0.00    +0.013 C 
ENDBRANCH  15  23
ENDBRANCH   1  20
TORSDOF 4
