REMARK  Name = ZINC39697707
REMARK  4 active torsions:
REMARK  status: ('A' for Active; 'I' for Inactive)
REMARK    1  A    between atoms: C_4  and  C_7
REMARK    2  A    between atoms: N_9  and  C_10
REMARK    3  A    between atoms: N_9  and  C_26
REMARK    4  A    between atoms: C_10  and  C_11
REMARK                            x       y       z     vdW  Elec       q    Type
REMARK                         _______ _______ _______ _____ _____    ______ ____
ROOT
ATOM      1  C   UNL     1       6.058  -0.716  -0.200  0.00  0.00    +0.125 C 
ENDROOT
BRANCH   1   2
ATOM      2  C   UNL     1       6.541  -0.771  -1.651  0.00  0.00    +0.116 C 
ATOM      3  C   UNL     1       7.636  -1.815  -1.737  0.00  0.00    -0.003 C 
ATOM      4  C   UNL     1       8.852  -1.409  -2.192  0.00  0.00    -0.003 A 
ATOM      5  C   UNL     1       9.963  -2.356  -2.304  0.00  0.00    +0.059 A 
ATOM      6  C   UNL     1      11.166  -1.919  -2.761  0.00  0.00    +0.167 A 
ATOM      7  C   UNL     1      11.361  -0.570  -3.130  0.00  0.00    +0.168 A 
ATOM      8  C   UNL     1      10.346   0.360  -3.043  0.00  0.00    +0.073 A 
ATOM      9  C   UNL     1       9.075  -0.005  -2.582  0.00  0.00    +0.044 A 
ATOM     10  N   UNL     1       8.107   0.912  -2.505  0.00  0.00    -0.284 N 
ATOM     11  C   UNL     1       6.888   0.637  -2.078  0.00  0.00    +0.226 C 
ATOM     12  O   UNL     1       6.046   1.515  -2.030  0.00  0.00    -0.275 OA
ATOM     13  O   UNL     1      12.652  -0.425  -3.546  0.00  0.00    -0.453 OA
ATOM     14  C   UNL     1      13.354  -1.574  -3.040  0.00  0.00    +0.466 C 
ATOM     15  O   UNL     1      12.340  -2.592  -2.953  0.00  0.00    -0.453 OA
ATOM     16  H   UNL     1       8.309   1.821  -2.775  0.00  0.00    +0.155 HD
ENDBRANCH   1   2
BRANCH   1  19
ATOM     17  C   UNL     1       3.637  -0.604  -0.452  0.00  0.00    +0.267 C 
ATOM     18  O   UNL     1       3.634  -1.795  -0.692  0.00  0.00    -0.268 OA
ATOM     19  N   UNL     1       4.791   0.017  -0.135  0.00  0.00    -0.292 N 
BRANCH  17  23
ATOM     20  C   UNL     1       0.061   1.514  -0.622  0.00  0.00    +0.130 A 
ATOM     21  C   UNL     1       1.258   2.165  -0.362  0.00  0.00    +0.131 A 
ATOM     22  N   UNL     1       2.385   1.482  -0.311  0.00  0.00    -0.247 NA
ATOM     23  C   UNL     1       2.373   0.167  -0.508  0.00  0.00    +0.144 A 
ATOM     24  C   UNL     1       1.169  -0.484  -0.769  0.00  0.00    +0.143 A 
ATOM     25  N   UNL     1       0.044   0.207  -0.819  0.00  0.00    -0.259 NA
ENDBRANCH  17  23
BRANCH  19  26
ATOM     26  C   UNL     1       4.778   1.423   0.276  0.00  0.00    +0.076 C 
ATOM     27  C   UNL     1       6.215   1.916   0.452  0.00  0.00    +0.022 C 
ATOM     28  C   UNL     1       6.202   3.385   0.880  0.00  0.00    +0.002 C 
ATOM     29  C   UNL     1       5.450   3.522   2.206  0.00  0.00    +0.000 C 
ATOM     30  C   UNL     1       4.012   3.029   2.030  0.00  0.00    +0.002 C 
ATOM     31  C   UNL     1       4.026   1.560   1.601  0.00  0.00    +0.022 C 
ENDBRANCH  19  26
ENDBRANCH   1  19
TORSDOF 4
