REMARK  Name = ZINC66374142
REMARK  7 active torsions:
REMARK  status: ('A' for Active; 'I' for Inactive)
REMARK    1  A    between atoms: C_4  and  C_7
REMARK    2  A    between atoms: C_7  and  C_8
REMARK    3  A    between atoms: C_8  and  C_9
REMARK    4  A    between atoms: N_10  and  O_11
REMARK    5  A    between atoms: O_11  and  C_12
REMARK    6  A    between atoms: C_12  and  C_13
REMARK    7  A    between atoms: C_15  and  N_23
REMARK                            x       y       z     vdW  Elec       q    Type
REMARK                         _______ _______ _______ _____ _____    ______ ____
ROOT
ATOM      1  O   UNL     1       7.274  -2.700   0.239  0.00  0.00    -0.388 OA
ENDROOT
BRANCH   1   3
ATOM      2  C   UNL     1       5.487  -1.699   1.381  0.00  0.00    +0.132 C 
ATOM      3  N   UNL     1       6.038  -2.009   0.255  0.00  0.00    -0.074 NA
ATOM      4  N   UNL     1       6.100  -2.041   2.566  0.00  0.00    -0.344 N 
ATOM      5  H   UNL     1       5.686  -1.808   3.412  0.00  0.00    +0.144 HD
ATOM      6  H   UNL     1       6.946  -2.514   2.555  0.00  0.00    +0.144 HD
BRANCH   2   7
ATOM      7  C   UNL     1       4.171  -0.963   1.399  0.00  0.00    +0.079 C 
BRANCH   7   8
ATOM      8  C   UNL     1       3.711  -0.707  -0.038  0.00  0.00    +0.042 C 
BRANCH   8  12
ATOM      9  C   UNL     1      -0.017   1.378   0.010  0.00  0.00    +0.000 A 
ATOM     10  C   UNL     1       1.171   2.086   0.002  0.00  0.00    +0.000 A 
ATOM     11  C   UNL     1       2.377   1.411  -0.013  0.00  0.00    +0.003 A 
ATOM     12  C   UNL     1       2.396   0.029  -0.020  0.00  0.00    -0.047 A 
ATOM     13  C   UNL     1       1.208  -0.679  -0.012  0.00  0.00    +0.003 A 
ATOM     14  C   UNL     1       0.002  -0.004   0.002  0.00  0.00    +0.000 A 
ENDBRANCH   8  12
ENDBRANCH   7   8
ENDBRANCH   2   7
ENDBRANCH   1   3
BRANCH   1  15
ATOM     15  C   UNL     1       7.768  -2.977  -1.073  0.00  0.00    +0.302 C 
BRANCH  15  16
ATOM     16  C   UNL     1       9.080  -3.711  -0.972  0.00  0.00    +0.036 A 
ATOM     17  C   UNL     1       9.609  -4.012   0.268  0.00  0.00    +0.043 A 
ATOM     18  C   UNL     1      10.813  -4.685   0.362  0.00  0.00    +0.127 A 
ATOM     19  C   UNL     1      11.491  -5.056  -0.784  0.00  0.00    +0.042 A 
ATOM     20  C   UNL     1      10.966  -4.756  -2.027  0.00  0.00    +0.022 A 
ATOM     21  C   UNL     1       9.755  -4.089  -2.124  0.00  0.00    +0.136 A 
ATOM     22  O   UNL     1       9.220  -3.801  -3.341  0.00  0.00    -0.465 OA
ATOM     23  C   UNL     1      10.098  -3.880  -4.468  0.00  0.00    +0.394 C 
ATOM     24  O   UNL     1      10.827  -5.111  -4.395  0.00  0.00    -0.339 OA
ATOM     25  C   UNL     1      11.716  -5.162  -3.271  0.00  0.00    +0.202 C 
BRANCH  18  26
ATOM     26  N   UNL     1      11.377  -5.008   1.692  0.00  0.00    +0.056 N 
ATOM     27  O   UNL     1      10.786  -4.683   2.695  0.00  0.00    -0.126 OA
ATOM     28  O   UNL     1      12.430  -5.596   1.775  0.00  0.00    -0.126 OA
ENDBRANCH  18  26
ENDBRANCH  15  16
ENDBRANCH   1  15
TORSDOF 7
