REMARK  Name = ZINC66926371
REMARK  4 active torsions:
REMARK  status: ('A' for Active; 'I' for Inactive)
REMARK    1  A    between atoms: C_5  and  C_7
REMARK    2  A    between atoms: C_7  and  C_8
REMARK    3  A    between atoms: N_10  and  N_11
REMARK    4  A    between atoms: N_14  and  C_15
REMARK                            x       y       z     vdW  Elec       q    Type
REMARK                         _______ _______ _______ _____ _____    ______ ____
ROOT
ATOM      1  N   UNL     1       1.548  -4.494   2.938  0.00  0.00    -0.218 N 
ATOM      2  C   UNL     1       1.590  -5.820   3.176  0.00  0.00    +0.316 C 
ATOM      3  O   UNL     1       1.706  -6.230   4.314  0.00  0.00    -0.251 OA
ATOM      4  N   UNL     1       1.502  -6.691   2.151  0.00  0.00    -0.297 N 
ATOM      5  H   UNL     1       1.611  -3.867   3.676  0.00  0.00    +0.174 HD
ATOM      6  H   UNL     1       1.409  -6.364   1.243  0.00  0.00    +0.150 HD
ENDROOT
BRANCH   4   7
ATOM      7  C   UNL     1       1.547  -8.132   2.409  0.00  0.00    +0.059 C 
ATOM      8  C   UNL     1       3.013  -8.639   2.407  0.00  0.00    +0.002 C 
ATOM      9  C   UNL     1       3.094  -9.620   1.206  0.00  0.00    -0.077 C 
ATOM     10  N   UNL     1       2.005  -9.172   0.323  0.00  0.00    +0.383 N 
ATOM     11  C   UNL     1       0.881  -8.903   1.266  0.00  0.00    -0.048 C 
ATOM     12  C   UNL     1      -0.177  -8.112   0.511  0.00  0.00    -0.014 C 
ATOM     13  C   UNL     1      -0.706  -9.010  -0.619  0.00  0.00    -0.003 C 
ATOM     14  C   UNL     1       0.443  -9.497  -1.500  0.00  0.00    -0.019 C 
ATOM     15  C   UNL     1       1.550 -10.154  -0.651  0.00  0.00    -0.078 C 
ATOM     16  H   UNL     1       2.274  -8.321  -0.147  0.00  0.00    -0.081 HD
ENDBRANCH   4   7
BRANCH   1  19
ATOM     17  C   UNL     1       1.372  -2.695   1.389  0.00  0.00    +0.234 C 
ATOM     18  O   UNL     1       1.451  -1.911   2.311  0.00  0.00    -0.274 OA
ATOM     19  N   UNL     1       1.414  -4.021   1.627  0.00  0.00    -0.233 N 
ATOM     20  H   UNL     1       1.351  -4.648   0.889  0.00  0.00    +0.173 HD
BRANCH  17  21
ATOM     21  C   UNL     1       1.228  -2.186  -0.022  0.00  0.00    +0.135 C 
BRANCH  21  26
ATOM     22  C   UNL     1      -0.017   1.378   0.010  0.00  0.00    +0.000 A 
ATOM     23  C   UNL     1       1.171   2.087   0.002  0.00  0.00    +0.003 A 
ATOM     24  C   UNL     1       2.377   1.414  -0.013  0.00  0.00    +0.038 A 
ATOM     25  C   UNL     1       2.397   0.029  -0.021  0.00  0.00    +0.127 A 
ATOM     26  C   UNL     1       1.208  -0.679  -0.013  0.00  0.00    -0.003 A 
ATOM     27  C   UNL     1       0.002  -0.004   0.002  0.00  0.00    +0.007 A 
ATOM     28  F   UNL     1       3.577  -0.630  -0.036  0.00  0.00    -0.205 F 
ENDBRANCH  21  26
ENDBRANCH  17  21
ENDBRANCH   1  19
TORSDOF 4
