REMARK  Name = ZINC12386479
REMARK  13 active torsions:
REMARK  status: ('A' for Active; 'I' for Inactive)
REMARK    1  A    between atoms: C_1  and  N_67
REMARK    2  A    between atoms: C_2  and  C_3
REMARK    3  A    between atoms: C_2  and  N_67
REMARK    4  A    between atoms: C_3  and  C_5
REMARK    5  A    between atoms: C_3  and  O_22
REMARK    6  A    between atoms: C_5  and  O_6
REMARK    7  A    between atoms: O_6  and  C_7
REMARK    8  A    between atoms: C_12  and  C_13
REMARK    9  A    between atoms: C_13  and  N_69
REMARK   10  A    between atoms: C_14  and  C_15
REMARK   11  A    between atoms: C_14  and  N_69
REMARK   12  A    between atoms: C_15  and  O_21
REMARK   13  A    between atoms: C_23  and  N_67
REMARK                            x       y       z     vdW  Elec       q    Type
REMARK                         _______ _______ _______ _____ _____    ______ ____
ROOT
ATOM      1  C   UNL     1      -1.871   0.935   6.583  0.00  0.00    +0.122 A 
ATOM      2  C   UNL     1      -2.542   1.402   7.703  0.00  0.00    +0.046 A 
ATOM      3  C   UNL     1      -2.069   2.509   8.380  0.00  0.00    +0.004 A 
ATOM      4  C   UNL     1      -0.926   3.153   7.941  0.00  0.00    +0.000 A 
ATOM      5  C   UNL     1      -0.252   2.686   6.827  0.00  0.00    +0.005 A 
ATOM      6  C   UNL     1      -0.725   1.582   6.144  0.00  0.00    -0.023 A 
ENDROOT
BRANCH   1   7
ATOM      7  O   UNL     1      -2.334  -0.155   5.916  0.00  0.00    -0.489 OA
BRANCH   7   8
ATOM      8  C   UNL     1      -3.519  -0.770   6.424  0.00  0.00    +0.258 C 
BRANCH   8   9
ATOM      9  C   UNL     1      -3.885  -1.972   5.550  0.00  0.00    +0.135 C 
BRANCH   9  10
ATOM     10  O   UNL     1      -4.227  -1.520   4.238  0.00  0.00    -0.390 OA
ATOM     11  H   UNL     1      -4.978  -0.911   4.215  0.00  0.00    +0.210 HD
ENDBRANCH   9  10
BRANCH   9  12
ATOM     12  C   UNL     1      -5.080  -2.705   6.164  0.00  0.00    -0.044 C 
BRANCH  12  14
ATOM     13  C   UNL     1      -4.253  -4.886   5.517  0.00  0.00    -0.096 C 
ATOM     14  N   UNL     1      -5.357  -3.916   5.364  0.00  0.00    +0.381 N 
ATOM     15  H   UNL     1      -5.436  -3.653   4.375  0.00  0.00    -0.082 HD
BRANCH  14  16
ATOM     16  C   UNL     1      -6.630  -4.528   5.800  0.00  0.00    -0.069 C 
ATOM     17  C   UNL     1      -6.528  -5.004   7.251  0.00  0.00    -0.015 C 
ATOM     18  C   UNL     1      -7.856  -5.633   7.676  0.00  0.00    -0.002 C 
ATOM     19  C   UNL     1      -8.169  -6.825   6.769  0.00  0.00    -0.000 C 
ATOM     20  C   UNL     1      -8.272  -6.349   5.319  0.00  0.00    -0.002 C 
ATOM     21  C   UNL     1      -6.944  -5.720   4.894  0.00  0.00    -0.015 C 
ENDBRANCH  14  16
ENDBRANCH  12  14
ENDBRANCH   9  12
ENDBRANCH   8   9
ENDBRANCH   7   8
ENDBRANCH   1   7
BRANCH   6  22
ATOM     22  C   UNL     1       0.008   1.078   4.928  0.00  0.00    -0.043 C 
BRANCH  22  23
ATOM     23  N   UNL     1      -0.685   1.552   3.715  0.00  0.00    +0.384 N 
ATOM     24  H   UNL     1      -0.699   2.579   3.713  0.00  0.00    -0.085 HD
ATOM     25  H   UNL     1      -1.649   1.197   3.714  0.00  0.00    -0.085 HD
BRANCH  23  26
ATOM     26  C   UNL     1       0.011   1.072   2.506  0.00  0.00    -0.047 C 
BRANCH  26  27
ATOM     27  C   UNL     1      -0.729   1.579   1.267  0.00  0.00    +0.051 C 
ATOM     28  C   UNL     1      -0.013   1.086   0.008  0.00  0.00    +0.033 C 
ATOM     29  C   UNL     1      -0.753   1.593  -1.232  0.00  0.00    +0.003 C 
ATOM     30  C   UNL     1      -0.773   3.123  -1.223  0.00  0.00    +0.000 C 
ATOM     31  C   UNL     1      -1.490   3.616   0.036  0.00  0.00    +0.003 C 
ATOM     32  C   UNL     1      -0.750   3.109   1.275  0.00  0.00    +0.033 C 
BRANCH  27  33
ATOM     33  O   UNL     1      -2.070   1.085   1.277  0.00  0.00    -0.390 OA
ATOM     34  H   UNL     1      -2.584   1.359   2.048  0.00  0.00    +0.210 HD
ENDBRANCH  27  33
ENDBRANCH  26  27
ENDBRANCH  23  26
ENDBRANCH  22  23
ENDBRANCH   6  22
TORSDOF 12
