REMARK  Name = ZINC57456844
REMARK  7 active torsions:
REMARK  status: ('A' for Active; 'I' for Inactive)
REMARK    1  A    between atoms: C_1  and  C_2
REMARK    2  A    between atoms: C_2  and  C_4
REMARK    3  A    between atoms: C_2  and  N_16
REMARK    4  A    between atoms: N_9  and  C_10
REMARK    5  A    between atoms: C_22  and  C_24
REMARK    6  A    between atoms: C_24  and  C_25
REMARK    7  A    between atoms: C_24  and  C_26
REMARK                            x       y       z     vdW  Elec       q    Type
REMARK                         _______ _______ _______ _____ _____    ______ ____
ROOT
ATOM      1  C   UNL     1       0.830   0.745  -0.974  0.00  0.00    +0.237 C 
ATOM      2  O   UNL     1       1.807   0.037  -1.089  0.00  0.00    -0.274 OA
ATOM      3  N   UNL     1       0.265   1.298  -2.066  0.00  0.00    -0.239 N 
ATOM      4  C   UNL     1       0.787   1.063  -3.286  0.00  0.00    +0.306 C 
ATOM      5  O   UNL     1       1.767   0.353  -3.402  0.00  0.00    -0.252 OA
ATOM      6  N   UNL     1       0.223   1.616  -4.378  0.00  0.00    -0.296 N 
ATOM      7  H   UNL     1      -0.517   1.864  -1.974  0.00  0.00    +0.159 HD
ATOM      8  H   UNL     1      -0.559   2.182  -4.286  0.00  0.00    +0.151 HD
ENDROOT
BRANCH   6   9
ATOM      9  C   UNL     1       0.791   1.361  -5.705  0.00  0.00    +0.074 C 
ATOM     10  C   UNL     1       1.927   2.349  -5.972  0.00  0.00    +0.022 C 
ATOM     11  C   UNL     1       2.520   2.083  -7.357  0.00  0.00    +0.002 C 
ATOM     12  C   UNL     1       1.432   2.257  -8.419  0.00  0.00    +0.000 C 
ATOM     13  C   UNL     1       0.296   1.268  -8.152  0.00  0.00    +0.002 C 
ATOM     14  C   UNL     1      -0.297   1.535  -6.767  0.00  0.00    +0.022 C 
ENDBRANCH   6   9
BRANCH   1  16
ATOM     15  C   UNL     1       0.453   2.478   0.759  0.00  0.00    +0.034 C 
ATOM     16  C   UNL     1       0.246   1.008   0.390  0.00  0.00    +0.140 C 
BRANCH  16  17
ATOM     17  N   UNL     1       0.915   0.155   1.382  0.00  0.00    -0.289 NA
ATOM     18  C   UNL     1       0.138   0.084   2.626  0.00  0.00    +0.104 C 
ATOM     19  C   UNL     1       0.771  -0.951   3.562  0.00  0.00    +0.123 C 
ATOM     20  N   UNL     1       2.192  -0.616   3.735  0.00  0.00    -0.299 N 
ATOM     21  C   UNL     1       3.007  -0.394   2.531  0.00  0.00    +0.123 C 
ATOM     22  C   UNL     1       2.286   0.619   1.636  0.00  0.00    +0.104 C 
ATOM     23  C   UNL     1       2.734  -0.516   4.965  0.00  0.00    +0.218 C 
ATOM     24  O   UNL     1       3.892  -0.176   5.092  0.00  0.00    -0.275 OA
BRANCH  23  25
ATOM     25  C   UNL     1       1.903  -0.827   6.183  0.00  0.00    +0.069 C 
ATOM     26  C   UNL     1       1.583  -2.323   6.214  0.00  0.00    +0.017 C 
ATOM     27  C   UNL     1       2.681  -0.445   7.443  0.00  0.00    +0.017 C 
ENDBRANCH  23  25
ENDBRANCH  16  17
ENDBRANCH   1  16
TORSDOF 4
