REMARK  Name = ZINC04937427
REMARK  7 active torsions:
REMARK  status: ('A' for Active; 'I' for Inactive)
REMARK    1  A    between atoms: C_1  and  C_2
REMARK    2  A    between atoms: C_2  and  C_4
REMARK    3  A    between atoms: C_2  and  S_16
REMARK    4  A    between atoms: N_6  and  C_7
REMARK    5  A    between atoms: C_12  and  N_13
REMARK    6  A    between atoms: S_16  and  C_17
REMARK    7  A    between atoms: N_27  and  C_28
REMARK                            x       y       z     vdW  Elec       q    Type
REMARK                         _______ _______ _______ _____ _____    ______ ____
ROOT
ATOM      1  C   UNL     1       0.002   1.538   0.002  0.00  0.00    +0.029 C 
ATOM      2  C   UNL     1       0.004   0.008  -0.001  0.00  0.00    +0.137 C 
ENDROOT
BRANCH   2   3
ATOM      3  C   UNL     1       0.706  -0.491  -1.238  0.00  0.00    +0.230 C 
ATOM      4  O   UNL     1       1.858  -0.863  -1.173  0.00  0.00    -0.274 OA
ATOM      5  N   UNL     1       0.052  -0.523  -2.416  0.00  0.00    -0.283 N 
ATOM      6  H   UNL     1      -0.891  -0.303  -2.454  0.00  0.00    +0.155 HD
BRANCH   5   7
ATOM      7  C   UNL     1       0.735  -0.876  -3.586  0.00  0.00    +0.064 A 
ATOM      8  C   UNL     1       2.108  -0.686  -3.673  0.00  0.00    +0.025 A 
ATOM      9  C   UNL     1       2.780  -1.035  -4.829  0.00  0.00    +0.002 A 
ATOM     10  C   UNL     1       2.086  -1.572  -5.898  0.00  0.00    +0.002 A 
ATOM     11  C   UNL     1       0.719  -1.762  -5.814  0.00  0.00    +0.034 A 
ATOM     12  C   UNL     1       0.043  -1.421  -4.659  0.00  0.00    +0.147 A 
BRANCH  12  13
ATOM     13  N   UNL     1      -1.420  -1.631  -4.567  0.00  0.00    +0.058 N 
ATOM     14  O   UNL     1      -2.008  -2.186  -5.465  0.00  0.00    -0.126 OA
ATOM     15  O   UNL     1      -2.026  -1.246  -3.594  0.00  0.00    -0.126 OA
ENDBRANCH  12  13
ENDBRANCH   5   7
ENDBRANCH   2   3
BRANCH   2  16
ATOM     16  S   UNL     1       0.872  -0.598   1.472  0.00  0.00    -0.075 S 
BRANCH  16  17
ATOM     17  C   UNL     1      -0.138  -0.064   2.813  0.00  0.00    +0.173 A 
ATOM     18  N   UNL     1      -1.232   0.605   2.542  0.00  0.00    -0.223 NA
ATOM     19  C   UNL     1      -2.052   1.044   3.518  0.00  0.00    +0.079 A 
ATOM     20  C   UNL     1      -3.219   1.757   3.230  0.00  0.00    +0.028 A 
ATOM     21  C   UNL     1      -4.021   2.183   4.250  0.00  0.00    +0.002 A 
ATOM     22  C   UNL     1      -3.694   1.919   5.574  0.00  0.00    +0.001 A 
ATOM     23  C   UNL     1      -2.559   1.224   5.889  0.00  0.00    +0.015 A 
ATOM     24  C   UNL     1      -1.723   0.777   4.867  0.00  0.00    +0.065 A 
ATOM     25  C   UNL     1      -0.491   0.025   5.145  0.00  0.00    +0.262 A 
ATOM     26  O   UNL     1      -0.154  -0.236   6.285  0.00  0.00    -0.267 OA
ATOM     27  N   UNL     1       0.252  -0.370   4.085  0.00  0.00    -0.290 N 
ATOM     28  C   UNL     1       1.487  -1.128   4.304  0.00  0.00    +0.154 C 
ENDBRANCH  16  17
ENDBRANCH   2  16
TORSDOF 5
