REMARK  Name = ZINC00236858
REMARK  3 active torsions:
REMARK  status: ('A' for Active; 'I' for Inactive)
REMARK    1  A    between atoms: C_3  and  C_6
REMARK    2  A    between atoms: N_8  and  C_9
REMARK    3  A    between atoms: C_11  and  N_16
REMARK                            x       y       z     vdW  Elec       q    Type
REMARK                         _______ _______ _______ _____ _____    ______ ____
ROOT
ATOM      1  C   UNL     1       1.158   3.176  -0.002  0.00  0.00    +0.054 A 
ATOM      2  C   UNL     1      -0.051   3.858   0.006  0.00  0.00    +0.047 A 
ATOM      3  C   UNL     1      -1.244   3.151   0.004  0.00  0.00    +0.026 A 
ATOM      4  C   UNL     1      -1.226   1.761  -0.013  0.00  0.00    +0.024 A 
ATOM      5  C   UNL     1      -0.022   1.084  -0.015  0.00  0.00    +0.023 A 
ATOM      6  C   UNL     1       1.169   1.786  -0.012  0.00  0.00    +0.062 A 
ATOM      7 CL   UNL     1       2.680   0.931  -0.022  0.00  0.00    -0.082 Cl
ENDROOT
BRANCH   1  10
ATOM      8  C   UNL     1       2.407   5.137   0.502  0.00  0.00    +0.284 C 
ATOM      9  O   UNL     1       1.425   5.611   1.042  0.00  0.00    -0.266 OA
ATOM     10  N   UNL     1       2.363   3.886   0.002  0.00  0.00    -0.278 N 
ATOM     11  H   UNL     1       3.167   3.478  -0.356  0.00  0.00    +0.155 HD
BRANCH   8  14
ATOM     12  C   UNL     1       5.138   7.559   0.545  0.00  0.00    +0.042 A 
ATOM     13  C   UNL     1       3.818   7.198   0.858  0.00  0.00    +0.054 A 
ATOM     14  C   UNL     1       3.638   5.926   0.396  0.00  0.00    +0.189 A 
ATOM     15  O   UNL     1       4.794   5.520  -0.169  0.00  0.00    -0.458 OA
ATOM     16  C   UNL     1       5.699   6.504  -0.087  0.00  0.00    +0.196 A 
ENDBRANCH   8  14
ENDBRANCH   1  10
BRANCH   3  17
ATOM     17  N   UNL     1      -2.463   3.834   0.011  0.00  0.00    -0.358 N 
ATOM     18  H   UNL     1      -2.474   4.804   0.018  0.00  0.00    +0.142 HD
ATOM     19  H   UNL     1      -3.297   3.339   0.009  0.00  0.00    +0.142 HD
ENDBRANCH   3  17
TORSDOF 3
