REMARK  Name = ZINC12780218
REMARK  14 active torsions:
REMARK  status: ('A' for Active; 'I' for Inactive)
REMARK    1  A    between atoms: C_1  and  C_2
REMARK    2  A    between atoms: C_5  and  S_8
REMARK    3  A    between atoms: S_8  and  N_11
REMARK    4  A    between atoms: N_11  and  C_12
REMARK    5  A    between atoms: C_12  and  C_14
REMARK    6  A    between atoms: C_12  and  C_17
REMARK    7  A    between atoms: C_14  and  C_15
REMARK    8  A    between atoms: C_14  and  C_16
REMARK    9  A    between atoms: N_19  and  C_20
REMARK   10  A    between atoms: C_20  and  C_21
REMARK   11  A    between atoms: C_21  and  C_23
REMARK   12  A    between atoms: C_21  and  N_68
REMARK   13  A    between atoms: C_27  and  O_29
REMARK   14  A    between atoms: O_29  and  C_30
REMARK                            x       y       z     vdW  Elec       q    Type
REMARK                         _______ _______ _______ _____ _____    ______ ____
ROOT
ATOM      1  C   UNL     1      -0.229   7.829   2.798  0.00  0.00    +0.232 C 
ATOM      2  O   UNL     1      -0.252   7.307   3.893  0.00  0.00    -0.274 OA
ATOM      3  N   UNL     1       0.095   7.101   1.711  0.00  0.00    -0.315 N 
ATOM      4  H   UNL     1       0.045   7.499   0.828  0.00  0.00    +0.149 HD
ENDROOT
BRANCH   1   5
ATOM      5  C   UNL     1      -0.561   9.292   2.654  0.00  0.00    +0.165 C 
BRANCH   5   6
ATOM      6  C   UNL     1      -2.034   9.445   2.272  0.00  0.00    +0.010 C 
ATOM      7  C   UNL     1      -2.279   8.790   0.911  0.00  0.00    +0.009 C 
ATOM      8  C   UNL     1      -2.908   8.767   3.329  0.00  0.00    +0.009 C 
ENDBRANCH   5   6
BRANCH   5   9
ATOM      9  N   UNL     1      -0.311   9.977   3.924  0.00  0.00    -0.178 NA
ATOM     10  H   UNL     1      -0.493   9.525   4.763  0.00  0.00    +0.149 HD
BRANCH   9  11
ATOM     11  S   UNL     1       0.280  11.524   3.929  0.00  0.00    +0.059 S 
ATOM     12  O   UNL     1       0.410  11.905   5.291  0.00  0.00    -0.153 OA
ATOM     13  O   UNL     1       1.376  11.542   3.025  0.00  0.00    -0.153 OA
BRANCH  11  18
ATOM     14  C   UNL     1      -3.981  15.070   1.546  0.00  0.00    +0.044 C 
ATOM     15  C   UNL     1      -2.917  14.184   2.141  0.00  0.00    -0.050 A 
ATOM     16  C   UNL     1      -2.875  13.976   3.507  0.00  0.00    +0.005 A 
ATOM     17  C   UNL     1      -1.899  13.164   4.053  0.00  0.00    +0.029 A 
ATOM     18  C   UNL     1      -0.965  12.559   3.233  0.00  0.00    +0.105 A 
ATOM     19  C   UNL     1      -1.003  12.771   1.867  0.00  0.00    +0.029 A 
ATOM     20  C   UNL     1      -1.982  13.580   1.321  0.00  0.00    +0.005 A 
ENDBRANCH  11  18
ENDBRANCH   9  11
ENDBRANCH   5   9
ENDBRANCH   1   5
BRANCH   3  21
ATOM     21  C   UNL     1       0.521   5.707   1.863  0.00  0.00    +0.093 C 
BRANCH  21  22
ATOM     22  C   UNL     1       0.949   5.153   0.503  0.00  0.00    -0.020 C 
BRANCH  22  23
ATOM     23  C   UNL     1       2.182   5.880   0.030  0.00  0.00    -0.056 A 
ATOM     24  C   UNL     1       3.424   5.529   0.526  0.00  0.00    +0.002 A 
ATOM     25  C   UNL     1       4.557   6.189   0.089  0.00  0.00    +0.004 A 
ATOM     26  C   UNL     1       4.450   7.211  -0.835  0.00  0.00    +0.045 A 
ATOM     27  C   UNL     1       3.205   7.566  -1.333  0.00  0.00    +0.120 A 
ATOM     28  C   UNL     1       2.070   6.897  -0.898  0.00  0.00    +0.047 A 
BRANCH  27  29
ATOM     29  O   UNL     1       3.098   8.567  -2.246  0.00  0.00    -0.495 OA
ATOM     30  C   UNL     1       4.308   9.211  -2.648  0.00  0.00    +0.277 C 
ENDBRANCH  27  29
ENDBRANCH  22  23
BRANCH  22  35
ATOM     31  C   UNL     1       0.063   2.976   1.138  0.00  0.00    -0.078 C 
ATOM     32  C   UNL     1       0.353   1.515   0.712  0.00  0.00    -0.020 C 
ATOM     33  C   UNL     1       1.015   1.684  -0.675  0.00  0.00    -0.020 C 
ATOM     34  C   UNL     1       1.557   3.126  -0.689  0.00  0.00    -0.078 C 
ATOM     35  N   UNL     1       1.240   3.693   0.622  0.00  0.00    +0.385 N 
ATOM     36  H   UNL     1       2.034   3.559   1.259  0.00  0.00    -0.081 HD
ENDBRANCH  22  35
ENDBRANCH  21  22
ENDBRANCH   3  21
TORSDOF 10
