REMARK  Name = ZINC39325222
REMARK  10 active torsions:
REMARK  status: ('A' for Active; 'I' for Inactive)
REMARK    1  A    between atoms: C_1  and  O_2
REMARK    2  A    between atoms: O_2  and  C_3
REMARK    3  A    between atoms: C_7  and  C_17
REMARK    4  A    between atoms: C_14  and  O_15
REMARK    5  A    between atoms: O_15  and  C_16
REMARK    6  A    between atoms: C_17  and  N_18
REMARK    7  A    between atoms: N_18  and  C_19
REMARK    8  A    between atoms: N_18  and  S_25
REMARK    9  A    between atoms: C_19  and  C_20
REMARK   10  A    between atoms: S_25  and  C_28
REMARK                            x       y       z     vdW  Elec       q    Type
REMARK                         _______ _______ _______ _____ _____    ______ ____
ROOT
ATOM      1  C   UNL     1       2.283  -0.064  -6.661  0.00  0.00    +0.126 C 
ENDROOT
BRANCH   1   6
ATOM      2  C   UNL     1       0.319  -0.807  -1.215  0.00  0.00    +0.162 A 
ATOM      3  C   UNL     1       0.815   0.026  -2.166  0.00  0.00    +0.059 A 
ATOM      4  C   UNL     1       1.614  -0.536  -3.257  0.00  0.00    -0.003 A 
ATOM      5  C   UNL     1       2.127   0.268  -4.227  0.00  0.00    -0.003 C 
ATOM      6  C   UNL     1       2.943  -0.392  -5.320  0.00  0.00    +0.114 C 
ATOM      7  C   UNL     1       3.121  -1.892  -5.247  0.00  0.00    +0.225 C 
ATOM      8  O   UNL     1       3.767  -2.473  -6.099  0.00  0.00    -0.275 OA
ATOM      9  N   UNL     1       2.573  -2.568  -4.253  0.00  0.00    -0.284 N 
ATOM     10  C   UNL     1       1.854  -1.991  -3.288  0.00  0.00    +0.044 A 
ATOM     11  C   UNL     1       1.303  -2.775  -2.265  0.00  0.00    +0.073 A 
ATOM     12  C   UNL     1       0.565  -2.193  -1.260  0.00  0.00    +0.163 A 
ATOM     13  H   UNL     1       2.698  -3.530  -4.224  0.00  0.00    +0.155 HD
BRANCH   2  15
ATOM     14  C   UNL     1      -0.640   1.119  -0.203  0.00  0.00    +0.277 C 
ATOM     15  O   UNL     1      -0.423  -0.293  -0.198  0.00  0.00    -0.491 OA
ENDBRANCH   2  15
BRANCH  12  16
ATOM     16  O   UNL     1       0.052  -2.980  -0.284  0.00  0.00    -0.491 OA
ATOM     17  C   UNL     1       0.326  -4.380  -0.369  0.00  0.00    +0.277 C 
ENDBRANCH  12  16
ENDBRANCH   1   6
BRANCH   1  18
ATOM     18  N   UNL     1       3.087  -0.623  -7.751  0.00  0.00    -0.171 NA
BRANCH  18  19
ATOM     19  S   UNL     1       4.364   0.236  -8.362  0.00  0.00    +0.061 S 
ATOM     20  O   UNL     1       4.577  -0.238  -9.685  0.00  0.00    -0.153 OA
ATOM     21  O   UNL     1       4.107   1.604  -8.076  0.00  0.00    -0.153 OA
BRANCH  19  22
ATOM     22  C   UNL     1       5.789  -0.215  -7.430  0.00  0.00    +0.106 A 
ATOM     23  C   UNL     1       6.119   0.491  -6.288  0.00  0.00    +0.030 A 
ATOM     24  C   UNL     1       7.237   0.137  -5.556  0.00  0.00    +0.022 A 
ATOM     25  C   UNL     1       8.026  -0.923  -5.967  0.00  0.00    +0.041 A 
ATOM     26  C   UNL     1       7.695  -1.628  -7.110  0.00  0.00    +0.022 A 
ATOM     27  C   UNL     1       6.574  -1.278  -7.838  0.00  0.00    +0.030 A 
ATOM     28 CL   UNL     1       9.431  -1.367  -5.048  0.00  0.00    -0.084 Cl
ENDBRANCH  19  22
ENDBRANCH  18  19
BRANCH  18  29
ATOM     29  C   UNL     1       2.761  -1.941  -8.300  0.00  0.00    +0.151 C 
BRANCH  29  30
ATOM     30  C   UNL     1       1.717  -1.793  -9.376  0.00  0.00    +0.005 A 
ATOM     31  C   UNL     1       1.884  -1.602 -10.708  0.00  0.00    +0.012 A 
ATOM     32  C   UNL     1       0.768  -1.494 -11.515  0.00  0.00    +0.008 A 
ATOM     33  C   UNL     1      -0.462  -1.581 -10.952  0.00  0.00    +0.045 A 
ATOM     34  S   UNL     1      -0.062  -1.831  -9.230  0.00  0.00    -0.100 S 
ENDBRANCH  29  30
ENDBRANCH  18  29
ENDBRANCH   1  18
TORSDOF 8
