REMARK  Name = ZINC52894629
REMARK  6 active torsions:
REMARK  status: ('A' for Active; 'I' for Inactive)
REMARK    1  A    between atoms: C_2  and  C_3
REMARK    2  A    between atoms: C_3  and  N_4
REMARK    3  A    between atoms: C_5  and  S_9
REMARK    4  A    between atoms: S_9  and  C_10
REMARK    5  A    between atoms: C_10  and  C_11
REMARK    6  A    between atoms: N_16  and  C_17
REMARK                            x       y       z     vdW  Elec       q    Type
REMARK                         _______ _______ _______ _____ _____    ______ ____
ROOT
ATOM      1  C   UNL     1       3.491   0.970   5.324  0.00  0.00    +0.231 C 
ATOM      2  O   UNL     1       3.613   1.987   4.675  0.00  0.00    -0.274 OA
ATOM      3  N   UNL     1       3.878   0.944   6.615  0.00  0.00    -0.239 N 
ATOM      4  C   UNL     1       4.401   2.048   7.184  0.00  0.00    +0.306 C 
ATOM      5  O   UNL     1       4.523   3.068   6.533  0.00  0.00    -0.252 OA
ATOM      6  N   UNL     1       4.788   2.022   8.475  0.00  0.00    -0.294 N 
ATOM      7  H   UNL     1       3.781   0.131   7.134  0.00  0.00    +0.159 HD
ATOM      8  H   UNL     1       4.691   1.209   8.994  0.00  0.00    +0.151 HD
ENDROOT
BRANCH   6   9
ATOM      9  C   UNL     1       5.356   3.223   9.094  0.00  0.00    +0.037 C 
ATOM     10  C   UNL     1       6.620   3.637   8.337  0.00  0.00    +0.029 C 
ATOM     11  C   UNL     1       7.213   4.891   8.983  0.00  0.00    -0.008 C 
ATOM     12  C   UNL     1       7.566   4.594  10.442  0.00  0.00    +0.007 C 
ATOM     13  C   UNL     1       6.302   4.180  11.198  0.00  0.00    -0.008 C 
ATOM     14  C   UNL     1       5.709   2.926  10.552  0.00  0.00    +0.029 C 
ATOM     15  C   UNL     1       5.279   5.315  11.142  0.00  0.00    +0.007 C 
ATOM     16  C   UNL     1       4.925   5.612   9.684  0.00  0.00    -0.008 C 
ATOM     17  C   UNL     1       6.189   6.027   8.927  0.00  0.00    +0.007 C 
ATOM     18  C   UNL     1       4.332   4.358   9.037  0.00  0.00    +0.029 C 
ENDBRANCH   6   9
BRANCH   1  19
ATOM     19  C   UNL     1       2.907  -0.265   4.688  0.00  0.00    +0.173 C 
BRANCH  19  20
ATOM     20  S   UNL     1       2.489   0.087   2.958  0.00  0.00    -0.075 S 
BRANCH  20  22
ATOM     21  N   UNL     1       1.367  -1.676   1.111  0.00  0.00    -0.216 N 
ATOM     22  C   UNL     1       1.827  -1.433   2.362  0.00  0.00    +0.210 A 
ATOM     23  N   UNL     1       1.686  -2.547   3.048  0.00  0.00    -0.101 NA
ATOM     24  N   UNL     1       1.172  -3.466   2.313  0.00  0.00    -0.022 NA
ATOM     25  N   UNL     1       0.943  -3.016   1.127  0.00  0.00    -0.043 NA
BRANCH  21  26
ATOM     26  C   UNL     1       1.317  -0.740  -0.015  0.00  0.00    +0.175 C 
BRANCH  26  28
ATOM     27  C   UNL     1      -0.016   1.306   0.009  0.00  0.00    +0.006 C 
ATOM     28  C   UNL     1       0.002  -0.004   0.002  0.00  0.00    -0.011 C 
ENDBRANCH  26  28
ENDBRANCH  21  26
ENDBRANCH  20  22
ENDBRANCH  19  20
ENDBRANCH   1  19
TORSDOF 6
