REMARK  Name = ZINC08946819
REMARK  13 active torsions:
REMARK  status: ('A' for Active; 'I' for Inactive)
REMARK    1  A    between atoms: C_1  and  C_2
REMARK    2  A    between atoms: C_5  and  N_8
REMARK    3  A    between atoms: C_9  and  C_11
REMARK    4  A    between atoms: C_11  and  N_12
REMARK    5  A    between atoms: N_12  and  C_13
REMARK    6  A    between atoms: C_14  and  C_16
REMARK    7  A    between atoms: C_16  and  N_17
REMARK    8  A    between atoms: C_20  and  C_24
REMARK    9  A    between atoms: C_20  and  C_25
REMARK   10  A    between atoms: C_28  and  C_31
REMARK   11  A    between atoms: C_31  and  C_32
REMARK   12  A    between atoms: C_31  and  C_33
REMARK   13  A    between atoms: C_31  and  C_34
REMARK                            x       y       z     vdW  Elec       q    Type
REMARK                         _______ _______ _______ _____ _____    ______ ____
ROOT
ATOM      1  N   UNL     1      -1.804  -5.543   0.371  0.00  0.00    -0.215 N 
ATOM      2  C   UNL     1      -1.215  -4.816  -0.599  0.00  0.00    +0.251 C 
ATOM      3  O   UNL     1      -1.620  -4.635  -1.727  0.00  0.00    -0.272 OA
ATOM      4  C   UNL     1       0.059  -4.271   0.015  0.00  0.00    +0.135 C 
ATOM      5  N   UNL     1       0.038  -4.804   1.388  0.00  0.00    -0.281 N 
ATOM      6  C   UNL     1      -1.087  -5.533   1.500  0.00  0.00    +0.310 C 
ATOM      7  O   UNL     1      -1.415  -6.118   2.514  0.00  0.00    -0.252 OA
ATOM      8  C   UNL     1       1.287  -4.782  -0.742  0.00  0.00    +0.047 C 
ATOM      9  H   UNL     1       0.705  -4.658   2.077  0.00  0.00    +0.152 HD
ENDROOT
BRANCH   4  10
ATOM     10  C   UNL     1       0.038  -2.764   0.031  0.00  0.00    -0.015 A 
ATOM     11  C   UNL     1       0.631  -2.075   1.073  0.00  0.00    +0.006 A 
ATOM     12  C   UNL     1       0.611  -0.693   1.088  0.00  0.00    +0.004 A 
ATOM     13  C   UNL     1      -0.002   0.000   0.061  0.00  0.00    -0.042 A 
ATOM     14  C   UNL     1      -0.600  -0.688  -0.978  0.00  0.00    +0.004 A 
ATOM     15  C   UNL     1      -0.576  -2.070  -0.995  0.00  0.00    +0.006 A 
BRANCH  13  16
ATOM     16  C   UNL     1      -0.023   1.507   0.077  0.00  0.00    -0.013 C 
ATOM     17  C   UNL     1       1.412   2.038   0.077  0.00  0.00    +0.015 C 
ATOM     18  C   UNL     1      -0.757   2.020  -1.163  0.00  0.00    +0.015 C 
ATOM     19  C   UNL     1      -0.746   1.993   1.335  0.00  0.00    +0.015 C 
ENDBRANCH  13  16
ENDBRANCH   4  10
BRANCH   1  20
ATOM     20  C   UNL     1      -3.073  -6.257   0.208  0.00  0.00    +0.213 C 
BRANCH  20  23
ATOM     21  N   UNL     1      -5.483  -5.793   0.517  0.00  0.00    -0.294 N 
ATOM     22  C   UNL     1      -5.756  -7.161   0.069  0.00  0.00    +0.132 C 
ATOM     23  C   UNL     1      -4.213  -5.348   0.589  0.00  0.00    +0.234 C 
ATOM     24  O   UNL     1      -3.988  -4.216   0.960  0.00  0.00    -0.274 OA
BRANCH  21  25
ATOM     25  C   UNL     1      -6.592  -4.910   0.888  0.00  0.00    +0.203 C 
BRANCH  25  27
ATOM     26  N   UNL     1      -8.073  -3.272  -0.225  0.00  0.00    -0.284 N 
ATOM     27  C   UNL     1      -7.056  -4.150  -0.328  0.00  0.00    +0.235 C 
ATOM     28  O   UNL     1      -6.515  -4.329  -1.398  0.00  0.00    -0.274 OA
ATOM     29  H   UNL     1      -8.550  -3.178   0.615  0.00  0.00    +0.155 HD
BRANCH  26  34
ATOM     30  C   UNL     1      -9.568  -0.125  -4.703  0.00  0.00    +0.044 C 
ATOM     31  C   UNL     1      -9.171  -0.961  -3.513  0.00  0.00    -0.050 A 
ATOM     32  C   UNL     1      -8.726  -2.257  -3.699  0.00  0.00    +0.005 A 
ATOM     33  C   UNL     1      -8.361  -3.026  -2.611  0.00  0.00    +0.023 A 
ATOM     34  C   UNL     1      -8.442  -2.495  -1.329  0.00  0.00    +0.033 A 
ATOM     35  C   UNL     1      -8.894  -1.195  -1.147  0.00  0.00    +0.023 A 
ATOM     36  C   UNL     1      -9.252  -0.430  -2.239  0.00  0.00    +0.005 A 
ENDBRANCH  26  34
ENDBRANCH  25  27
ENDBRANCH  21  25
ENDBRANCH  20  23
ENDBRANCH   1  20
TORSDOF 7
