REMARK  Name = ZINC39981232
REMARK  8 active torsions:
REMARK  status: ('A' for Active; 'I' for Inactive)
REMARK    1  A    between atoms: C_1  and  C_2
REMARK    2  A    between atoms: C_5  and  C_8
REMARK    3  A    between atoms: C_8  and  N_9
REMARK    4  A    between atoms: C_10  and  C_12
REMARK    5  A    between atoms: C_12  and  S_13
REMARK    6  A    between atoms: S_13  and  C_14
REMARK    7  A    between atoms: C_21  and  O_26
REMARK    8  A    between atoms: O_26  and  C_27
REMARK                            x       y       z     vdW  Elec       q    Type
REMARK                         _______ _______ _______ _____ _____    ______ ____
ROOT
ATOM      1  C   UNL     1       4.876  -8.769  -0.073  0.00  0.00    +0.208 C 
ATOM      2  N   UNL     1       5.744  -7.785  -0.067  0.00  0.00    -0.227 NA
ATOM      3  C   UNL     1       7.161  -8.129  -0.156  0.00  0.00    +0.252 C 
ATOM      4  C   UNL     1       7.305  -9.512   0.462  0.00  0.00    +0.117 C 
ATOM      5  C   UNL     1       8.344  -9.412   1.341  0.00  0.00    +0.028 A 
ATOM      6  C   UNL     1       9.015 -10.373   2.128  0.00  0.00    +0.057 A 
ATOM      7  C   UNL     1      10.028  -9.931   2.933  0.00  0.00    +0.121 A 
ATOM      8  C   UNL     1      10.434  -8.589   3.021  0.00  0.00    +0.047 A 
ATOM      9  C   UNL     1       9.863  -7.588   2.305  0.00  0.00    +0.029 A 
ATOM     10  C   UNL     1       8.763  -7.977   1.402  0.00  0.00    +0.046 A 
ATOM     11  N   UNL     1       8.052  -7.255   0.594  0.00  0.00    -0.358 N 
ATOM     12  N   UNL     1       6.422 -10.479   0.209  0.00  0.00    -0.147 NA
ATOM     13  N   UNL     1       5.223 -10.078  -0.082  0.00  0.00    -0.122 NA
ATOM     14  H   UNL     1       8.105  -6.291   0.503  0.00  0.00    +0.162 HD
ENDROOT
BRANCH   7  15
ATOM     15  O   UNL     1      10.681 -10.845   3.694  0.00  0.00    -0.495 OA
ATOM     16  C   UNL     1      11.736 -10.360   4.527  0.00  0.00    +0.277 C 
ENDBRANCH   7  15
BRANCH   1  17
ATOM     17  S   UNL     1       3.161  -8.365  -0.061  0.00  0.00    -0.075 S 
BRANCH  17  18
ATOM     18  C   UNL     1       3.137  -6.551  -0.051  0.00  0.00    +0.173 C 
BRANCH  18  20
ATOM     19  N   UNL     1       1.447  -4.746  -0.032  0.00  0.00    -0.311 N 
ATOM     20  C   UNL     1       1.710  -6.067  -0.040  0.00  0.00    +0.224 C 
ATOM     21  O   UNL     1       0.799  -6.867  -0.040  0.00  0.00    -0.275 OA
ATOM     22  H   UNL     1       2.176  -4.106  -0.032  0.00  0.00    +0.149 HD
BRANCH  19  23
ATOM     23  C   UNL     1       0.059  -4.275  -0.021  0.00  0.00    +0.139 C 
BRANCH  23  28
ATOM     24  C   UNL     1      -0.018   1.503   0.010  0.00  0.00    +0.044 C 
ATOM     25  C   UNL     1       0.002  -0.004   0.002  0.00  0.00    -0.050 A 
ATOM     26  C   UNL     1       0.006  -0.689  -1.199  0.00  0.00    +0.003 A 
ATOM     27  C   UNL     1       0.025  -2.071  -1.206  0.00  0.00    +0.005 A 
ATOM     28  C   UNL     1       0.040  -2.768  -0.013  0.00  0.00    -0.030 A 
ATOM     29  C   UNL     1       0.037  -2.084   1.188  0.00  0.00    +0.005 A 
ATOM     30  C   UNL     1       0.023  -0.702   1.195  0.00  0.00    +0.003 A 
ENDBRANCH  23  28
ENDBRANCH  19  23
ENDBRANCH  18  20
ENDBRANCH  17  18
ENDBRANCH   1  17
TORSDOF 6
