REMARK  Name = ZINC02727384
REMARK  7 active torsions:
REMARK  status: ('A' for Active; 'I' for Inactive)
REMARK    1  A    between atoms: C_1  and  C_2
REMARK    2  A    between atoms: C_4  and  C_8
REMARK    3  A    between atoms: C_5  and  C_7
REMARK    4  A    between atoms: C_19  and  C_27
REMARK    5  A    between atoms: C_20  and  N_26
REMARK    6  A    between atoms: C_21  and  C_22
REMARK    7  A    between atoms: C_21  and  C_24
REMARK                            x       y       z     vdW  Elec       q    Type
REMARK                         _______ _______ _______ _____ _____    ______ ____
ROOT
ATOM      1  C   UNL     1      -0.013   1.086   0.008  0.00  0.00    +0.067 C 
ATOM      2  C   UNL     1       1.457   1.441   0.073  0.00  0.00    +0.030 C 
ATOM      3  C   UNL     1       1.615   2.977   0.219  0.00  0.00    +0.009 C 
ATOM      4  C   UNL     1       3.100   3.377   0.065  0.00  0.00    +0.001 C 
ATOM      5  C   UNL     1       3.481   3.581  -1.401  0.00  0.00    +0.000 C 
ATOM      6  C   UNL     1       4.735   2.763  -1.784  0.00  0.00    +0.004 C 
ATOM      7  C   UNL     1       4.300   1.403  -2.391  0.00  0.00    +0.027 C 
ATOM      8  C   UNL     1       3.394   0.941  -1.284  0.00  0.00    -0.022 C 
ATOM      9  C   UNL     1       2.142   1.239  -1.252  0.00  0.00    -0.029 C 
ATOM     10  C   UNL     1       1.361   1.400  -2.499  0.00  0.00    +0.074 C 
ATOM     11  C   UNL     1       0.024   1.608  -2.449  0.00  0.00    +0.054 C 
ATOM     12  C   UNL     1      -0.737   1.705  -1.167  0.00  0.00    +0.188 C 
ENDROOT
BRANCH   1  16
ATOM     13  C   UNL     1      -1.460   4.661   3.333  0.00  0.00    +0.051 C 
ATOM     14  C   UNL     1      -1.304   3.276   2.759  0.00  0.00    -0.013 A 
ATOM     15  C   UNL     1      -0.699   2.892   1.609  0.00  0.00    +0.015 A 
ATOM     16  C   UNL     1      -0.677   1.550   1.278  0.00  0.00    -0.031 A 
ATOM     17  C   UNL     1      -1.267   0.658   2.112  0.00  0.00    -0.009 A 
ATOM     18  S   UNL     1      -1.871   1.716   3.417  0.00  0.00    -0.098 S 
ATOM     19  C   UNL     1      -1.382  -0.838   1.973  0.00  0.00    +0.052 C 
ENDBRANCH   1  16
BRANCH  11  20
ATOM     20  N   UNL     1      -0.661   1.734  -3.625  0.00  0.00    -0.358 N 
ATOM     21  H   UNL     1      -1.748   1.903  -3.613  0.00  0.00    +0.142 HD
ATOM     22  H   UNL     1      -0.125   1.666  -4.583  0.00  0.00    +0.142 HD
ENDBRANCH  11  20
BRANCH  12  23
ATOM     23  C   UNL     1      -2.032   1.026  -1.334  0.00  0.00    +0.091 C 
ATOM     24  N   UNL     1      -3.032   0.502  -1.463  0.00  0.00    -0.194 NA
ENDBRANCH  12  23
BRANCH  12  25
ATOM     25  C   UNL     1      -0.987   3.125  -0.873  0.00  0.00    +0.091 C 
ATOM     26  N   UNL     1      -1.179   4.221  -0.645  0.00  0.00    -0.194 NA
ENDBRANCH  12  25
BRANCH  10  27
ATOM     27  C   UNL     1       2.024   1.337  -3.767  0.00  0.00    +0.101 C 
ATOM     28  N   UNL     1       2.550   1.287  -4.772  0.00  0.00    -0.191 NA
ENDBRANCH  10  27
TORSDOF 5
