REMARK  Name = ZINC34707143
REMARK  14 active torsions:
REMARK  status: ('A' for Active; 'I' for Inactive)
REMARK    1  A    between atoms: C_1  and  C_2
REMARK    2  A    between atoms: C_2  and  C_4
REMARK    3  A    between atoms: C_2  and  N_17
REMARK    4  A    between atoms: N_14  and  C_15
REMARK    5  A    between atoms: N_17  and  C_18
REMARK    6  A    between atoms: C_18  and  C_19
REMARK    7  A    between atoms: C_19  and  C_20
REMARK    8  A    between atoms: C_20  and  C_21
REMARK    9  A    between atoms: C_21  and  C_22
REMARK   10  A    between atoms: C_22  and  C_23
REMARK   11  A    between atoms: C_23  and  N_24
REMARK   12  A    between atoms: C_25  and  C_27
REMARK   13  A    between atoms: C_27  and  O_28
REMARK   14  A    between atoms: O_28  and  C_29
REMARK                            x       y       z     vdW  Elec       q    Type
REMARK                         _______ _______ _______ _____ _____    ______ ____
ROOT
ATOM      1  N   UNL     1       0.273  -0.740  -1.050  0.00  0.00    -0.289 N 
ATOM      2  C   UNL     1       1.530  -0.515  -1.482  0.00  0.00    +0.254 C 
ATOM      3  O   UNL     1       1.818  -0.723  -2.642  0.00  0.00    -0.272 OA
ENDROOT
BRANCH   1   5
ATOM      4  C   UNL     1      -0.068   1.148   0.466  0.00  0.00    +0.036 C 
ATOM      5  C   UNL     1      -0.108  -0.374   0.316  0.00  0.00    +0.139 C 
BRANCH   5   6
ATOM      6  C   UNL     1       0.855  -1.001   1.292  0.00  0.00    +0.133 A 
ATOM      7  N   UNL     1       1.561  -0.218   2.049  0.00  0.00    -0.232 NA
ATOM      8  C   UNL     1       2.447  -0.710   2.950  0.00  0.00    +0.080 A 
ATOM      9  C   UNL     1       3.207   0.129   3.766  0.00  0.00    +0.048 A 
ATOM     10  C   UNL     1       4.094  -0.420   4.667  0.00  0.00    +0.043 A 
ATOM     11  C   UNL     1       4.241  -1.798   4.772  0.00  0.00    +0.021 A 
ATOM     12  C   UNL     1       3.507  -2.640   3.983  0.00  0.00    +0.017 A 
ATOM     13  C   UNL     1       2.602  -2.110   3.064  0.00  0.00    +0.065 A 
ATOM     14  C   UNL     1       1.788  -2.968   2.192  0.00  0.00    +0.262 A 
ATOM     15  O   UNL     1       1.873  -4.181   2.240  0.00  0.00    -0.267 OA
ATOM     16  N   UNL     1       0.935  -2.356   1.337  0.00  0.00    -0.298 N 
ATOM     17  C   UNL     1       0.095  -3.163   0.448  0.00  0.00    +0.154 C 
ATOM     18 CL   UNL     1       5.041   0.623   5.683  0.00  0.00    -0.083 Cl
ENDBRANCH   5   6
ENDBRANCH   1   5
BRANCH   1  19
ATOM     19  C   UNL     1      -0.712  -1.351  -1.946  0.00  0.00    +0.108 C 
BRANCH  19  20
ATOM     20  C   UNL     1      -1.447  -0.255  -2.719  0.00  0.00    +0.019 C 
BRANCH  20  21
ATOM     21  C   UNL     1      -2.475  -0.892  -3.655  0.00  0.00    +0.001 C 
BRANCH  21  22
ATOM     22  C   UNL     1      -3.211   0.204  -4.428  0.00  0.00    -0.002 C 
BRANCH  22  23
ATOM     23  C   UNL     1      -4.239  -0.434  -5.364  0.00  0.00    -0.020 C 
BRANCH  23  24
ATOM     24  C   UNL     1      -4.975   0.663  -6.137  0.00  0.00    -0.086 C 
BRANCH  24  25
ATOM     25  N   UNL     1      -5.963   0.050  -7.036  0.00  0.00    +0.378 N 
ATOM     26  H   UNL     1      -6.448   0.773  -7.546  0.00  0.00    -0.090 HD
ATOM     27  H   UNL     1      -5.492  -0.561  -7.686  0.00  0.00    -0.090 HD
ATOM     28  H   UNL     1      -6.626  -0.482  -6.494  0.00  0.00    -0.090 HD
ENDBRANCH  24  25
ENDBRANCH  23  24
ENDBRANCH  22  23
ENDBRANCH  21  22
ENDBRANCH  20  21
ENDBRANCH  19  20
ENDBRANCH   1  19
BRANCH   2  29
ATOM     29  C   UNL     1       2.576  -0.006  -0.525  0.00  0.00    +0.324 C 
BRANCH  29  30
ATOM     30  O   UNL     1       3.845   0.032  -1.181  0.00  0.00    -0.483 OA
BRANCH  30  31
ATOM     31  C   UNL     1       4.904   0.471  -0.452  0.00  0.00    +0.121 A 
ATOM     32  C   UNL     1       4.727   0.852   0.870  0.00  0.00    +0.045 A 
ATOM     33  C   UNL     1       5.806   1.298   1.609  0.00  0.00    +0.004 A 
ATOM     34  C   UNL     1       7.061   1.365   1.032  0.00  0.00    +0.000 A 
ATOM     35  C   UNL     1       7.239   0.986  -0.285  0.00  0.00    +0.004 A 
ATOM     36  C   UNL     1       6.165   0.533  -1.027  0.00  0.00    +0.045 A 
ENDBRANCH  30  31
ENDBRANCH  29  30
ENDBRANCH   2  29
TORSDOF 12
