REMARK  Name = ZINC38596856
REMARK  8 active torsions:
REMARK  status: ('A' for Active; 'I' for Inactive)
REMARK    1  A    between atoms: C_1  and  C_2
REMARK    2  A    between atoms: C_2  and  C_3
REMARK    3  A    between atoms: N_9  and  C_10
REMARK    4  A    between atoms: C_10  and  C_11
REMARK    5  A    between atoms: N_13  and  C_14
REMARK    6  A    between atoms: C_22  and  C_24
REMARK    7  A    between atoms: C_24  and  O_26
REMARK    8  A    between atoms: O_26  and  C_27
REMARK                            x       y       z     vdW  Elec       q    Type
REMARK                         _______ _______ _______ _____ _____    ______ ____
ROOT
ATOM      1  C   UNL     1      -2.284   3.869  -4.523  0.00  0.00    +0.053 C 
ATOM      2  C   UNL     1      -2.654   5.149  -4.900  0.00  0.00    +0.019 A 
ATOM      3  C   UNL     1      -2.419   6.420  -4.322  0.00  0.00    +0.031 A 
ATOM      4  C   UNL     1      -2.912   7.532  -4.922  0.00  0.00    +0.042 A 
ATOM      5  C   UNL     1      -3.654   7.459  -6.106  0.00  0.00    +0.022 A 
ATOM      6  C   UNL     1      -3.917   6.277  -6.713  0.00  0.00    +0.027 A 
ATOM      7  C   UNL     1      -3.434   5.069  -6.147  0.00  0.00    +0.045 A 
ATOM      8  N   UNL     1      -3.552   3.815  -6.536  0.00  0.00    -0.367 N 
ATOM      9  C   UNL     1      -2.852   2.950  -5.581  0.00  0.00    +0.234 C 
ATOM     10 CL   UNL     1      -2.617   9.084  -4.203  0.00  0.00    -0.084 Cl
ATOM     11  H   UNL     1      -4.022   3.514  -7.329  0.00  0.00    +0.161 HD
ENDROOT
BRANCH   1  14
ATOM     12  C   UNL     1      -1.042   2.270  -3.337  0.00  0.00    +0.200 C 
ATOM     13  O   UNL     1      -1.276   1.452  -4.200  0.00  0.00    -0.278 OA
ATOM     14  N   UNL     1      -1.555   3.513  -3.429  0.00  0.00    -0.288 N 
ATOM     15  H   UNL     1      -1.406   4.153  -2.716  0.00  0.00    +0.155 HD
BRANCH  12  16
ATOM     16  C   UNL     1      -0.176   1.898  -2.161  0.00  0.00    +0.019 C 
BRANCH  16  22
ATOM     17  C   UNL     1       0.939   0.081  -1.064  0.00  0.00    -0.068 C 
ATOM     18  C   UNL     1       1.318  -1.398  -1.165  0.00  0.00    -0.015 C 
ATOM     19  C   UNL     1       2.251  -1.599  -2.363  0.00  0.00    -0.003 C 
ATOM     20  C   UNL     1       1.557  -1.089  -3.630  0.00  0.00    -0.019 C 
ATOM     21  C   UNL     1       1.169   0.378  -3.437  0.00  0.00    -0.078 C 
ATOM     22  N   UNL     1       0.256   0.500  -2.294  0.00  0.00    +0.387 N 
ATOM     23  H   UNL     1      -0.552  -0.086  -2.445  0.00  0.00    -0.081 HD
BRANCH  17  25
ATOM     24  C   UNL     1       0.745  -0.077   1.422  0.00  0.00    +0.002 C 
ATOM     25  C   UNL     1       0.007   0.287   0.132  0.00  0.00    -0.019 C 
ENDBRANCH  17  25
ENDBRANCH  16  22
ENDBRANCH  12  16
ENDBRANCH   1  14
BRANCH   9  26
ATOM     26  C   UNL     1      -3.822   1.978  -4.959  0.00  0.00    +0.335 C 
ATOM     27  O   UNL     1      -5.011   2.179  -5.035  0.00  0.00    -0.248 OA
BRANCH  26  28
ATOM     28  O   UNL     1      -3.364   0.890  -4.319  0.00  0.00    -0.466 OA
ATOM     29  C   UNL     1      -4.340   0.013  -3.753  0.00  0.00    +0.280 C 
ENDBRANCH  26  28
ENDBRANCH   9  26
TORSDOF 6
