REMARK  Name = ZINC44956905
REMARK  6 active torsions:
REMARK  status: ('A' for Active; 'I' for Inactive)
REMARK    1  A    between atoms: C_7  and  C_11
REMARK    2  A    between atoms: C_11  and  C_12
REMARK    3  A    between atoms: N_14  and  N_15
REMARK    4  A    between atoms: C_16  and  C_18
REMARK    5  A    between atoms: C_18  and  C_19
REMARK    6  A    between atoms: C_19  and  C_20
REMARK                            x       y       z     vdW  Elec       q    Type
REMARK                         _______ _______ _______ _____ _____    ______ ____
ROOT
ATOM      1  C   UNL     1       0.242  -3.584  -1.434  0.00  0.00    +0.233 C 
ATOM      2  O   UNL     1       0.660  -2.913  -2.353  0.00  0.00    -0.274 OA
ATOM      3  N   UNL     1      -0.601  -4.607  -1.676  0.00  0.00    -0.234 N 
ATOM      4  H   UNL     1      -0.935  -5.145  -0.941  0.00  0.00    +0.173 HD
ENDROOT
BRANCH   3   5
ATOM      5  N   UNL     1      -0.995  -4.895  -2.989  0.00  0.00    -0.234 N 
ATOM      6  C   UNL     1      -1.838  -5.918  -3.231  0.00  0.00    +0.230 C 
ATOM      7  O   UNL     1      -2.256  -6.590  -2.312  0.00  0.00    -0.274 OA
ATOM      8  H   UNL     1      -0.661  -4.357  -3.724  0.00  0.00    +0.173 HD
BRANCH   6   9
ATOM      9  C   UNL     1      -2.262  -6.227  -4.644  0.00  0.00    +0.106 C 
BRANCH   9  10
ATOM     10  C   UNL     1      -3.214  -7.425  -4.641  0.00  0.00    +0.105 C 
BRANCH  10  11
ATOM     11  C   UNL     1      -3.637  -7.734  -6.053  0.00  0.00    +0.219 C 
ATOM     12  O   UNL     1      -3.220  -7.062  -6.973  0.00  0.00    -0.275 OA
ATOM     13  N   UNL     1      -4.481  -8.757  -6.295  0.00  0.00    -0.265 N 
ATOM     14  C   UNL     1      -4.872  -9.042  -7.599  0.00  0.00    +0.164 A 
ATOM     15  N   UNL     1      -4.520  -8.432  -8.710  0.00  0.00    -0.233 NA
ATOM     16  C   UNL     1      -4.983  -8.827  -9.881  0.00  0.00    +0.120 A 
ATOM     17  C   UNL     1      -5.832  -9.883  -9.883  0.00  0.00    +0.068 A 
ATOM     18  S   UNL     1      -5.905 -10.256  -8.139  0.00  0.00    -0.061 S 
ATOM     19  H   UNL     1      -4.815  -9.294  -5.560  0.00  0.00    +0.157 HD
ENDBRANCH  10  11
ENDBRANCH   9  10
ENDBRANCH   6   9
ENDBRANCH   3   5
BRANCH   1  20
ATOM     20  C   UNL     1       0.666  -3.275  -0.021  0.00  0.00    +0.134 C 
BRANCH  20  27
ATOM     21  C   UNL     1      -0.017   1.362   0.009  0.00  0.00    +0.001 A 
ATOM     22  C   UNL     1       1.170   2.083   0.002  0.00  0.00    +0.002 A 
ATOM     23  C   UNL     1       2.386   1.436  -0.013  0.00  0.00    +0.026 A 
ATOM     24  C   UNL     1       2.428   0.046  -0.021  0.00  0.00    +0.047 A 
ATOM     25  C   UNL     1       1.223  -0.681  -0.013  0.00  0.00    +0.003 A 
ATOM     26  C   UNL     1       0.002  -0.004   0.002  0.00  0.00    +0.010 A 
ATOM     27  C   UNL     1       1.604  -2.095  -0.025  0.00  0.00    -0.014 A 
ATOM     28  C   UNL     1       2.945  -2.141  -0.038  0.00  0.00    +0.087 A 
ATOM     29  N   UNL     1       3.455  -0.871  -0.036  0.00  0.00    -0.360 N 
ATOM     30  H   UNL     1       4.399  -0.650  -0.044  0.00  0.00    +0.165 HD
ENDBRANCH  20  27
ENDBRANCH   1  20
TORSDOF 6
