REMARK  Name = ZINC65963450
REMARK  7 active torsions:
REMARK  status: ('A' for Active; 'I' for Inactive)
REMARK    1  A    between atoms: C_1  and  C_2
REMARK    2  A    between atoms: C_2  and  C_3
REMARK    3  A    between atoms: C_2  and  N_13
REMARK    4  A    between atoms: N_9  and  C_10
REMARK    5  A    between atoms: N_9  and  C_11
REMARK    6  A    between atoms: C_16  and  N_19
REMARK    7  A    between atoms: C_20  and  C_22
REMARK                            x       y       z     vdW  Elec       q    Type
REMARK                         _______ _______ _______ _____ _____    ______ ____
ROOT
ATOM      1  N   UNL     1      -1.376  -0.512   0.012  0.00  0.00    +0.386 N 
ATOM      2  C   UNL     1      -2.087  -0.018  -1.173  0.00  0.00    -0.076 C 
ATOM      3  C   UNL     1      -3.546  -0.478  -1.125  0.00  0.00    +0.004 C 
ATOM      4  C   UNL     1      -3.593  -2.009  -1.101  0.00  0.00    +0.069 C 
ATOM      5  C   UNL     1      -2.785  -2.515   0.097  0.00  0.00    +0.004 C 
ATOM      6  C   UNL     1      -1.355  -1.980   0.004  0.00  0.00    -0.076 C 
ATOM      7  H   UNL     1      -1.847  -0.189   0.844  0.00  0.00    -0.081 HD
ENDROOT
BRANCH   4   8
ATOM      8  N   UNL     1      -4.983  -2.455  -0.980  0.00  0.00    -0.312 N 
ATOM      9  C   UNL     1      -5.341  -3.674  -1.429  0.00  0.00    +0.216 C 
ATOM     10  O   UNL     1      -4.513  -4.402  -1.934  0.00  0.00    -0.276 OA
ATOM     11  H   UNL     1      -5.645  -1.873  -0.576  0.00  0.00    +0.149 HD
BRANCH   9  12
ATOM     12  C   UNL     1      -6.771  -4.133  -1.303  0.00  0.00    +0.075 C 
ATOM     13  C   UNL     1      -7.174  -4.149   0.173  0.00  0.00    +0.013 C 
ATOM     14  C   UNL     1      -8.625  -4.615   0.300  0.00  0.00    +0.001 C 
ATOM     15  C   UNL     1      -8.762  -6.024  -0.282  0.00  0.00    +0.000 C 
ATOM     16  C   UNL     1      -8.360  -6.007  -1.758  0.00  0.00    +0.001 C 
ATOM     17  C   UNL     1      -6.908  -5.541  -1.885  0.00  0.00    +0.013 C 
ENDBRANCH   9  12
ENDBRANCH   4   8
BRANCH   1  19
ATOM     18  C   UNL     1      -0.019   1.526   0.010  0.00  0.00    -0.005 C 
ATOM     19  C   UNL     1       0.002  -0.004   0.002  0.00  0.00    -0.002 C 
BRANCH  19  20
ATOM     20  C   UNL     1       0.731  -0.503   1.223  0.00  0.00    +0.123 A 
ATOM     21  N   UNL     1       0.141  -0.463   2.405  0.00  0.00    -0.201 NA
ATOM     22  C   UNL     1       0.781  -0.903   3.486  0.00  0.00    +0.217 A 
ATOM     23  N   UNL     1       2.015  -1.384   3.375  0.00  0.00    -0.181 NA
ATOM     24  C   UNL     1       2.605  -1.423   2.185  0.00  0.00    +0.222 A 
ATOM     25  N   UNL     1       1.956  -0.985   1.108  0.00  0.00    -0.201 NA
ATOM     26  N   UNL     1       3.886  -1.921   2.064  0.00  0.00    -0.306 N 
ATOM     27  C   UNL     1       4.597  -2.407   3.249  0.00  0.00    +0.132 C 
ATOM     28  C   UNL     1       4.535  -1.963   0.752  0.00  0.00    +0.132 C 
ATOM     29  N   UNL     1       0.165  -0.860   4.719  0.00  0.00    -0.327 N 
ATOM     30  H   UNL     1      -0.736  -0.509   4.800  0.00  0.00    +0.145 HD
ATOM     31  H   UNL     1       0.632  -1.181   5.506  0.00  0.00    +0.145 HD
ENDBRANCH  19  20
ENDBRANCH   1  19
TORSDOF 4
