REMARK  Name = ZINC67134975
REMARK  5 active torsions:
REMARK  status: ('A' for Active; 'I' for Inactive)
REMARK    1  A    between atoms: C_3  and  N_10
REMARK    2  A    between atoms: C_5  and  N_7
REMARK    3  A    between atoms: C_12  and  C_15
REMARK    4  A    between atoms: N_17  and  C_18
REMARK    5  A    between atoms: C_23  and  C_26
REMARK                            x       y       z     vdW  Elec       q    Type
REMARK                         _______ _______ _______ _____ _____    ______ ____
ROOT
ATOM      1  N   UNL     1       3.586   2.125  -0.021  0.00  0.00    -0.219 N 
ATOM      2  C   UNL     1       3.728   3.464   0.084  0.00  0.00    +0.149 A 
ATOM      3  C   UNL     1       5.069   3.724   0.030  0.00  0.00    +0.167 A 
ATOM      4  N   UNL     1       5.723   2.558  -0.106  0.00  0.00    -0.124 NA
ATOM      5  N   UNL     1       4.877   1.589  -0.134  0.00  0.00    -0.060 NA
ENDROOT
BRANCH   1   8
ATOM      6  C   UNL     1      -0.017   1.378   0.010  0.00  0.00    +0.004 A 
ATOM      7  C   UNL     1       1.169   2.087   0.002  0.00  0.00    +0.028 A 
ATOM      8  C   UNL     1       2.381   1.409  -0.013  0.00  0.00    +0.069 A 
ATOM      9  C   UNL     1       2.396   0.021  -0.021  0.00  0.00    +0.060 A 
ATOM     10  C   UNL     1       1.207  -0.682  -0.013  0.00  0.00    +0.128 A 
ATOM     11  C   UNL     1       0.002  -0.004   0.002  0.00  0.00    +0.033 A 
BRANCH  10  12
ATOM     12  N   UNL     1       1.223  -2.162  -0.021  0.00  0.00    +0.056 N 
ATOM     13  O   UNL     1       2.277  -2.755  -0.035  0.00  0.00    -0.126 OA
ATOM     14  O   UNL     1       0.183  -2.778  -0.015  0.00  0.00    -0.126 OA
ENDBRANCH  10  12
ENDBRANCH   1   8
BRANCH   3  15
ATOM     15  C   UNL     1       5.691   5.059   0.107  0.00  0.00    +0.266 C 
ATOM     16  O   UNL     1       4.996   6.049   0.230  0.00  0.00    -0.268 OA
ATOM     17  N   UNL     1       7.032   5.182   0.042  0.00  0.00    -0.307 N 
ATOM     18  H   UNL     1       7.587   4.393  -0.056  0.00  0.00    +0.149 HD
BRANCH  17  19
ATOM     19  C   UNL     1       7.651   6.508   0.119  0.00  0.00    +0.074 C 
ATOM     20  C   UNL     1       7.833   6.901   1.586  0.00  0.00    +0.022 C 
ATOM     21  C   UNL     1       8.480   8.286   1.666  0.00  0.00    +0.002 C 
ATOM     22  C   UNL     1       9.843   8.253   0.973  0.00  0.00    +0.012 C 
ATOM     23  C   UNL     1       9.661   7.860  -0.494  0.00  0.00    +0.095 C 
ATOM     24  C   UNL     1       9.015   6.475  -0.574  0.00  0.00    +0.034 C 
BRANCH  23  25
ATOM     25  C   UNL     1      11.025   7.827  -1.187  0.00  0.00    +0.393 C 
ATOM     26  F   UNL     1      11.848   6.891  -0.552  0.00  0.00    -0.170 F 
ATOM     27  F   UNL     1      10.858   7.467  -2.528  0.00  0.00    -0.170 F 
ATOM     28  F   UNL     1      11.615   9.093  -1.113  0.00  0.00    -0.170 F 
ENDBRANCH  23  25
ENDBRANCH  17  19
ENDBRANCH   3  15
TORSDOF 5
