REMARK  Name = ZINC28933131
REMARK  12 active torsions:
REMARK  status: ('A' for Active; 'I' for Inactive)
REMARK    1  A    between atoms: C_1  and  C_2
REMARK    2  A    between atoms: C_5  and  C_29
REMARK    3  A    between atoms: C_6  and  O_8
REMARK    4  A    between atoms: O_8  and  C_9
REMARK    5  A    between atoms: C_9  and  C_10
REMARK    6  A    between atoms: C_10  and  O_12
REMARK    7  A    between atoms: O_12  and  C_13
REMARK    8  A    between atoms: C_13  and  C_14
REMARK    9  A    between atoms: C_16  and  O_17
REMARK   10  A    between atoms: C_26  and  C_28
REMARK   11  A    between atoms: C_29  and  C_30
REMARK   12  A    between atoms: C_29  and  C_31
REMARK                            x       y       z     vdW  Elec       q    Type
REMARK                         _______ _______ _______ _____ _____    ______ ____
ROOT
ATOM      1  C   UNL     1      -0.286  -6.287  -0.968  0.00  0.00    +0.007 A 
ATOM      2  C   UNL     1      -0.279  -6.960  -2.147  0.00  0.00    +0.095 A 
ATOM      3  C   UNL     1      -0.200  -6.248  -3.361  0.00  0.00    +0.285 A 
ATOM      4  O   UNL     1      -0.132  -4.908  -3.389  0.00  0.00    -0.425 OA
ATOM      5  C   UNL     1      -0.136  -4.178  -2.253  0.00  0.00    +0.141 A 
ATOM      6  C   UNL     1      -0.211  -4.825  -1.005  0.00  0.00    +0.024 A 
ATOM      7  C   UNL     1      -0.215  -4.073   0.175  0.00  0.00    +0.014 A 
ATOM      8  C   UNL     1      -0.140  -2.712   0.112  0.00  0.00    +0.024 A 
ATOM      9  C   UNL     1      -0.071  -2.064  -1.121  0.00  0.00    +0.037 A 
ATOM     10  C   UNL     1      -0.065  -2.794  -2.300  0.00  0.00    +0.070 A 
ATOM     11  N   UNL     1       0.000  -0.672  -1.169  0.00  0.00    -0.286 N 
ATOM     12  C   UNL     1      -0.605  -0.000  -2.168  0.00  0.00    +0.214 C 
ATOM     13  O   UNL     1      -1.141  -0.609  -3.070  0.00  0.00    -0.276 OA
ATOM     14  C   UNL     1      -0.617   1.507  -2.165  0.00  0.00    +0.109 C 
ATOM     15  H   UNL     1       0.550  -0.122  -0.391  0.00  0.00    +0.155 HD
ENDROOT
BRANCH   3  16
ATOM     16  O   UNL     1      -0.194  -6.865  -4.412  0.00  0.00    -0.480 OA
ATOM     17  H   UNL     1      -0.133  -6.323  -5.367  0.00  0.00    +0.295 HD
ENDBRANCH   3  16
BRANCH   1  18
ATOM     18  C   UNL     1      -0.369  -7.024   0.344  0.00  0.00    +0.268 C 
BRANCH  18  19
ATOM     19  O   UNL     1      -0.431  -8.453   0.094  0.00  0.00    -0.457 OA
BRANCH  19  20
ATOM     20  C   UNL     1      -0.509  -9.256   1.166  0.00  0.00    +0.345 C 
ATOM     21  O   UNL     1      -0.524  -8.782   2.277  0.00  0.00    -0.247 OA
BRANCH  20  22
ATOM     22  C   UNL     1      -0.577 -10.751   0.984  0.00  0.00    +0.349 C 
BRANCH  22  23
ATOM     23  O   UNL     1      -0.653 -11.384   2.263  0.00  0.00    -0.481 OA
BRANCH  23  29
ATOM     24  C   UNL     1      -0.778 -15.598  -0.195  0.00  0.00    +0.044 C 
ATOM     25  C   UNL     1      -0.785 -14.829   1.100  0.00  0.00    -0.047 A 
ATOM     26  C   UNL     1      -0.860 -15.504   2.305  0.00  0.00    +0.004 A 
ATOM     27  C   UNL     1      -0.867 -14.800   3.495  0.00  0.00    +0.008 A 
ATOM     28  C   UNL     1      -0.797 -13.420   3.483  0.00  0.00    -0.003 A 
ATOM     29  C   UNL     1      -0.721 -12.741   2.276  0.00  0.00    +0.125 A 
ATOM     30  C   UNL     1      -0.721 -13.449   1.083  0.00  0.00    +0.049 A 
BRANCH  28  31
ATOM     31  C   UNL     1      -0.804 -12.654   4.781  0.00  0.00    +0.016 C 
ATOM     32  C   UNL     1      -2.097 -12.953   5.543  0.00  0.00    +0.012 C 
ATOM     33  C   UNL     1       0.397 -13.078   5.629  0.00  0.00    +0.012 C 
ENDBRANCH  28  31
ENDBRANCH  23  29
ENDBRANCH  22  23
ENDBRANCH  20  22
ENDBRANCH  19  20
ENDBRANCH  18  19
ENDBRANCH   1  18
TORSDOF 8
