REMARK  Name = ZINC16115718
REMARK  7 active torsions:
REMARK  status: ('A' for Active; 'I' for Inactive)
REMARK    1  A    between atoms: C_3  and  O_20
REMARK    2  A    between atoms: C_6  and  C_7
REMARK    3  A    between atoms: N_8  and  N_9
REMARK    4  A    between atoms: C_14  and  C_17
REMARK    5  A    between atoms: C_17  and  C_18
REMARK    6  A    between atoms: O_20  and  C_21
REMARK    7  A    between atoms: C_21  and  C_23
REMARK                            x       y       z     vdW  Elec       q    Type
REMARK                         _______ _______ _______ _____ _____    ______ ____
ROOT
ATOM      1  C   UNL     1       1.198   3.428  -0.101  0.00  0.00    +0.013 A 
ATOM      2  C   UNL     1       1.196   2.050  -0.101  0.00  0.00    +0.047 A 
ATOM      3  C   UNL     1      -0.002   1.355   0.002  0.00  0.00    +0.132 A 
ATOM      4  C   UNL     1      -1.204   2.043   0.101  0.00  0.00    +0.047 A 
ATOM      5  C   UNL     1      -1.213   3.421   0.107  0.00  0.00    +0.013 A 
ATOM      6  C   UNL     1      -0.009   4.126   0.003  0.00  0.00    -0.005 A 
ENDROOT
BRANCH   6   7
ATOM      7  C   UNL     1      -0.013   5.598   0.003  0.00  0.00    +0.143 C 
ATOM      8  N   UNL     1      -1.141   6.247   0.101  0.00  0.00    -0.155 NA
BRANCH   8   9
ATOM      9  N   UNL     1      -1.145   7.537   0.101  0.00  0.00    -0.127 NA
ATOM     10  C   UNL     1      -2.283   8.192   0.199  0.00  0.00    +0.183 C 
ATOM     11  N   UNL     1      -3.557   7.675   0.304  0.00  0.00    -0.263 N 
ATOM     12  C   UNL     1      -4.627   8.445   0.403  0.00  0.00    +0.233 C 
ATOM     13  O   UNL     1      -5.745   7.985   0.500  0.00  0.00    -0.274 OA
ATOM     14  C   UNL     1      -4.369   9.943   0.380  0.00  0.00    +0.151 C 
ATOM     15  S   UNL     1      -2.539   9.960   0.221  0.00  0.00    -0.075 S 
ATOM     16  H   UNL     1      -3.671   6.712   0.309  0.00  0.00    +0.157 HD
BRANCH  14  17
ATOM     17  C   UNL     1      -4.818  10.604   1.685  0.00  0.00    +0.149 C 
BRANCH  17  18
ATOM     18  C   UNL     1      -4.487  12.073   1.643  0.00  0.00    +0.358 C 
ATOM     19  O   UNL     1      -3.947  12.544   0.670  0.00  0.00    -0.246 OA
ATOM     20  O   UNL     1      -4.792  12.860   2.688  0.00  0.00    -0.246 OA
ENDBRANCH  17  18
ENDBRANCH  14  17
ENDBRANCH   8   9
ENDBRANCH   6   7
BRANCH   3  21
ATOM     21  O   UNL     1       0.002  -0.004   0.002  0.00  0.00    -0.422 OA
BRANCH  21  22
ATOM     22  C   UNL     1       0.528  -0.615   1.082  0.00  0.00    +0.344 C 
ATOM     23  O   UNL     1       0.875   0.043   2.043  0.00  0.00    -0.245 OA
BRANCH  22  24
ATOM     24  C   UNL     1       0.683  -2.083   1.097  0.00  0.00    +0.059 A 
ATOM     25  C   UNL     1       0.280  -2.842  -0.004  0.00  0.00    +0.016 A 
ATOM     26  C   UNL     1       0.433  -4.212   0.015  0.00  0.00    +0.021 A 
ATOM     27  C   UNL     1       0.974  -4.837   1.126  0.00  0.00    +0.041 A 
ATOM     28  C   UNL     1       1.370  -4.090   2.224  0.00  0.00    +0.021 A 
ATOM     29  C   UNL     1       1.228  -2.719   2.215  0.00  0.00    +0.016 A 
ATOM     30 CL   UNL     1       1.156  -6.563   1.144  0.00  0.00    -0.084 Cl
ENDBRANCH  22  24
ENDBRANCH  21  22
ENDBRANCH   3  21
TORSDOF 7
