REMARK  Name = ZINC03505348
REMARK  5 active torsions:
REMARK  status: ('A' for Active; 'I' for Inactive)
REMARK    1  A    between atoms: C_4  and  O_23
REMARK    2  A    between atoms: C_5  and  N_7
REMARK    3  A    between atoms: C_8  and  C_10
REMARK    4  A    between atoms: C_10  and  N_11
REMARK    5  A    between atoms: O_23  and  C_24
REMARK                            x       y       z     vdW  Elec       q    Type
REMARK                         _______ _______ _______ _____ _____    ______ ____
ROOT
ATOM      1  N   UNL     1       0.002  -0.004   0.002  0.00  0.00    -0.281 N 
ATOM      2  C   UNL     1      -0.016   1.343   0.013  0.00  0.00    +0.235 C 
ATOM      3  O   UNL     1      -1.074   1.936   0.018  0.00  0.00    -0.274 OA
ATOM      4  H   UNL     1       0.844  -0.477  -0.084  0.00  0.00    +0.155 HD
ENDROOT
BRANCH   1   9
ATOM      5  C   UNL     1      -3.478  -0.853   0.840  0.00  0.00    +0.002 A 
ATOM      6  C   UNL     1      -3.565  -2.139   0.340  0.00  0.00    +0.004 A 
ATOM      7  C   UNL     1      -2.472  -2.722  -0.273  0.00  0.00    +0.048 A 
ATOM      8  C   UNL     1      -1.284  -2.018  -0.388  0.00  0.00    +0.148 A 
ATOM      9  C   UNL     1      -1.196  -0.722   0.115  0.00  0.00    +0.076 A 
ATOM     10  C   UNL     1      -2.296  -0.145   0.734  0.00  0.00    +0.027 A 
BRANCH   8  11
ATOM     11  O   UNL     1      -0.208  -2.590  -0.990  0.00  0.00    -0.432 OA
BRANCH  11  12
ATOM     12  C   UNL     1      -0.371  -3.921  -1.483  0.00  0.00    +0.541 C 
ATOM     13  F   UNL     1      -0.706  -4.772  -0.424  0.00  0.00    -0.166 F 
ATOM     14  F   UNL     1      -1.393  -3.942  -2.439  0.00  0.00    -0.166 F 
ENDBRANCH  11  12
ENDBRANCH   8  11
ENDBRANCH   1   9
BRANCH   2  15
ATOM     15  C   UNL     1       1.279   2.114   0.013  0.00  0.00    +0.214 C 
BRANCH  15  16
ATOM     16  N   UNL     1       0.992   3.551   0.026  0.00  0.00    -0.215 N 
ATOM     17  C   UNL     1       0.849   4.285   1.148  0.00  0.00    +0.247 C 
ATOM     18  O   UNL     1       0.930   3.898   2.294  0.00  0.00    -0.273 OA
ATOM     19  C   UNL     1       0.566   5.693   0.676  0.00  0.00    +0.113 C 
ATOM     20  C   UNL     1       1.657   6.644   1.157  0.00  0.00    +0.035 C 
ATOM     21  C   UNL     1       1.369   8.057   0.645  0.00  0.00    +0.003 C 
ATOM     22  C   UNL     1       0.004   8.517   1.163  0.00  0.00    +0.000 C 
ATOM     23  C   UNL     1      -1.082   7.568   0.653  0.00  0.00    +0.003 C 
ATOM     24  C   UNL     1      -0.803   6.152   1.164  0.00  0.00    +0.035 C 
ATOM     25  N   UNL     1       0.583   5.588  -0.788  0.00  0.00    -0.285 N 
ATOM     26  C   UNL     1       0.846   4.299  -1.075  0.00  0.00    +0.310 C 
ATOM     27  O   UNL     1       0.936   3.862  -2.205  0.00  0.00    -0.252 OA
ATOM     28  H   UNL     1       0.438   6.306  -1.424  0.00  0.00    +0.151 HD
ENDBRANCH  15  16
ENDBRANCH   2  15
TORSDOF 5
