REMARK  Name = ZINC20573050
REMARK  5 active torsions:
REMARK  status: ('A' for Active; 'I' for Inactive)
REMARK    1  A    between atoms: C_6  and  C_7
REMARK    2  A    between atoms: C_7  and  C_8
REMARK    3  A    between atoms: N_10  and  C_11
REMARK    4  A    between atoms: C_11  and  C_12
REMARK    5  A    between atoms: C_12  and  C_13
REMARK                            x       y       z     vdW  Elec       q    Type
REMARK                         _______ _______ _______ _____ _____    ______ ____
ROOT
ATOM      1  C   UNL     1      -5.073  -2.975  -4.433  0.00  0.00    +0.217 C 
ATOM      2  O   UNL     1      -4.405  -2.567  -5.359  0.00  0.00    -0.276 OA
ATOM      3  N   UNL     1      -6.214  -3.652  -4.672  0.00  0.00    -0.301 N 
ATOM      4  C   UNL     1      -7.037  -4.147  -3.560  0.00  0.00    +0.110 C 
ATOM      5  C   UNL     1      -7.276  -5.648  -3.755  0.00  0.00    +0.047 C 
ATOM      6  C   UNL     1      -7.876  -5.890  -5.140  0.00  0.00    +0.064 C 
ATOM      7  C   UNL     1      -6.902  -5.411  -6.217  0.00  0.00    +0.047 C 
ATOM      8  C   UNL     1      -6.662  -3.903  -6.049  0.00  0.00    +0.110 C 
ATOM      9  C   UNL     1      -8.157  -7.357  -5.323  0.00  0.00    +0.057 A 
ATOM     10  C   UNL     1      -9.394  -7.900  -5.242  0.00  0.00    +0.039 A 
ATOM     11  N   UNL     1      -9.284  -9.211  -5.455  0.00  0.00    -0.349 N 
ATOM     12  C   UNL     1      -8.027  -9.507  -5.664  0.00  0.00    +0.171 A 
ATOM     13  N   UNL     1      -7.293  -8.372  -5.588  0.00  0.00    -0.348 N 
ATOM     14  H   UNL     1      -6.333  -8.297  -5.702  0.00  0.00    +0.166 HD
ATOM     15  C   UNL     1     -10.631  -7.086  -4.952  0.00  0.00    +0.070 C 
ATOM     16  C   UNL     1     -10.184  -5.728  -4.394  0.00  0.00    +0.088 C 
ATOM     17  N   UNL     1      -9.145  -5.154  -5.261  0.00  0.00    -0.305 NA
ATOM     18  H   UNL     1      -9.014  -4.172  -5.067  0.00  0.00    +0.123 HD
ATOM     19  H   UNL     1     -10.019  -9.844  -5.454  0.00  0.00    +0.166 HD
ENDROOT
BRANCH   1  20
ATOM     20  C   UNL     1      -4.627  -2.726  -3.015  0.00  0.00    +0.114 C 
BRANCH  20  21
ATOM     21  C   UNL     1      -3.313  -1.943  -3.024  0.00  0.00    +0.113 C 
BRANCH  21  24
ATOM     22  C   UNL     1      -1.738  -1.024  -1.407  0.00  0.00    +0.217 C 
ATOM     23  O   UNL     1      -1.070  -0.616  -2.333  0.00  0.00    -0.275 OA
ATOM     24  N   UNL     1      -2.880  -1.701  -1.646  0.00  0.00    -0.315 N 
ATOM     25  H   UNL     1      -3.414  -2.027  -0.905  0.00  0.00    +0.149 HD
BRANCH  22  26
ATOM     26  C   UNL     1      -1.293  -0.775   0.011  0.00  0.00    +0.130 C 
BRANCH  26  32
ATOM     27  C   UNL     1      -0.017   1.378   0.010  0.00  0.00    +0.005 A 
ATOM     28  C   UNL     1       1.171   2.086   0.002  0.00  0.00    +0.020 A 
ATOM     29  C   UNL     1       2.378   1.410  -0.013  0.00  0.00    +0.041 A 
ATOM     30  C   UNL     1       2.396   0.027  -0.021  0.00  0.00    +0.020 A 
ATOM     31  C   UNL     1       1.208  -0.679  -0.013  0.00  0.00    +0.005 A 
ATOM     32  C   UNL     1       0.002  -0.004   0.002  0.00  0.00    -0.039 A 
ATOM     33 CL   UNL     1       3.870   2.298  -0.023  0.00  0.00    -0.084 Cl
ENDBRANCH  26  32
ENDBRANCH  22  26
ENDBRANCH  21  24
ENDBRANCH  20  21
ENDBRANCH   1  20
TORSDOF 5
