REMARK  Name = ZINC13164760
REMARK  7 active torsions:
REMARK  status: ('A' for Active; 'I' for Inactive)
REMARK    1  A    between atoms: C_1  and  C_2
REMARK    2  A    between atoms: C_2  and  C_26
REMARK    3  A    between atoms: N_5  and  C_9
REMARK    4  A    between atoms: C_9  and  C_10
REMARK    5  A    between atoms: N_12  and  C_13
REMARK    6  A    between atoms: C_13  and  C_15
REMARK    7  A    between atoms: C_13  and  C_21
REMARK                            x       y       z     vdW  Elec       q    Type
REMARK                         _______ _______ _______ _____ _____    ______ ____
ROOT
ATOM      1  C   UNL     1      -4.560  -0.337  -1.068  0.00  0.00    +0.047 C 
ATOM      2  C   UNL     1      -3.437  -1.268  -0.606  0.00  0.00    +0.135 C 
ATOM      3  C   UNL     1      -2.093  -0.767  -1.097  0.00  0.00    +0.251 C 
ATOM      4  O   UNL     1      -1.741  -0.626  -2.248  0.00  0.00    -0.272 OA
ATOM      5  N   UNL     1      -1.372  -0.511   0.012  0.00  0.00    -0.215 N 
ATOM      6  C   UNL     1      -2.065  -0.783   1.125  0.00  0.00    +0.310 C 
ATOM      7  O   UNL     1      -1.624  -0.636   2.248  0.00  0.00    -0.252 OA
ATOM      8  N   UNL     1      -3.305  -1.233   0.861  0.00  0.00    -0.281 N 
ATOM      9  H   UNL     1      -3.979  -1.488   1.510  0.00  0.00    +0.152 HD
ENDROOT
BRANCH   2  10
ATOM     10  C   UNL     1      -3.686  -2.675  -1.086  0.00  0.00    -0.012 A 
ATOM     11  C   UNL     1      -3.142  -3.102  -2.283  0.00  0.00    +0.010 A 
ATOM     12  C   UNL     1      -3.367  -4.392  -2.727  0.00  0.00    +0.050 A 
ATOM     13  C   UNL     1      -4.138  -5.260  -1.972  0.00  0.00    +0.166 A 
ATOM     14  C   UNL     1      -4.686  -4.830  -0.765  0.00  0.00    +0.167 A 
ATOM     15  C   UNL     1      -4.452  -3.538  -0.325  0.00  0.00    +0.055 A 
ATOM     16  O   UNL     1      -5.396  -5.859  -0.217  0.00  0.00    -0.453 OA
ATOM     17  C   UNL     1      -5.616  -6.790  -1.293  0.00  0.00    +0.466 C 
ATOM     18  O   UNL     1      -4.505  -6.559  -2.179  0.00  0.00    -0.453 OA
ENDBRANCH   2  10
BRANCH   5  19
ATOM     19  C   UNL     1       0.002  -0.004   0.002  0.00  0.00    +0.213 C 
BRANCH  19  20
ATOM     20  C   UNL     1      -0.018   1.503   0.010  0.00  0.00    +0.232 C 
ATOM     21  O   UNL     1      -1.077   2.095   0.018  0.00  0.00    -0.274 OA
ATOM     22  N   UNL     1       1.139   2.192   0.003  0.00  0.00    -0.303 N 
ATOM     23  H   UNL     1       1.986   1.719  -0.008  0.00  0.00    +0.150 HD
BRANCH  22  24
ATOM     24  C   UNL     1       1.120   3.657   0.011  0.00  0.00    +0.140 C 
BRANCH  24  25
ATOM     25  C   UNL     1       2.406   4.174   0.602  0.00  0.00    -0.022 A 
ATOM     26  C   UNL     1       3.604   3.554   0.299  0.00  0.00    +0.006 A 
ATOM     27  C   UNL     1       4.785   4.031   0.837  0.00  0.00    +0.000 A 
ATOM     28  C   UNL     1       4.766   5.121   1.687  0.00  0.00    +0.000 A 
ATOM     29  C   UNL     1       3.568   5.738   1.994  0.00  0.00    +0.000 A 
ATOM     30  C   UNL     1       2.388   5.264   1.452  0.00  0.00    +0.006 A 
ENDBRANCH  24  25
BRANCH  24  31
ATOM     31  C   UNL     1       0.976   4.165  -1.400  0.00  0.00    +0.014 A 
ATOM     32  C   UNL     1       0.236   5.203  -1.863  0.00  0.00    +0.013 A 
ATOM     33  C   UNL     1       0.257   5.491  -3.214  0.00  0.00    +0.008 A 
ATOM     34  C   UNL     1       1.016   4.728  -4.038  0.00  0.00    +0.045 A 
ATOM     35  S   UNL     1       1.741   3.562  -2.896  0.00  0.00    -0.099 S 
ENDBRANCH  24  31
ENDBRANCH  22  24
ENDBRANCH  19  20
ENDBRANCH   5  19
TORSDOF 6
