REMARK  Name = ZINC65964043
REMARK  6 active torsions:
REMARK  status: ('A' for Active; 'I' for Inactive)
REMARK    1  A    between atoms: C_4  and  N_7
REMARK    2  A    between atoms: C_8  and  C_10
REMARK    3  A    between atoms: N_13  and  C_16
REMARK    4  A    between atoms: C_16  and  C_17
REMARK    5  A    between atoms: N_19  and  C_20
REMARK    6  A    between atoms: N_23  and  C_26
REMARK                            x       y       z     vdW  Elec       q    Type
REMARK                         _______ _______ _______ _____ _____    ______ ____
ROOT
ATOM      1  C   UNL     1       4.130  -2.140  -3.723  0.00  0.00    +0.071 C 
ATOM      2  C   UNL     1       5.275  -1.184  -4.069  0.00  0.00    -0.006 C 
ATOM      3  C   UNL     1       6.036  -1.726  -5.281  0.00  0.00    -0.077 C 
ATOM      4  N   UNL     1       6.581  -3.052  -4.968  0.00  0.00    +0.385 N 
ATOM      5  C   UNL     1       5.485  -3.992  -4.706  0.00  0.00    -0.077 C 
ATOM      6  C   UNL     1       4.703  -3.538  -3.472  0.00  0.00    -0.006 C 
ATOM      7  H   UNL     1       7.171  -2.989  -4.152  0.00  0.00    -0.081 HD
ENDROOT
BRANCH   1   9
ATOM      8  N   UNL     1       2.839  -0.440  -2.473  0.00  0.00    -0.312 N 
ATOM      9  C   UNL     1       3.424  -1.655  -2.483  0.00  0.00    +0.216 C 
ATOM     10  O   UNL     1       3.383  -2.356  -1.495  0.00  0.00    -0.276 OA
ATOM     11  H   UNL     1       2.872   0.121  -3.264  0.00  0.00    +0.149 HD
BRANCH   8  15
ATOM     12  C   UNL     1      -0.019   1.526   0.010  0.00  0.00    +0.000 C 
ATOM     13  C   UNL     1       1.417   2.055  -0.000  0.00  0.00    +0.002 C 
ATOM     14  C   UNL     1       2.133   1.562  -1.259  0.00  0.00    +0.022 C 
ATOM     15  C   UNL     1       2.154   0.032  -1.268  0.00  0.00    +0.073 C 
ATOM     16  C   UNL     1       0.718  -0.497  -1.257  0.00  0.00    +0.022 C 
ATOM     17  C   UNL     1       0.002  -0.004   0.002  0.00  0.00    +0.002 C 
ENDBRANCH   8  15
ENDBRANCH   1   9
BRANCH   4  18
ATOM     18  C   UNL     1       7.376  -3.534  -6.106  0.00  0.00    +0.019 C 
BRANCH  18  19
ATOM     19  C   UNL     1       8.036  -4.838  -5.741  0.00  0.00    +0.197 C 
ATOM     20  O   UNL     1       7.862  -5.319  -4.641  0.00  0.00    -0.278 OA
ATOM     21  N   UNL     1       8.820  -5.471  -6.637  0.00  0.00    -0.314 N 
ATOM     22  H   UNL     1       8.960  -5.086  -7.516  0.00  0.00    +0.149 HD
BRANCH  21  23
ATOM     23  C   UNL     1       9.463  -6.739  -6.282  0.00  0.00    +0.069 C 
ATOM     24  C   UNL     1      10.783  -6.459  -5.558  0.00  0.00    +0.003 C 
ATOM     25  C   UNL     1      11.486  -7.785  -5.261  0.00  0.00    -0.077 C 
ATOM     26  N   UNL     1      11.756  -8.492  -6.518  0.00  0.00    +0.382 N 
ATOM     27  C   UNL     1      10.491  -8.827  -7.183  0.00  0.00    -0.077 C 
ATOM     28  C   UNL     1       9.750  -7.541  -7.554  0.00  0.00    +0.003 C 
ATOM     29  H   UNL     1      12.307  -7.902  -7.123  0.00  0.00    -0.081 HD
BRANCH  26  30
ATOM     30  C   UNL     1      12.500  -9.727  -6.234  0.00  0.00    -0.069 C 
ATOM     31  C   UNL     1      13.956  -9.798  -6.700  0.00  0.00    -0.017 C 
ATOM     32  C   UNL     1      12.880 -10.612  -7.423  0.00  0.00    -0.017 C 
ENDBRANCH  26  30
ENDBRANCH  21  23
ENDBRANCH  18  19
ENDBRANCH   4  18
TORSDOF 6
