REMARK  Name = ZINC64104177
REMARK  6 active torsions:
REMARK  status: ('A' for Active; 'I' for Inactive)
REMARK    1  A    between atoms: C_1  and  C_2
REMARK    2  A    between atoms: C_2  and  C_4
REMARK    3  A    between atoms: C_2  and  N_14
REMARK    4  A    between atoms: N_14  and  C_15
REMARK    5  A    between atoms: C_18  and  C_24
REMARK    6  A    between atoms: C_20  and  N_21
REMARK                            x       y       z     vdW  Elec       q    Type
REMARK                         _______ _______ _______ _____ _____    ______ ____
ROOT
ATOM      1  N   UNL     1      -1.277  -1.022   0.059  0.00  0.00    -0.335 N 
ATOM      2  H   UNL     1      -1.726  -1.270  -0.764  0.00  0.00    +0.147 HD
ENDROOT
BRANCH   1   3
ATOM      3  C   UNL     1      -2.005  -0.915   1.246  0.00  0.00    +0.060 A 
ATOM      4  C   UNL     1      -1.348  -0.676   2.447  0.00  0.00    +0.045 A 
ATOM      5  C   UNL     1      -2.071  -0.571   3.620  0.00  0.00    +0.054 A 
ATOM      6  C   UNL     1      -3.449  -0.704   3.599  0.00  0.00    +0.075 A 
ATOM      7  C   UNL     1      -4.105  -0.942   2.405  0.00  0.00    +0.048 A 
ATOM      8  C   UNL     1      -3.388  -1.042   1.229  0.00  0.00    +0.148 A 
ATOM      9 CL   UNL     1      -1.251  -0.272   5.120  0.00  0.00    -0.083 Cl
BRANCH   6  10
ATOM     10  C   UNL     1      -4.235  -0.590   4.879  0.00  0.00    +0.419 C 
ATOM     11  F   UNL     1      -5.597  -0.758   4.607  0.00  0.00    -0.166 F 
ATOM     12  F   UNL     1      -3.813  -1.578   5.775  0.00  0.00    -0.166 F 
ATOM     13  F   UNL     1      -4.025   0.673   5.444  0.00  0.00    -0.166 F 
ENDBRANCH   6  10
BRANCH   8  14
ATOM     14  N   UNL     1      -4.093  -1.290  -0.049  0.00  0.00    +0.058 N 
ATOM     15  O   UNL     1      -3.712  -0.753  -1.063  0.00  0.00    -0.126 OA
ATOM     16  O   UNL     1      -5.049  -2.030  -0.078  0.00  0.00    -0.126 OA
ENDBRANCH   8  14
ENDBRANCH   1   3
BRANCH   1  18
ATOM     17  C   UNL     1       0.409   0.742  -0.100  0.00  0.00    +0.033 C 
ATOM     18  C   UNL     1       0.164  -0.760   0.058  0.00  0.00    +0.098 C 
BRANCH  18  19
ATOM     19  C   UNL     1       0.807  -1.496  -1.089  0.00  0.00    -0.026 A 
ATOM     20  C   UNL     1       0.121  -1.540  -2.375  0.00  0.00    +0.007 A 
ATOM     21  C   UNL     1       0.642  -2.183  -3.443  0.00  0.00    +0.025 A 
ATOM     22  C   UNL     1       1.933  -2.857  -3.319  0.00  0.00    +0.056 A 
ATOM     23  N   UNL     1       2.695  -3.548  -4.129  0.00  0.00    -0.268 N 
ATOM     24  C   UNL     1       3.817  -3.943  -3.438  0.00  0.00    +0.308 C 
ATOM     25  O   UNL     1       4.725  -4.599  -3.901  0.00  0.00    -0.252 OA
ATOM     26  N   UNL     1       3.754  -3.480  -2.145  0.00  0.00    -0.268 N 
ATOM     27  C   UNL     1       2.638  -2.812  -1.998  0.00  0.00    +0.056 A 
ATOM     28  C   UNL     1       2.005  -2.090  -0.896  0.00  0.00    +0.030 A 
ATOM     29  H   UNL     1       2.501  -3.748  -5.058  0.00  0.00    +0.156 HD
ATOM     30  H   UNL     1       4.423  -3.624  -1.458  0.00  0.00    +0.156 HD
ENDBRANCH  18  19
ENDBRANCH   1  18
TORSDOF 5
