REMARK  Name = ZINC66191093
REMARK  8 active torsions:
REMARK  status: ('A' for Active; 'I' for Inactive)
REMARK    1  A    between atoms: C_1  and  C_2
REMARK    2  A    between atoms: C_2  and  C_4
REMARK    3  A    between atoms: C_2  and  N_9
REMARK    4  A    between atoms: C_4  and  C_5
REMARK    5  A    between atoms: C_5  and  N_6
REMARK    6  A    between atoms: N_6  and  C_7
REMARK    7  A    between atoms: N_6  and  C_8
REMARK    8  A    between atoms: C_16  and  C_19
REMARK                            x       y       z     vdW  Elec       q    Type
REMARK                         _______ _______ _______ _____ _____    ______ ____
ROOT
ATOM      1  N   UNL     1       0.714  -0.482   1.189  0.00  0.00    -0.297 N 
ATOM      2  C   UNL     1       0.055  -0.623   2.357  0.00  0.00    +0.302 C 
ATOM      3  O   UNL     1      -1.101  -0.259   2.450  0.00  0.00    -0.253 OA
ATOM      4  N   UNL     1       0.678  -1.167   3.421  0.00  0.00    -0.285 N 
ATOM      5  C   UNL     1       2.108  -1.501   3.361  0.00  0.00    +0.109 C 
ATOM      6  C   UNL     1       2.819  -0.834   4.542  0.00  0.00    +0.020 C 
ATOM      7  C   UNL     1       2.131  -1.245   5.846  0.00  0.00    +0.016 C 
ATOM      8  C   UNL     1       0.676  -0.772   5.829  0.00  0.00    +0.093 C 
ATOM      9  C   UNL     1      -0.058  -1.433   4.664  0.00  0.00    +0.122 C 
ATOM     10  H   UNL     1       1.656  -0.706   1.134  0.00  0.00    +0.151 HD
ENDROOT
BRANCH   8  11
ATOM     11  C   UNL     1       0.009  -1.149   7.126  0.00  0.00    +0.220 C 
ATOM     12  O   UNL     1       0.428  -2.084   7.774  0.00  0.00    -0.275 OA
ATOM     13  N   UNL     1      -1.054  -0.447   7.566  0.00  0.00    -0.297 N 
ATOM     14  C   UNL     1      -1.519   0.752   6.851  0.00  0.00    +0.136 C 
ATOM     15  C   UNL     1      -3.027   0.618   6.611  0.00  0.00    +0.179 C 
ATOM     16  O   UNL     1      -3.676   0.327   7.851  0.00  0.00    -0.377 OA
ATOM     17  C   UNL     1      -3.279  -0.912   8.444  0.00  0.00    +0.179 C 
ATOM     18  C   UNL     1      -1.787  -0.859   8.773  0.00  0.00    +0.136 C 
ENDBRANCH   8  11
BRANCH   1  20
ATOM     19  C   UNL     1      -0.005   1.537   0.012  0.00  0.00    +0.028 C 
ATOM     20  C   UNL     1       0.007   0.007   0.004  0.00  0.00    +0.070 C 
BRANCH  20  21
ATOM     21  C   UNL     1       0.718  -0.490  -1.256  0.00  0.00    +0.003 C 
BRANCH  21  22
ATOM     22  C   UNL     1       0.621  -2.015  -1.329  0.00  0.00    -0.078 C 
BRANCH  22  23
ATOM     23  N   UNL     1       1.304  -2.493  -2.538  0.00  0.00    +0.376 N 
ATOM     24  C   UNL     1       2.740  -2.199  -2.438  0.00  0.00    -0.097 C 
ATOM     25  C   UNL     1       1.109  -3.942  -2.671  0.00  0.00    -0.097 C 
ATOM     26  H   UNL     1       0.921  -2.026  -3.347  0.00  0.00    -0.083 HD
ENDBRANCH  22  23
ENDBRANCH  21  22
ENDBRANCH  20  21
ENDBRANCH   1  20
TORSDOF 5
