REMARK  Name = ZINC05629434
REMARK  4 active torsions:
REMARK  status: ('A' for Active; 'I' for Inactive)
REMARK    1  A    between atoms: C_1  and  N_2
REMARK    2  A    between atoms: N_7  and  C_10
REMARK    3  A    between atoms: C_10  and  C_11
REMARK    4  A    between atoms: N_13  and  C_14
REMARK                            x       y       z     vdW  Elec       q    Type
REMARK                         _______ _______ _______ _____ _____    ______ ____
ROOT
ATOM      1  C   UNL     1       1.481  -3.580   2.011  0.00  0.00    +0.235 C 
ATOM      2  O   UNL     1       2.392  -2.969   1.494  0.00  0.00    -0.274 OA
ATOM      3  N   UNL     1       1.744  -4.591   2.862  0.00  0.00    -0.284 N 
ATOM      4  H   UNL     1       1.018  -5.036   3.326  0.00  0.00    +0.155 HD
ENDROOT
BRANCH   3   5
ATOM      5  C   UNL     1       3.066  -4.999   3.076  0.00  0.00    +0.036 A 
ATOM      6  C   UNL     1       3.354  -6.341   3.287  0.00  0.00    +0.043 A 
ATOM      7  C   UNL     1       4.660  -6.741   3.498  0.00  0.00    +0.044 A 
ATOM      8  C   UNL     1       5.680  -5.806   3.498  0.00  0.00    +0.040 A 
ATOM      9  C   UNL     1       5.396  -4.468   3.288  0.00  0.00    +0.044 A 
ATOM     10  C   UNL     1       4.092  -4.064   3.071  0.00  0.00    +0.043 A 
ATOM     11 CL   UNL     1       6.678  -3.298   3.289  0.00  0.00    -0.083 Cl
ATOM     12 CL   UNL     1       5.021  -8.418   3.763  0.00  0.00    -0.083 Cl
ENDBRANCH   3   5
BRANCH   1  13
ATOM     13  C   UNL     1       0.053  -3.210   1.700  0.00  0.00    +0.214 C 
BRANCH  13  20
ATOM     14  C   UNL     1      -0.007   1.461   0.003  0.00  0.00    +0.143 C 
ATOM     15  N   UNL     1       0.007  -0.004  -0.001  0.00  0.00    -0.221 N 
ATOM     16  C   UNL     1       0.004  -0.787  -1.102  0.00  0.00    +0.309 C 
ATOM     17  O   UNL     1      -0.011  -0.426  -2.260  0.00  0.00    -0.264 OA
ATOM     18  C   UNL     1       0.022  -2.196  -0.590  0.00  0.00    +0.310 C 
ATOM     19  O   UNL     1       0.025  -3.217  -1.246  0.00  0.00    -0.264 OA
ATOM     20  N   UNL     1       0.034  -2.089   0.757  0.00  0.00    -0.209 N 
ATOM     21  C   UNL     1       0.030  -0.788   1.089  0.00  0.00    +0.318 C 
ATOM     22  O   UNL     1       0.043  -0.373   2.230  0.00  0.00    -0.252 OA
ENDBRANCH  13  20
ENDBRANCH   1  13
TORSDOF 3
