REMARK  Name = ZINC49082366
REMARK  5 active torsions:
REMARK  status: ('A' for Active; 'I' for Inactive)
REMARK    1  A    between atoms: C_1  and  C_2
REMARK    2  A    between atoms: C_2  and  C_4
REMARK    3  A    between atoms: C_2  and  N_11
REMARK    4  A    between atoms: C_12  and  C_14
REMARK    5  A    between atoms: C_15  and  O_21
REMARK                            x       y       z     vdW  Elec       q    Type
REMARK                         _______ _______ _______ _____ _____    ______ ____
ROOT
ATOM      1  N   UNL     1       0.763  -0.486  -1.153  0.00  0.00    -0.305 N 
ATOM      2  C   UNL     1       2.095  -0.664  -1.056  0.00  0.00    +0.249 C 
ATOM      3  O   UNL     1       2.666  -0.425  -0.009  0.00  0.00    -0.270 OA
ATOM      4  H   UNL     1       0.308  -0.676  -1.989  0.00  0.00    +0.150 HD
ENDROOT
BRANCH   2   5
ATOM      5  C   UNL     1       2.861  -1.149  -2.219  0.00  0.00    +0.096 A 
ATOM      6  C   UNL     1       3.412  -0.237  -3.131  0.00  0.00    +0.130 A 
ATOM      7  C   UNL     1       4.130  -0.704  -4.221  0.00  0.00    +0.046 A 
ATOM      8  C   UNL     1       4.302  -2.062  -4.408  0.00  0.00    +0.005 A 
ATOM      9  C   UNL     1       3.761  -2.967  -3.510  0.00  0.00    +0.021 A 
ATOM     10  C   UNL     1       3.048  -2.520  -2.416  0.00  0.00    +0.057 A 
ATOM     11 CL   UNL     1       2.378  -3.660  -1.290  0.00  0.00    -0.083 Cl
BRANCH   6  12
ATOM     12  O   UNL     1       3.242   1.096  -2.948  0.00  0.00    -0.506 OA
ATOM     13  H   UNL     1       3.935   1.512  -2.417  0.00  0.00    +0.292 HD
ENDBRANCH   6  12
ENDBRANCH   2   5
BRANCH   1  15
ATOM     14  C   UNL     1       0.010   1.526   0.016  0.00  0.00    +0.033 C 
ATOM     15  C   UNL     1       0.002  -0.004   0.002  0.00  0.00    +0.101 C 
BRANCH  15  16
ATOM     16  C   UNL     1      -1.419  -0.498  -0.090  0.00  0.00    -0.014 A 
ATOM     17  C   UNL     1      -1.977  -0.770  -1.326  0.00  0.00    +0.006 A 
ATOM     18  C   UNL     1      -3.280  -1.224  -1.411  0.00  0.00    +0.000 A 
ATOM     19  C   UNL     1      -4.025  -1.407  -0.260  0.00  0.00    +0.001 A 
ATOM     20  C   UNL     1      -3.467  -1.136   0.975  0.00  0.00    +0.015 A 
ATOM     21  C   UNL     1      -2.162  -0.687   1.061  0.00  0.00    +0.023 A 
ATOM     22 BR   UNL     1      -1.396  -0.323   2.751  0.00  0.00    -0.050 Br
ENDBRANCH  15  16
ENDBRANCH   1  15
TORSDOF 4
