REMARK  Name = ZINC39990079
REMARK  9 active torsions:
REMARK  status: ('A' for Active; 'I' for Inactive)
REMARK    1  A    between atoms: C_1  and  C_2
REMARK    2  A    between atoms: C_2  and  C_3
REMARK    3  A    between atoms: C_3  and  N_4
REMARK    4  A    between atoms: C_5  and  N_28
REMARK    5  A    between atoms: C_6  and  C_14
REMARK    6  A    between atoms: C_7  and  C_13
REMARK    7  A    between atoms: C_8  and  C_11
REMARK    8  A    between atoms: N_18  and  C_22
REMARK    9  A    between atoms: C_32  and  C_35
REMARK                            x       y       z     vdW  Elec       q    Type
REMARK                         _______ _______ _______ _____ _____    ______ ____
ROOT
ATOM      1  N   UNL     1       0.330  -2.185  -1.308  0.00  0.00    -0.295 N 
ATOM      2  C   UNL     1       1.460  -2.716  -0.775  0.00  0.00    +0.112 A 
ATOM      3  C   UNL     1       1.831  -4.040  -1.063  0.00  0.00    +0.019 A 
ATOM      4  C   UNL     1       1.022  -4.815  -1.909  0.00  0.00    -0.017 A 
ATOM      5  C   UNL     1      -0.132  -4.248  -2.443  0.00  0.00    +0.120 A 
ATOM      6  C   UNL     1      -0.465  -2.909  -2.116  0.00  0.00    +0.270 A 
ATOM      7  O   UNL     1      -1.476  -2.408  -2.576  0.00  0.00    -0.266 OA
ATOM      8  C   UNL     1       1.397  -6.238  -2.236  0.00  0.00    +0.046 C 
ENDROOT
BRANCH   3   9
ATOM      9  C   UNL     1       3.052  -4.606  -0.486  0.00  0.00    +0.032 C 
ATOM     10  C   UNL     1       2.971  -5.640   0.396  0.00  0.00    +0.077 C 
ATOM     11  C   UNL     1       4.018  -6.372   1.035  0.00  0.00    +0.259 C 
ATOM     12  O   UNL     1       5.188  -6.107   0.825  0.00  0.00    -0.269 OA
ATOM     13  N   UNL     1       3.678  -7.345   1.862  0.00  0.00    -0.252 N 
ATOM     14  C   UNL     1       2.380  -7.639   2.096  0.00  0.00    +0.121 C 
ATOM     15  S   UNL     1       1.719  -8.844   3.116  0.00  0.00    -0.027 S 
ATOM     16  S   UNL     1       1.528  -6.446   1.075  0.00  0.00    -0.061 S 
BRANCH  13  17
ATOM     17  C   UNL     1       4.725  -8.118   2.536  0.00  0.00    +0.083 C 
ATOM     18  C   UNL     1       4.597  -9.593   2.152  0.00  0.00    +0.023 C 
ATOM     19  C   UNL     1       5.690 -10.400   2.856  0.00  0.00    +0.002 C 
ATOM     20  C   UNL     1       5.538 -10.252   4.371  0.00  0.00    +0.000 C 
ATOM     21  C   UNL     1       5.665  -8.777   4.755  0.00  0.00    +0.002 C 
ATOM     22  C   UNL     1       4.572  -7.970   4.051  0.00  0.00    +0.023 C 
ENDBRANCH  13  17
ENDBRANCH   3   9
BRANCH   2  23
ATOM     23  N   UNL     1       2.242  -1.957   0.047  0.00  0.00    -0.316 N 
ATOM     24  C   UNL     1       2.059  -2.001   1.504  0.00  0.00    +0.106 C 
ATOM     25  C   UNL     1       3.406  -2.317   2.161  0.00  0.00    +0.019 C 
ATOM     26  C   UNL     1       4.450  -1.302   1.688  0.00  0.00    +0.006 C 
ATOM     27  C   UNL     1       4.616  -1.408   0.170  0.00  0.00    +0.003 C 
ATOM     28  C   UNL     1       3.286  -1.086  -0.508  0.00  0.00    +0.109 C 
ATOM     29  C   UNL     1       5.684  -0.417  -0.297  0.00  0.00    +0.009 C 
ENDBRANCH   2  23
BRANCH   5  30
ATOM     30  C   UNL     1      -0.979  -5.012  -3.309  0.00  0.00    +0.105 C 
ATOM     31  N   UNL     1      -1.650  -5.618  -3.997  0.00  0.00    -0.191 NA
ENDBRANCH   5  30
BRANCH   1  32
ATOM     32  C   UNL     1      -0.034  -0.801  -0.991  0.00  0.00    +0.126 C 
BRANCH  32  34
ATOM     33  C   UNL     1      -1.396   0.657   0.512  0.00  0.00    +0.005 C 
ATOM     34  C   UNL     1      -1.016  -0.788   0.182  0.00  0.00    +0.018 C 
ENDBRANCH  32  34
ENDBRANCH   1  32
TORSDOF 6
