REMARK  Name = ZINC40067945
REMARK  3 active torsions:
REMARK  status: ('A' for Active; 'I' for Inactive)
REMARK    1  A    between atoms: C_3  and  N_17
REMARK    2  A    between atoms: C_6  and  C_7
REMARK    3  A    between atoms: C_18  and  C_20
REMARK                            x       y       z     vdW  Elec       q    Type
REMARK                         _______ _______ _______ _____ _____    ______ ____
ROOT
ATOM      1  N   UNL     1       3.579   2.132  -0.022  0.00  0.00    -0.282 N 
ATOM      2  C   UNL     1       3.650   3.439   0.300  0.00  0.00    +0.248 C 
ATOM      3  O   UNL     1       2.661   4.019   0.705  0.00  0.00    -0.270 OA
ATOM      4  H   UNL     1       4.383   1.650  -0.271  0.00  0.00    +0.155 HD
ENDROOT
BRANCH   2   5
ATOM      5  C   UNL     1       4.930   4.166   0.162  0.00  0.00    +0.039 A 
ATOM      6  C   UNL     1       6.111   3.459  -0.331  0.00  0.00    +0.015 A 
ATOM      7  C   UNL     1       7.301   4.077  -0.475  0.00  0.00    +0.026 A 
ATOM      8  C   UNL     1       7.445   5.448  -0.148  0.00  0.00    +0.055 A 
ATOM      9  N   UNL     1       8.610   6.052  -0.289  0.00  0.00    -0.276 N 
ATOM     10  C   UNL     1       8.735   7.355   0.024  0.00  0.00    +0.304 C 
ATOM     11  O   UNL     1       9.805   7.915  -0.105  0.00  0.00    -0.265 OA
ATOM     12  C   UNL     1       7.547   8.109   0.531  0.00  0.00    +0.304 C 
ATOM     13  O   UNL     1       7.644   9.285   0.817  0.00  0.00    -0.265 OA
ATOM     14  N   UNL     1       6.364   7.472   0.667  0.00  0.00    -0.276 N 
ATOM     15  C   UNL     1       6.267   6.197   0.355  0.00  0.00    +0.056 A 
ATOM     16  C   UNL     1       4.991   5.490   0.491  0.00  0.00    +0.038 A 
ATOM     17  H   UNL     1       5.588   7.952   0.995  0.00  0.00    +0.155 HD
ATOM     18  H   UNL     1       9.377   5.557  -0.618  0.00  0.00    +0.155 HD
ENDBRANCH   2   5
BRANCH   1  21
ATOM     19  C   UNL     1      -0.041   1.541  -0.170  0.00  0.00    +0.013 A 
ATOM     20  C   UNL     1       1.174   2.189  -0.194  0.00  0.00    +0.024 A 
ATOM     21  C   UNL     1       2.350   1.473   0.004  0.00  0.00    +0.034 A 
ATOM     22  C   UNL     1       2.303   0.100   0.228  0.00  0.00    +0.024 A 
ATOM     23  C   UNL     1       1.090  -0.553   0.254  0.00  0.00    +0.013 A 
ATOM     24  C   UNL     1      -0.092   0.164   0.055  0.00  0.00    +0.019 A 
BRANCH  24  25
ATOM     25  C   UNL     1      -1.394  -0.535   0.082  0.00  0.00    +0.164 A 
ATOM     26  N   UNL     1      -2.578   0.017   0.252  0.00  0.00    -0.129 NA
ATOM     27  N   UNL     1      -3.490  -0.890   0.212  0.00  0.00    -0.134 NA
ATOM     28  C   UNL     1      -2.947  -2.059   0.013  0.00  0.00    +0.134 A 
ATOM     29  N   UNL     1      -1.603  -1.875  -0.070  0.00  0.00    -0.311 N 
ATOM     30  C   UNL     1      -0.592  -2.914  -0.264  0.00  0.00    +0.125 C 
ATOM     31  C   UNL     1      -1.207  -4.082  -1.039  0.00  0.00    +0.022 C 
ATOM     32  C   UNL     1      -1.826  -5.080  -0.062  0.00  0.00    +0.002 C 
ATOM     33  C   UNL     1      -2.942  -4.422   0.743  0.00  0.00    +0.008 C 
ATOM     34  C   UNL     1      -3.656  -3.382  -0.118  0.00  0.00    +0.076 C 
ENDBRANCH  24  25
ENDBRANCH   1  21
TORSDOF 3
