REMARK  Name = ZINC00238900
REMARK  5 active torsions:
REMARK  status: ('A' for Active; 'I' for Inactive)
REMARK    1  A    between atoms: C_3  and  C_9
REMARK    2  A    between atoms: N_10  and  N_11
REMARK    3  A    between atoms: C_12  and  C_14
REMARK    4  A    between atoms: C_17  and  O_21
REMARK    5  A    between atoms: C_18  and  O_20
REMARK                            x       y       z     vdW  Elec       q    Type
REMARK                         _______ _______ _______ _____ _____    ______ ____
ROOT
ATOM      1  N   UNL     1      -4.864   4.561   0.073  0.00  0.00    -0.203 N 
ATOM      2  C   UNL     1      -6.025   3.877   0.081  0.00  0.00    +0.263 C 
ATOM      3  O   UNL     1      -6.015   2.661   0.074  0.00  0.00    -0.268 OA
ATOM      4  H   UNL     1      -4.872   5.531   0.078  0.00  0.00    +0.178 HD
ENDROOT
BRANCH   2   5
ATOM      5  C   UNL     1      -7.309   4.604   0.097  0.00  0.00    +0.042 A 
ATOM      6  C   UNL     1      -7.323   6.002   0.110  0.00  0.00    +0.017 A 
ATOM      7  C   UNL     1      -8.523   6.679   0.121  0.00  0.00    +0.050 A 
ATOM      8  C   UNL     1      -9.720   5.976   0.128  0.00  0.00    +0.158 A 
ATOM      9  C   UNL     1      -9.714   4.582   0.120  0.00  0.00    +0.159 A 
ATOM     10  C   UNL     1      -8.515   3.897   0.104  0.00  0.00    +0.062 A 
BRANCH   9  11
ATOM     11  O   UNL     1     -10.889   3.897   0.127  0.00  0.00    -0.503 OA
ATOM     12  H   UNL     1     -11.220   3.694   1.012  0.00  0.00    +0.292 HD
ENDBRANCH   9  11
BRANCH   8  13
ATOM     13  O   UNL     1     -10.900   6.649   0.143  0.00  0.00    -0.503 OA
ATOM     14  H   UNL     1     -11.233   6.838   1.031  0.00  0.00    +0.292 HD
ENDBRANCH   8  13
ENDBRANCH   2   5
BRANCH   1  16
ATOM     15  C   UNL     1      -2.526   4.529   0.051  0.00  0.00    +0.139 C 
ATOM     16  N   UNL     1      -3.645   3.871   0.058  0.00  0.00    -0.187 NA
BRANCH  15  19
ATOM     17  C   UNL     1       1.159   3.822   0.011  0.00  0.00    +0.002 A 
ATOM     18  C   UNL     1      -0.038   4.508   0.027  0.00  0.00    +0.011 A 
ATOM     19  C   UNL     1      -1.243   3.803   0.034  0.00  0.00    +0.014 A 
ATOM     20  C   UNL     1      -1.228   2.405   0.021  0.00  0.00    +0.068 A 
ATOM     21  C   UNL     1      -0.021   1.732   0.012  0.00  0.00    +0.060 A 
ATOM     22  C   UNL     1       1.169   2.439   0.004  0.00  0.00    +0.021 A 
ATOM     23 CL   UNL     1       0.002  -0.004   0.002  0.00  0.00    -0.082 Cl
ATOM     24 CL   UNL     1      -2.720   1.518   0.023  0.00  0.00    -0.081 Cl
ENDBRANCH  15  19
ENDBRANCH   1  16
TORSDOF 5
