REMARK  Name = ZINC63712159
REMARK  8 active torsions:
REMARK  status: ('A' for Active; 'I' for Inactive)
REMARK    1  A    between atoms: C_4  and  C_7
REMARK    2  A    between atoms: C_7  and  S_8
REMARK    3  A    between atoms: S_8  and  C_11
REMARK    4  A    between atoms: C_11  and  C_12
REMARK    5  A    between atoms: C_12  and  C_13
REMARK    6  A    between atoms: C_13  and  C_14
REMARK    7  A    between atoms: N_16  and  C_17
REMARK    8  A    between atoms: C_20  and  C_23
REMARK                            x       y       z     vdW  Elec       q    Type
REMARK                         _______ _______ _______ _____ _____    ______ ____
ROOT
ATOM      1  C   UNL     1       8.350  -3.296   3.946  0.00  0.00    +0.217 C 
ATOM      2  O   UNL     1       7.775  -2.964   4.961  0.00  0.00    -0.275 OA
ATOM      3  N   UNL     1       9.523  -3.955   4.020  0.00  0.00    -0.285 N 
ATOM      4  H   UNL     1       9.950  -4.279   3.212  0.00  0.00    +0.155 HD
ENDROOT
BRANCH   3   5
ATOM      5  C   UNL     1      10.127  -4.170   5.264  0.00  0.00    +0.033 A 
ATOM      6  C   UNL     1      11.511  -4.141   5.381  0.00  0.00    +0.024 A 
ATOM      7  C   UNL     1      12.103  -4.354   6.610  0.00  0.00    +0.009 A 
ATOM      8  C   UNL     1      11.321  -4.597   7.724  0.00  0.00    -0.005 A 
ATOM      9  C   UNL     1       9.943  -4.627   7.611  0.00  0.00    +0.009 A 
ATOM     10  C   UNL     1       9.344  -4.409   6.386  0.00  0.00    +0.024 A 
BRANCH   8  11
ATOM     11  C   UNL     1      11.971  -4.829   9.063  0.00  0.00    +0.206 C 
ATOM     12  N   UNL     1      13.258  -5.513   8.887  0.00  0.00    -0.360 N 
ATOM     13  C   UNL     1      13.185  -6.650   9.517  0.00  0.00    +0.060 A 
ATOM     14  C   UNL     1      14.139  -7.753   9.700  0.00  0.00    +0.027 A 
ATOM     15  C   UNL     1      13.776  -8.833  10.421  0.00  0.00    +0.002 A 
ATOM     16  C   UNL     1      12.507  -8.956  11.015  0.00  0.00    +0.002 A 
ATOM     17  C   UNL     1      11.559  -8.004  10.908  0.00  0.00    +0.027 A 
ATOM     18  C   UNL     1      11.843  -6.781  10.146  0.00  0.00    +0.060 A 
ATOM     19  N   UNL     1      11.137  -5.719   9.880  0.00  0.00    -0.360 N 
ATOM     20  H   UNL     1      14.022  -5.179   8.392  0.00  0.00    +0.162 HD
ATOM     21  H   UNL     1      10.227  -5.548  10.170  0.00  0.00    +0.162 HD
ENDBRANCH   8  11
ENDBRANCH   3   5
BRANCH   1  22
ATOM     22  C   UNL     1       7.751  -2.973   2.601  0.00  0.00    +0.098 C 
BRANCH  22  23
ATOM     23  C   UNL     1       6.429  -2.228   2.797  0.00  0.00    +0.032 C 
BRANCH  23  24
ATOM     24  C   UNL     1       5.821  -1.899   1.432  0.00  0.00    +0.167 C 
BRANCH  24  25
ATOM     25  S   UNL     1       4.254  -1.017   1.665  0.00  0.00    -0.027 S 
ATOM     26  O   UNL     1       4.530   0.238   2.271  0.00  0.00    -0.174 OA
ATOM     27  O   UNL     1       3.330  -1.898   2.290  0.00  0.00    -0.174 OA
BRANCH  25  28
ATOM     28  C   UNL     1       3.703  -0.723  -0.038  0.00  0.00    +0.201 C 
BRANCH  28  32
ATOM     29  C   UNL     1      -0.021   1.369   0.009  0.00  0.00    +0.000 A 
ATOM     30  C   UNL     1       1.167   2.074  -0.008  0.00  0.00    +0.000 A 
ATOM     31  C   UNL     1       2.373   1.397  -0.023  0.00  0.00    +0.005 A 
ATOM     32  C   UNL     1       2.389   0.015  -0.021  0.00  0.00    -0.027 A 
ATOM     33  C   UNL     1       1.200  -0.690  -0.004  0.00  0.00    +0.005 A 
ATOM     34  C   UNL     1      -0.005  -0.013   0.010  0.00  0.00    +0.000 A 
ENDBRANCH  28  32
ENDBRANCH  25  28
ENDBRANCH  24  25
ENDBRANCH  23  24
ENDBRANCH  22  23
ENDBRANCH   1  22
TORSDOF 8
