REMARK  Name = ZINC02240094
REMARK  7 active torsions:
REMARK  status: ('A' for Active; 'I' for Inactive)
REMARK    1  A    between atoms: C_1  and  O_2
REMARK    2  A    between atoms: O_2  and  C_3
REMARK    3  A    between atoms: C_3  and  C_5
REMARK    4  A    between atoms: C_11  and  C_12
REMARK    5  A    between atoms: C_20  and  N_33
REMARK    6  A    between atoms: C_21  and  C_31
REMARK    7  A    between atoms: C_22  and  C_24
REMARK                            x       y       z     vdW  Elec       q    Type
REMARK                         _______ _______ _______ _____ _____    ______ ____
ROOT
ATOM      1  C   UNL     1       2.496   0.135   0.115  0.00  0.00    +0.080 C 
ATOM      2  C   UNL     1       1.271  -0.464  -0.015  0.00  0.00    +0.100 A 
ATOM      3  N   UNL     1       0.101   0.215  -0.284  0.00  0.00    -0.257 N 
ATOM      4  C   UNL     1      -1.033  -0.507  -0.385  0.00  0.00    +0.271 A 
ATOM      5  O   UNL     1      -2.098   0.033  -0.620  0.00  0.00    -0.266 OA
ATOM      6  C   UNL     1      -0.953  -1.962  -0.204  0.00  0.00    +0.079 A 
ATOM      7  C   UNL     1      -1.939  -2.893  -0.256  0.00  0.00    +0.028 C 
ATOM      8  S   UNL     1       0.793  -2.175   0.105  0.00  0.00    -0.065 S 
ATOM      9  C   UNL     1       0.140   1.606  -0.438  0.00  0.00    +0.118 C 
ATOM     10  C   UNL     1       1.268   2.342  -0.341  0.00  0.00    +0.079 C 
ATOM     11  C   UNL     1       2.578   1.641  -0.046  0.00  0.00    +0.102 C 
ENDROOT
BRANCH   7  12
ATOM     12  C   UNL     1      -1.603  -4.322  -0.209  0.00  0.00    -0.024 A 
ATOM     13  C   UNL     1      -0.340  -4.761  -0.621  0.00  0.00    +0.011 A 
ATOM     14  C   UNL     1      -0.030  -6.103  -0.569  0.00  0.00    +0.039 A 
ATOM     15  C   UNL     1      -0.970  -7.018  -0.120  0.00  0.00    +0.123 A 
ATOM     16  C   UNL     1      -2.226  -6.591   0.284  0.00  0.00    +0.039 A 
ATOM     17  C   UNL     1      -2.548  -5.252   0.243  0.00  0.00    +0.011 A 
ATOM     18  F   UNL     1      -0.662  -8.333  -0.078  0.00  0.00    -0.205 F 
ENDBRANCH   7  12
BRANCH  11  19
ATOM     19  C   UNL     1       3.144   2.220   1.225  0.00  0.00    -0.034 A 
ATOM     20  C   UNL     1       2.482   2.034   2.424  0.00  0.00    +0.007 A 
ATOM     21  C   UNL     1       3.004   2.560   3.591  0.00  0.00    +0.038 A 
ATOM     22  C   UNL     1       4.183   3.284   3.557  0.00  0.00    +0.123 A 
ATOM     23  C   UNL     1       4.842   3.475   2.354  0.00  0.00    +0.038 A 
ATOM     24  C   UNL     1       4.322   2.943   1.190  0.00  0.00    +0.007 A 
ATOM     25  F   UNL     1       4.690   3.805   4.696  0.00  0.00    -0.205 F 
ENDBRANCH  11  19
BRANCH   9  26
ATOM     26  N   UNL     1      -1.037   2.260  -0.711  0.00  0.00    -0.343 N 
ATOM     27  H   UNL     1      -1.042   3.352  -0.839  0.00  0.00    +0.144 HD
ATOM     28  H   UNL     1      -1.974   1.691  -0.802  0.00  0.00    +0.144 HD
ENDBRANCH   9  26
BRANCH   1  29
ATOM     29  C   UNL     1       3.643  -0.623   0.388  0.00  0.00    +0.338 C 
ATOM     30  O   UNL     1       3.558  -1.832   0.514  0.00  0.00    -0.245 OA
BRANCH  29  32
ATOM     31  C   UNL     1       5.968  -0.848   0.792  0.00  0.00    +0.280 C 
ATOM     32  O   UNL     1       4.842  -0.013   0.513  0.00  0.00    -0.465 OA
ENDBRANCH  29  32
ENDBRANCH   1  29
BRANCH  10  33
ATOM     33  C   UNL     1       1.226   3.763  -0.512  0.00  0.00    +0.099 C 
ATOM     34  N   UNL     1       1.193   4.891  -0.648  0.00  0.00    -0.191 NA
ENDBRANCH  10  33
TORSDOF 6
