REMARK  Name = ZINC65305959
REMARK  17 active torsions:
REMARK  status: ('A' for Active; 'I' for Inactive)
REMARK    1  A    between atoms: C_1  and  C_2
REMARK    2  A    between atoms: C_2  and  C_3
REMARK    3  A    between atoms: C_3  and  C_5
REMARK    4  A    between atoms: C_3  and  C_6
REMARK    5  A    between atoms: C_6  and  C_8
REMARK    6  A    between atoms: C_6  and  N_20
REMARK    7  A    between atoms: N_10  and  C_11
REMARK    8  A    between atoms: C_21  and  C_23
REMARK    9  A    between atoms: C_25  and  O_35
REMARK   10  A    between atoms: C_26  and  O_32
REMARK   11  A    between atoms: C_27  and  O_29
REMARK   12  A    between atoms: O_29  and  C_30
REMARK   13  A    between atoms: C_30  and  C_31
REMARK   14  A    between atoms: O_32  and  C_33
REMARK   15  A    between atoms: C_33  and  C_34
REMARK   16  A    between atoms: O_35  and  C_36
REMARK   17  A    between atoms: C_36  and  C_37
REMARK                            x       y       z     vdW  Elec       q    Type
REMARK                         _______ _______ _______ _____ _____    ______ ____
ROOT
ATOM      1  C   UNL     1      -1.420  -2.073   0.123  0.00  0.00    +0.162 C 
ENDROOT
BRANCH   1   2
ATOM      2  C   UNL     1      -0.482  -2.631  -0.915  0.00  0.00    +0.236 C 
ATOM      3  O   UNL     1       0.429  -3.359  -0.581  0.00  0.00    -0.274 OA
ATOM      4  N   UNL     1      -0.654  -2.321  -2.216  0.00  0.00    -0.277 N 
ATOM      5  H   UNL     1      -1.420  -1.793  -2.491  0.00  0.00    +0.152 HD
BRANCH   4   6
ATOM      6  C   UNL     1       0.314  -2.782  -3.213  0.00  0.00    +0.269 C 
ATOM      7  N   UNL     1       1.515  -1.938  -3.177  0.00  0.00    -0.348 N 
ATOM      8  C   UNL     1       1.638  -1.383  -4.347  0.00  0.00    +0.061 A 
ATOM      9  C   UNL     1       2.625  -0.452  -4.913  0.00  0.00    +0.027 A 
ATOM     10  C   UNL     1       2.492  -0.036  -6.188  0.00  0.00    +0.002 A 
ATOM     11  C   UNL     1       1.437  -0.458  -7.017  0.00  0.00    +0.002 A 
ATOM     12  C   UNL     1       0.479  -1.309  -6.598  0.00  0.00    +0.027 A 
ATOM     13  C   UNL     1       0.522  -1.829  -5.225  0.00  0.00    +0.061 A 
ATOM     14  N   UNL     1      -0.248  -2.644  -4.563  0.00  0.00    -0.348 N 
ATOM     15  H   UNL     1       2.109  -1.817  -2.419  0.00  0.00    +0.163 HD
ATOM     16  H   UNL     1      -1.046  -3.080  -4.899  0.00  0.00    +0.163 HD
ENDBRANCH   4   6
ENDBRANCH   1   2
BRANCH   1  17
ATOM     17  N   UNL     1      -1.410  -2.938   1.306  0.00  0.00    -0.300 N 
ATOM     18  C   UNL     1      -2.476  -2.964   2.130  0.00  0.00    +0.245 C 
ATOM     19  O   UNL     1      -3.446  -2.271   1.893  0.00  0.00    -0.270 OA
ATOM     20  H   UNL     1      -0.636  -3.491   1.495  0.00  0.00    +0.150 HD
BRANCH  18  21
ATOM     21  C   UNL     1      -2.466  -3.836   3.322  0.00  0.00    +0.044 A 
ATOM     22  C   UNL     1      -1.350  -4.629   3.599  0.00  0.00    +0.062 A 
ATOM     23  C   UNL     1      -1.343  -5.444   4.715  0.00  0.00    +0.166 A 
ATOM     24  C   UNL     1      -2.447  -5.475   5.563  0.00  0.00    +0.204 A 
ATOM     25  C   UNL     1      -3.561  -4.686   5.289  0.00  0.00    +0.166 A 
ATOM     26  C   UNL     1      -3.570  -3.864   4.177  0.00  0.00    +0.062 A 
BRANCH  25  27
ATOM     27  O   UNL     1      -4.638  -4.718   6.119  0.00  0.00    -0.488 OA
BRANCH  27  28
ATOM     28  C   UNL     1      -5.746  -3.883   5.777  0.00  0.00    +0.226 C 
ATOM     29  C   UNL     1      -6.853  -4.054   6.818  0.00  0.00    +0.048 C 
ENDBRANCH  27  28
ENDBRANCH  25  27
BRANCH  24  30
ATOM     30  O   UNL     1      -2.438  -6.277   6.660  0.00  0.00    -0.485 OA
BRANCH  30  31
ATOM     31  C   UNL     1      -1.931  -5.713   7.872  0.00  0.00    +0.226 C 
ATOM     32  C   UNL     1      -2.000  -6.758   8.988  0.00  0.00    +0.048 C 
ENDBRANCH  30  31
ENDBRANCH  24  30
BRANCH  23  33
ATOM     33  O   UNL     1      -0.257  -6.216   4.986  0.00  0.00    -0.488 OA
BRANCH  33  34
ATOM     34  C   UNL     1       0.840  -6.135   4.074  0.00  0.00    +0.226 C 
ATOM     35  C   UNL     1       1.961  -7.068   4.539  0.00  0.00    +0.048 C 
ENDBRANCH  33  34
ENDBRANCH  23  33
ENDBRANCH  18  21
ENDBRANCH   1  17
BRANCH   1  36
ATOM     36  C   UNL     1      -0.966  -0.666   0.517  0.00  0.00    +0.015 C 
ATOM     37  C   UNL     1       0.390  -0.745   1.221  0.00  0.00    +0.010 C 
BRANCH  36  39
ATOM     38  C   UNL     1      -1.607   1.407   1.757  0.00  0.00    +0.004 C 
ATOM     39  C   UNL     1      -1.996  -0.043   1.462  0.00  0.00    +0.002 C 
ENDBRANCH  36  39
ENDBRANCH   1  36
TORSDOF 12
