REMARK  Name = ZINC63780997
REMARK  6 active torsions:
REMARK  status: ('A' for Active; 'I' for Inactive)
REMARK    1  A    between atoms: C_1  and  C_2
REMARK    2  A    between atoms: C_2  and  O_3
REMARK    3  A    between atoms: O_3  and  C_4
REMARK    4  A    between atoms: C_9  and  N_12
REMARK    5  A    between atoms: C_13  and  C_15
REMARK    6  A    between atoms: C_15  and  N_16
REMARK                            x       y       z     vdW  Elec       q    Type
REMARK                         _______ _______ _______ _____ _____    ______ ____
ROOT
ATOM      1  N   UNL     1       6.863  -6.254   5.971  0.00  0.00    -0.291 N 
ATOM      2  C   UNL     1       8.066  -6.763   6.304  0.00  0.00    +0.303 C 
ATOM      3  O   UNL     1       9.079  -6.294   5.821  0.00  0.00    -0.253 OA
ATOM      4  N   UNL     1       8.146  -7.790   7.172  0.00  0.00    -0.283 N 
ATOM      5  C   UNL     1       6.918  -8.427   7.658  0.00  0.00    +0.114 C 
ATOM      6  C   UNL     1       6.874  -8.351   9.195  0.00  0.00    +0.052 C 
ATOM      7  C   UNL     1       8.243  -8.750   9.688  0.00  0.00    -0.036 C 
ATOM      8  C   UNL     1       8.626  -9.650  10.584  0.00  0.00    -0.001 A 
ATOM      9  C   UNL     1       7.857 -10.508  11.501  0.00  0.00    +0.010 A 
ATOM     10  C   UNL     1       8.582 -11.347  12.287  0.00  0.00    +0.001 A 
ATOM     11  C   UNL     1       9.978 -11.418  12.253  0.00  0.00    +0.002 A 
ATOM     12  C   UNL     1      10.765 -10.662  11.447  0.00  0.00    +0.026 A 
ATOM     13  C   UNL     1      10.118  -9.734  10.580  0.00  0.00    +0.043 A 
ATOM     14  N   UNL     1      10.618  -8.883   9.735  0.00  0.00    -0.376 N 
ATOM     15  C   UNL     1       9.520  -8.116   9.147  0.00  0.00    +0.124 C 
ATOM     16  C   UNL     1       9.466  -8.265   7.618  0.00  0.00    +0.138 C 
ATOM     17  H   UNL     1       6.052  -6.674   6.298  0.00  0.00    +0.151 HD
ATOM     18  H   UNL     1      11.560  -8.774   9.528  0.00  0.00    +0.160 HD
ENDROOT
BRANCH   1  19
ATOM     19  C   UNL     1       6.781  -5.068   5.115  0.00  0.00    +0.201 C 
BRANCH  19  21
ATOM     20  N   UNL     1       5.014  -3.642   4.134  0.00  0.00    -0.311 N 
ATOM     21  C   UNL     1       5.334  -4.707   4.895  0.00  0.00    +0.230 C 
ATOM     22  O   UNL     1       4.458  -5.374   5.404  0.00  0.00    -0.274 OA
ATOM     23  H   UNL     1       5.714  -3.108   3.727  0.00  0.00    +0.149 HD
BRANCH  20  29
ATOM     24  C   UNL     1       0.800  -1.797   1.321  0.00  0.00    +0.403 C 
ATOM     25  O   UNL     1       0.317  -2.538   0.487  0.00  0.00    -0.226 OA
ATOM     26  N   UNL     1       1.441  -2.311   2.389  0.00  0.00    -0.267 N 
ATOM     27  C   UNL     1       2.024  -1.428   3.408  0.00  0.00    +0.113 C 
ATOM     28  C   UNL     1       3.498  -1.799   3.596  0.00  0.00    +0.041 C 
ATOM     29  C   UNL     1       3.608  -3.291   3.920  0.00  0.00    +0.076 C 
ATOM     30  C   UNL     1       3.049  -4.110   2.755  0.00  0.00    +0.041 C 
ATOM     31  C   UNL     1       1.565  -3.765   2.559  0.00  0.00    +0.113 C 
BRANCH  24  32
ATOM     32  O   UNL     1       0.694  -0.463   1.177  0.00  0.00    -0.451 OA
BRANCH  32  34
ATOM     33  C   UNL     1      -0.017   1.542   0.030  0.00  0.00    +0.048 C 
ATOM     34  C   UNL     1       0.001   0.013   0.021  0.00  0.00    +0.230 C 
ENDBRANCH  32  34
ENDBRANCH  24  32
ENDBRANCH  20  29
ENDBRANCH  19  21
ENDBRANCH   1  19
TORSDOF 5
