REMARK  Name = ZINC07044055
REMARK  6 active torsions:
REMARK  status: ('A' for Active; 'I' for Inactive)
REMARK    1  A    between atoms: C_1  and  C_2
REMARK    2  A    between atoms: C_2  and  C_21
REMARK    3  A    between atoms: N_5  and  C_9
REMARK    4  A    between atoms: C_9  and  C_10
REMARK    5  A    between atoms: N_12  and  C_13
REMARK    6  A    between atoms: C_13  and  C_19
REMARK                            x       y       z     vdW  Elec       q    Type
REMARK                         _______ _______ _______ _____ _____    ______ ____
ROOT
ATOM      1  C   UNL     1       1.280   1.980   0.001  0.00  0.00    +0.213 C 
ENDROOT
BRANCH   1   6
ATOM      2  C   UNL     1       5.447   0.147  -1.165  0.00  0.00    +0.042 C 
ATOM      3  C   UNL     1       4.088  -0.356  -0.673  0.00  0.00    +0.113 C 
ATOM      4  C   UNL     1       2.978   0.565  -1.138  0.00  0.00    +0.247 C 
ATOM      5  O   UNL     1       2.668   0.818  -2.283  0.00  0.00    -0.273 OA
ATOM      6  N   UNL     1       2.407   1.043  -0.015  0.00  0.00    -0.215 N 
ATOM      7  C   UNL     1       2.999   0.561   1.083  0.00  0.00    +0.310 C 
ATOM      8  O   UNL     1       2.662   0.851   2.215  0.00  0.00    -0.252 OA
ATOM      9  N   UNL     1       4.006  -0.283   0.796  0.00  0.00    -0.285 N 
ATOM     10  H   UNL     1       4.571  -0.750   1.432  0.00  0.00    +0.151 HD
BRANCH   3  11
ATOM     11  C   UNL     1       3.839  -1.786  -1.156  0.00  0.00    +0.021 C 
ATOM     12  C   UNL     1       3.495  -2.839  -0.100  0.00  0.00    +0.006 C 
ATOM     13  C   UNL     1       4.869  -2.851  -0.773  0.00  0.00    +0.006 C 
ENDBRANCH   3  11
ENDBRANCH   1   6
BRANCH   1  14
ATOM     14  C   UNL     1      -0.014   1.209   0.009  0.00  0.00    +0.232 C 
ATOM     15  O   UNL     1       0.002  -0.004   0.002  0.00  0.00    -0.274 OA
ATOM     16  N   UNL     1      -1.191   1.867   0.018  0.00  0.00    -0.296 N 
ATOM     17  H   UNL     1      -1.204   2.837   0.023  0.00  0.00    +0.150 HD
BRANCH  16  18
ATOM     18  C   UNL     1      -2.449   1.117   0.020  0.00  0.00    +0.121 C 
ATOM     19  C   UNL     1      -2.524   0.243  -1.234  0.00  0.00    +0.041 C 
ATOM     20  C   UNL     1      -3.839  -0.540  -1.232  0.00  0.00    +0.003 C 
ATOM     21  C   UNL     1      -5.015   0.439  -1.221  0.00  0.00    +0.000 C 
ATOM     22  C   UNL     1      -4.940   1.312   0.033  0.00  0.00    +0.003 C 
ATOM     23  C   UNL     1      -3.626   2.095   0.031  0.00  0.00    +0.041 C 
BRANCH  18  24
ATOM     24  C   UNL     1      -2.510   0.263   1.217  0.00  0.00    +0.088 C 
ATOM     25  N   UNL     1      -2.557  -0.396   2.142  0.00  0.00    -0.194 NA
ENDBRANCH  18  24
ENDBRANCH  16  18
ENDBRANCH   1  14
TORSDOF 5
