REMARK  Name = ZINC15317526
REMARK  3 active torsions:
REMARK  status: ('A' for Active; 'I' for Inactive)
REMARK    1  A    between atoms: C_1  and  C_2
REMARK    2  A    between atoms: C_8  and  N_10
REMARK    3  A    between atoms: C_11  and  C_13
REMARK                            x       y       z     vdW  Elec       q    Type
REMARK                         _______ _______ _______ _____ _____    ______ ____
ROOT
ATOM      1  N   UNL     1       0.010  -0.012  -2.444  0.00  0.00    -0.307 N 
ATOM      2  C   UNL     1       0.111  -0.681  -3.609  0.00  0.00    +0.264 C 
ATOM      3  O   UNL     1       0.789  -1.687  -3.676  0.00  0.00    -0.268 OA
ATOM      4  H   UNL     1      -0.532   0.791  -2.391  0.00  0.00    +0.149 HD
ENDROOT
BRANCH   2   5
ATOM      5  C   UNL     1      -0.605  -0.191  -4.808  0.00  0.00    +0.147 A 
ATOM      6  C   UNL     1      -0.497  -0.888  -6.011  0.00  0.00    +0.091 A 
ATOM      7  C   UNL     1      -1.174  -0.415  -7.128  0.00  0.00    +0.083 A 
ATOM      8  C   UNL     1      -1.936   0.737  -7.000  0.00  0.00    +0.097 A 
ATOM      9  C   UNL     1      -1.998   1.379  -5.771  0.00  0.00    +0.150 A 
ATOM     10  N   UNL     1      -1.350   0.906  -4.728  0.00  0.00    -0.228 NA
ATOM     11 CL   UNL     1      -2.950   2.822  -5.605  0.00  0.00    -0.060 Cl
ATOM     12 CL   UNL     1      -2.803   1.371  -8.365  0.00  0.00    -0.079 Cl
ATOM     13 CL   UNL     1      -1.070  -1.248  -8.647  0.00  0.00    -0.080 Cl
ATOM     14 CL   UNL     1       0.472  -2.325  -6.111  0.00  0.00    -0.080 Cl
ENDBRANCH   2   5
BRANCH   1  21
ATOM     15  C   UNL     1      -1.433  -0.534   0.013  0.00  0.00    +0.009 C 
ATOM     16  C   UNL     1       0.002  -0.004   0.002  0.00  0.00    +0.006 C 
ATOM     17  C   UNL     1      -0.019   1.526   0.010  0.00  0.00    +0.005 C 
ATOM     18  C   UNL     1       1.417   2.055  -0.000  0.00  0.00    +0.000 C 
ATOM     19  C   UNL     1       2.133   1.562  -1.259  0.00  0.00    +0.002 C 
ATOM     20  C   UNL     1       2.154   0.032  -1.268  0.00  0.00    +0.022 C 
ATOM     21  C   UNL     1       0.718  -0.497  -1.257  0.00  0.00    +0.076 C 
ENDBRANCH   1  21
TORSDOF 2
