REMARK  Name = ZINC02224871
REMARK  6 active torsions:
REMARK  status: ('A' for Active; 'I' for Inactive)
REMARK    1  A    between atoms: C_1  and  C_2
REMARK    2  A    between atoms: C_2  and  C_3
REMARK    3  A    between atoms: C_2  and  O_4
REMARK    4  A    between atoms: O_4  and  C_5
REMARK    5  A    between atoms: C_5  and  C_7
REMARK    6  A    between atoms: C_8  and  N_21
REMARK                            x       y       z     vdW  Elec       q    Type
REMARK                         _______ _______ _______ _____ _____    ______ ____
ROOT
ATOM      1  C   UNL     1       2.731  -1.107  -2.212  0.00  0.00    +0.119 A 
ATOM      2  C   UNL     1       4.082  -1.358  -2.312  0.00  0.00    +0.055 A 
ATOM      3  C   UNL     1       4.604  -1.825  -3.588  0.00  0.00    +0.030 A 
ATOM      4  C   UNL     1       5.936  -2.142  -3.932  0.00  0.00    +0.025 A 
ATOM      5  C   UNL     1       6.213  -2.578  -5.226  0.00  0.00    +0.039 A 
ATOM      6  C   UNL     1       5.181  -2.703  -6.169  0.00  0.00    +0.053 A 
ATOM      7  N   UNL     1       3.946  -2.394  -5.825  0.00  0.00    -0.244 NA
ATOM      8  C   UNL     1       3.640  -1.977  -4.614  0.00  0.00    +0.111 A 
ATOM      9  S   UNL     1       2.115  -1.498  -3.838  0.00  0.00    -0.060 S 
ATOM     10  C   UNL     1       5.449  -3.189  -7.567  0.00  0.00    +0.056 C 
ATOM     11  C   UNL     1       6.907  -2.970  -7.959  0.00  0.00    +0.014 C 
ATOM     12  C   UNL     1       7.820  -3.628  -6.916  0.00  0.00    +0.080 C 
ATOM     13  C   UNL     1       7.599  -2.907  -5.602  0.00  0.00    +0.165 C 
ATOM     14  O   UNL     1       8.531  -2.610  -4.885  0.00  0.00    -0.292 OA
ENDROOT
BRANCH   2  15
ATOM     15  N   UNL     1       4.922  -1.171  -1.226  0.00  0.00    -0.356 N 
ATOM     16  H   UNL     1       4.561  -0.860  -0.382  0.00  0.00    +0.142 HD
ATOM     17  H   UNL     1       5.871  -1.352  -1.310  0.00  0.00    +0.142 HD
ENDBRANCH   2  15
BRANCH   1  18
ATOM     18  C   UNL     1       2.005  -0.652  -1.086  0.00  0.00    +0.348 C 
ATOM     19  O   UNL     1       2.583  -0.428  -0.039  0.00  0.00    -0.244 OA
BRANCH  18  20
ATOM     20  O   UNL     1       0.671  -0.465  -1.174  0.00  0.00    -0.458 OA
BRANCH  20  22
ATOM     21  C   UNL     1      -0.019   1.526   0.010  0.00  0.00    +0.052 C 
ATOM     22  C   UNL     1       0.002  -0.004   0.002  0.00  0.00    +0.171 C 
ATOM     23  C   UNL     1      -1.433  -0.534   0.013  0.00  0.00    +0.052 C 
ENDBRANCH  20  22
ENDBRANCH  18  20
ENDBRANCH   1  18
TORSDOF 4
