REMARK  Name = ZINC25887885
REMARK  10 active torsions:
REMARK  status: ('A' for Active; 'I' for Inactive)
REMARK    1  A    between atoms: C_1  and  C_2
REMARK    2  A    between atoms: C_2  and  C_3
REMARK    3  A    between atoms: C_3  and  C_4
REMARK    4  A    between atoms: C_3  and  C_5
REMARK    5  A    between atoms: C_3  and  C_6
REMARK    6  A    between atoms: N_14  and  C_18
REMARK    7  A    between atoms: C_18  and  C_19
REMARK    8  A    between atoms: N_21  and  C_22
REMARK    9  A    between atoms: C_26  and  S_28
REMARK   10  A    between atoms: S_28  and  C_31
REMARK                            x       y       z     vdW  Elec       q    Type
REMARK                         _______ _______ _______ _____ _____    ______ ____
ROOT
ATOM      1  C   UNL     1      -2.830  -6.404   2.516  0.00  0.00    -0.005 C 
ATOM      2  C   UNL     1      -1.730  -5.398   2.169  0.00  0.00    +0.006 C 
ATOM      3  C   UNL     1      -1.682  -5.200   0.652  0.00  0.00    +0.035 C 
ATOM      4  C   UNL     1      -3.033  -4.690   0.162  0.00  0.00    +0.113 C 
ATOM      5  C   UNL     1      -4.143  -5.673   0.520  0.00  0.00    +0.035 C 
ATOM      6  C   UNL     1      -4.182  -5.870   2.037  0.00  0.00    +0.006 C 
ATOM      7  C   UNL     1      -3.327  -3.329   0.749  0.00  0.00    +0.247 C 
ATOM      8  O   UNL     1      -3.445  -3.044   1.921  0.00  0.00    -0.273 OA
ATOM      9  N   UNL     1      -3.430  -2.496  -0.308  0.00  0.00    -0.215 N 
ATOM     10  C   UNL     1      -3.249  -3.143  -1.465  0.00  0.00    +0.310 C 
ATOM     11  O   UNL     1      -3.300  -2.607  -2.555  0.00  0.00    -0.252 OA
ATOM     12  N   UNL     1      -3.001  -4.455  -1.287  0.00  0.00    -0.285 N 
ATOM     13  H   UNL     1      -2.799  -5.289  -1.975  0.00  0.00    +0.151 HD
ENDROOT
BRANCH   1  14
ATOM     14  C   UNL     1      -2.872  -6.611   4.031  0.00  0.00    -0.032 C 
ATOM     15  C   UNL     1      -1.522  -7.147   4.510  0.00  0.00    +0.011 C 
ATOM     16  C   UNL     1      -3.165  -5.277   4.721  0.00  0.00    +0.011 C 
BRANCH  14  18
ATOM     17  C   UNL     1      -4.014  -7.824   5.894  0.00  0.00    +0.004 C 
ATOM     18  C   UNL     1      -3.972  -7.617   4.378  0.00  0.00    +0.003 C 
ENDBRANCH  14  18
ENDBRANCH   1  14
BRANCH   9  19
ATOM     19  C   UNL     1      -3.712  -1.062  -0.201  0.00  0.00    +0.214 C 
BRANCH  19  20
ATOM     20  C   UNL     1      -2.415  -0.302  -0.090  0.00  0.00    +0.235 C 
ATOM     21  O   UNL     1      -1.359  -0.900  -0.098  0.00  0.00    -0.274 OA
ATOM     22  N   UNL     1      -2.428   1.041   0.019  0.00  0.00    -0.284 N 
ATOM     23  H   UNL     1      -3.384   1.576   0.114  0.00  0.00    +0.155 HD
BRANCH  22  24
ATOM     24  C   UNL     1      -1.225   1.755   0.012  0.00  0.00    +0.035 A 
ATOM     25  C   UNL     1      -0.152   1.303  -0.746  0.00  0.00    +0.023 A 
ATOM     26  C   UNL     1       1.032   2.013  -0.756  0.00  0.00    +0.004 A 
ATOM     27  C   UNL     1       1.152   3.171  -0.009  0.00  0.00    +0.027 A 
ATOM     28  C   UNL     1       0.088   3.621   0.750  0.00  0.00    +0.090 A 
ATOM     29  C   UNL     1      -1.099   2.915   0.765  0.00  0.00    +0.050 A 
BRANCH  28  30
ATOM     30  S   UNL     1       0.246   5.097   1.700  0.00  0.00    -0.006 S 
ATOM     31  O   UNL     1      -0.685   4.945   2.763  0.00  0.00    -0.170 OA
ATOM     32  O   UNL     1       1.637   5.210   1.966  0.00  0.00    -0.170 OA
ATOM     33  C   UNL     1      -0.288   6.426   0.587  0.00  0.00    +0.200 C 
ENDBRANCH  28  30
ENDBRANCH  22  24
ENDBRANCH  19  20
ENDBRANCH   9  19
TORSDOF 6
