REMARK  Name = ZINC07131831
REMARK  9 active torsions:
REMARK  status: ('A' for Active; 'I' for Inactive)
REMARK    1  A    between atoms: C_1  and  C_2
REMARK    2  A    between atoms: C_2  and  C_4
REMARK    3  A    between atoms: C_2  and  O_17
REMARK    4  A    between atoms: O_17  and  C_18
REMARK    5  A    between atoms: C_18  and  C_20
REMARK    6  A    between atoms: C_25  and  N_26
REMARK    7  A    between atoms: N_26  and  C_27
REMARK    8  A    between atoms: C_27  and  C_28
REMARK    9  A    between atoms: C_28  and  O_29
REMARK                            x       y       z     vdW  Elec       q    Type
REMARK                         _______ _______ _______ _____ _____    ______ ____
ROOT
ATOM      1  C   UNL     1       1.309   2.754   1.193  0.00  0.00    +0.062 C 
ATOM      2  C   UNL     1       1.239   1.912  -0.083  0.00  0.00    +0.259 C 
ENDROOT
BRANCH   2   3
ATOM      3  C   UNL     1      -0.056   1.141  -0.105  0.00  0.00    +0.261 C 
ATOM      4  O   UNL     1      -0.051  -0.057   0.083  0.00  0.00    -0.271 OA
ATOM      5  N   UNL     1      -1.218   1.782  -0.340  0.00  0.00    -0.258 N 
ATOM      6  C   UNL     1      -1.241   3.212  -0.680  0.00  0.00    +0.209 C 
ATOM      7  C   UNL     1      -2.371   3.876   0.063  0.00  0.00    +0.235 C 
ATOM      8  O   UNL     1      -2.282   5.047   0.366  0.00  0.00    -0.274 OA
ATOM      9  N   UNL     1      -3.479   3.186   0.395  0.00  0.00    -0.283 N 
ATOM     10  C   UNL     1      -3.586   1.822   0.101  0.00  0.00    +0.055 A 
ATOM     11  C   UNL     1      -2.445   1.104  -0.272  0.00  0.00    +0.058 A 
ATOM     12  C   UNL     1      -2.533  -0.245  -0.564  0.00  0.00    +0.025 A 
ATOM     13  C   UNL     1      -3.759  -0.884  -0.492  0.00  0.00    +0.002 A 
ATOM     14  C   UNL     1      -4.891  -0.178  -0.131  0.00  0.00    +0.002 A 
ATOM     15  C   UNL     1      -4.809   1.176   0.173  0.00  0.00    +0.025 A 
ATOM     16  H   UNL     1      -4.210   3.639   0.842  0.00  0.00    +0.155 HD
ENDBRANCH   2   3
BRANCH   2  17
ATOM     17  O   UNL     1       2.355   0.985  -0.112  0.00  0.00    -0.449 OA
BRANCH  17  18
ATOM     18  C   UNL     1       3.490   1.412  -0.701  0.00  0.00    +0.342 C 
ATOM     19  O   UNL     1       3.545   2.529  -1.176  0.00  0.00    -0.245 OA
BRANCH  18  20
ATOM     20  C   UNL     1       4.664   0.525  -0.768  0.00  0.00    +0.080 A 
ATOM     21  C   UNL     1       4.646  -0.715  -0.123  0.00  0.00    +0.017 A 
ATOM     22  C   UNL     1       5.745  -1.542  -0.195  0.00  0.00    +0.001 A 
ATOM     23  C   UNL     1       6.875  -1.147  -0.894  0.00  0.00    +0.002 A 
ATOM     24  C   UNL     1       6.911   0.076  -1.531  0.00  0.00    +0.024 A 
ATOM     25  C   UNL     1       5.810   0.922  -1.475  0.00  0.00    +0.041 A 
BRANCH  25  26
ATOM     26  N   UNL     1       5.843   2.153  -2.115  0.00  0.00    -0.341 N 
ATOM     27  H   UNL     1       5.111   2.780  -2.001  0.00  0.00    +0.146 HD
BRANCH  26  28
ATOM     28  C   UNL     1       6.984   2.507  -2.964  0.00  0.00    +0.129 C 
BRANCH  28  29
ATOM     29  C   UNL     1       6.773   3.907  -3.545  0.00  0.00    +0.174 C 
BRANCH  29  30
ATOM     30  O   UNL     1       6.776   4.867  -2.486  0.00  0.00    -0.393 OA
ATOM     31  H   UNL     1       6.647   5.779  -2.782  0.00  0.00    +0.209 HD
ENDBRANCH  29  30
ENDBRANCH  28  29
ENDBRANCH  26  28
ENDBRANCH  25  26
ENDBRANCH  18  20
ENDBRANCH  17  18
ENDBRANCH   2  17
TORSDOF 8
