REMARK  Name = ZINC39710379
REMARK  9 active torsions:
REMARK  status: ('A' for Active; 'I' for Inactive)
REMARK    1  A    between atoms: C_1  and  C_2
REMARK    2  A    between atoms: C_2  and  C_3
REMARK    3  A    between atoms: C_10  and  C_15
REMARK    4  A    between atoms: C_15  and  C_17
REMARK    5  A    between atoms: C_15  and  N_27
REMARK    6  A    between atoms: N_22  and  C_23
REMARK    7  A    between atoms: C_23  and  C_24
REMARK    8  A    between atoms: C_23  and  C_25
REMARK    9  A    between atoms: C_23  and  C_26
REMARK                            x       y       z     vdW  Elec       q    Type
REMARK                         _______ _______ _______ _____ _____    ______ ____
ROOT
ATOM      1  C   UNL     1       5.687  -0.879  -4.158  0.00  0.00    -0.009 C 
ENDROOT
BRANCH   1   9
ATOM      2  C   UNL     1       0.804   0.264  -1.175  0.00  0.00    -0.047 A 
ATOM      3  C   UNL     1       0.000  -0.164  -2.232  0.00  0.00    +0.005 A 
ATOM      4  C   UNL     1       0.494  -0.844  -3.300  0.00  0.00    +0.024 A 
ATOM      5  C   UNL     1       1.865  -1.150  -3.379  0.00  0.00    +0.040 A 
ATOM      6  N   UNL     1       2.339  -1.818  -4.431  0.00  0.00    -0.285 N 
ATOM      7  C   UNL     1       3.615  -2.138  -4.569  0.00  0.00    +0.223 C 
ATOM      8  O   UNL     1       3.988  -2.749  -5.552  0.00  0.00    -0.275 OA
ATOM      9  C   UNL     1       4.607  -1.740  -3.500  0.00  0.00    +0.088 C 
ATOM     10  C   UNL     1       4.074  -0.980  -2.301  0.00  0.00    -0.006 C 
ATOM     11  C   UNL     1       2.737  -0.711  -2.276  0.00  0.00    -0.007 A 
ATOM     12  C   UNL     1       2.140   0.023  -1.160  0.00  0.00    +0.013 A 
ATOM     13  H   UNL     1       1.718  -2.082  -5.128  0.00  0.00    +0.155 HD
BRANCH   2  15
ATOM     14  C   UNL     1       0.197   2.514  -0.329  0.00  0.00    +0.009 C 
ATOM     15  C   UNL     1       0.176   1.014  -0.029  0.00  0.00    +0.032 C 
ENDBRANCH   2  15
ENDBRANCH   1   9
BRANCH   1  16
ATOM     16  N   UNL     1       6.324  -1.638  -5.243  0.00  0.00    +0.388 N 
ATOM     17  C   UNL     1       6.788  -2.936  -4.729  0.00  0.00    -0.073 C 
ATOM     18  C   UNL     1       7.163  -3.824  -5.916  0.00  0.00    +0.017 C 
ATOM     19  C   UNL     1       8.095  -3.079  -6.837  0.00  0.00    -0.048 A 
ATOM     20  C   UNL     1       8.821  -3.799  -7.773  0.00  0.00    +0.004 A 
ATOM     21  C   UNL     1       9.683  -3.150  -8.635  0.00  0.00    +0.000 A 
ATOM     22  C   UNL     1       9.822  -1.776  -8.563  0.00  0.00    +0.000 A 
ATOM     23  C   UNL     1       9.101  -1.059  -7.630  0.00  0.00    +0.002 A 
ATOM     24  C   UNL     1       8.236  -1.709  -6.763  0.00  0.00    -0.061 A 
ATOM     25  C   UNL     1       7.475  -0.889  -5.755  0.00  0.00    -0.042 C 
ATOM     26  H   UNL     1       5.659  -1.786  -5.987  0.00  0.00    -0.081 HD
ENDBRANCH   1  16
BRANCH   1  27
ATOM     27  C   UNL     1       5.050   0.389  -4.728  0.00  0.00    +0.205 C 
ATOM     28  N   UNL     1       4.239   0.069  -5.911  0.00  0.00    -0.152 NA
ATOM     29  N   UNL     1       4.703   0.665  -6.886  0.00  0.00    -0.070 NA
ATOM     30  N   UNL     1       5.821   1.436  -6.569  0.00  0.00    -0.179 N 
ATOM     31  N   UNL     1       6.093   1.310  -5.229  0.00  0.00    -0.183 NA
ATOM     32  H   UNL     1       6.326   1.977  -7.196  0.00  0.00    +0.191 HD
BRANCH  31  33
ATOM     33  C   UNL     1       6.018   2.610  -4.549  0.00  0.00    +0.035 C 
ATOM     34  C   UNL     1       6.178   2.406  -3.041  0.00  0.00    +0.029 C 
ATOM     35  C   UNL     1       7.136   3.519  -5.063  0.00  0.00    +0.029 C 
ATOM     36  C   UNL     1       4.662   3.258  -4.835  0.00  0.00    +0.029 C 
ENDBRANCH  31  33
ENDBRANCH   1  27
TORSDOF 5
