REMARK  Name = ZINC01729931
REMARK  5 active torsions:
REMARK  status: ('A' for Active; 'I' for Inactive)
REMARK    1  A    between atoms: C_3  and  N_22
REMARK    2  A    between atoms: C_6  and  C_7
REMARK    3  A    between atoms: CA_9  and  C_20
REMARK    4  A    between atoms: C_12  and  C_14
REMARK    5  A    between atoms: C_20  and  O_21
REMARK                            x       y       z     vdW  Elec       q    Type
REMARK                         _______ _______ _______ _____ _____    ______ ____
ROOT
ATOM      1  C   UNL     1       1.324  -0.426   0.395  0.00  0.00    +0.232 C 
ATOM      2  CA  UNL     1       2.169   0.807  -0.005  0.00  0.00    +0.179 C 
ATOM      3  N   UNL     1       1.161   1.885   0.001  0.00  0.00    -0.241 NA
ATOM      4  C   UNL     1      -0.016   1.345   0.009  0.00  0.00    +0.219 C 
ATOM      5  O   UNL     1       0.002  -0.004   0.002  0.00  0.00    -0.466 OA
ENDROOT
BRANCH   1  11
ATOM      6  C   UNL     1       0.641   0.099   2.745  0.00  0.00    +0.009 A 
ATOM      7  C   UNL     1       0.703  -0.131   4.107  0.00  0.00    +0.033 A 
ATOM      8  C   UNL     1       1.523  -1.126   4.605  0.00  0.00    +0.126 A 
ATOM      9  C   UNL     1       2.279  -1.894   3.740  0.00  0.00    +0.033 A 
ATOM     10  C   UNL     1       2.215  -1.668   2.378  0.00  0.00    +0.009 A 
ATOM     11  C   UNL     1       1.394  -0.673   1.880  0.00  0.00    -0.005 A 
BRANCH   8  12
ATOM     12  N   UNL     1       1.592  -1.368   6.063  0.00  0.00    +0.056 N 
ATOM     13  O   UNL     1       2.315  -2.244   6.502  0.00  0.00    -0.126 OA
ATOM     14  O   UNL     1       0.926  -0.691   6.825  0.00  0.00    -0.126 OA
ENDBRANCH   8  12
ENDBRANCH   1  11
BRANCH   4  15
ATOM     15  C   UNL     1      -1.269   2.137   0.020  0.00  0.00    +0.039 A 
ATOM     16  C   UNL     1      -2.517   1.507   0.017  0.00  0.00    +0.033 A 
ATOM     17  C   UNL     1      -3.659   2.283   0.032  0.00  0.00    +0.111 A 
ATOM     18  N   UNL     1      -3.583   3.599   0.039  0.00  0.00    -0.263 NA
ATOM     19  C   UNL     1      -2.426   4.233   0.037  0.00  0.00    +0.111 A 
ATOM     20  C   UNL     1      -1.235   3.534   0.027  0.00  0.00    +0.033 A 
ENDBRANCH   4  15
BRANCH   2  21
ATOM     21  C   UNL     1       2.771   0.628  -1.400  0.00  0.00    +0.186 C 
BRANCH  21  22
ATOM     22  O   UNL     1       3.636   1.728  -1.690  0.00  0.00    -0.393 OA
ATOM     23  H   UNL     1       4.054   1.681  -2.561  0.00  0.00    +0.209 HD
ENDBRANCH  21  22
ENDBRANCH   2  21
TORSDOF 5
