REMARK  Name = ZINC50958916
REMARK  3 active torsions:
REMARK  status: ('A' for Active; 'I' for Inactive)
REMARK    1  A    between atoms: C_3  and  N_18
REMARK    2  A    between atoms: C_4  and  N_8
REMARK    3  A    between atoms: C_9  and  C_11
REMARK                            x       y       z     vdW  Elec       q    Type
REMARK                         _______ _______ _______ _____ _____    ______ ____
ROOT
ATOM      1  C   UNL     1      -0.016   1.379   0.009  0.00  0.00    +0.003 A 
ATOM      2  C   UNL     1       0.776   1.364   1.142  0.00  0.00    +0.025 A 
ATOM      3  C   UNL     1       1.987   0.687   1.133  0.00  0.00    +0.048 A 
ATOM      4  C   UNL     1       2.401   0.023  -0.021  0.00  0.00    +0.073 A 
ATOM      5  C   UNL     1       1.601   0.043  -1.153  0.00  0.00    +0.064 A 
ATOM      6  C   UNL     1       0.394   0.721  -1.136  0.00  0.00    +0.022 A 
ATOM      7 CL   UNL     1       2.112  -0.782  -2.593  0.00  0.00    -0.082 Cl
ENDROOT
BRANCH   4   8
ATOM      8  N   UNL     1       3.624  -0.663  -0.036  0.00  0.00    -0.281 N 
ATOM      9  C   UNL     1       3.679  -1.951   0.355  0.00  0.00    +0.246 C 
ATOM     10  O   UNL     1       2.659  -2.544   0.635  0.00  0.00    -0.273 OA
ATOM     11  H   UNL     1       4.431  -0.210  -0.329  0.00  0.00    +0.155 HD
BRANCH   9  12
ATOM     12  C   UNL     1       5.009  -2.655   0.446  0.00  0.00    +0.204 C 
ATOM     13  C   UNL     1       5.623  -2.769  -0.952  0.00  0.00    +0.041 C 
ATOM     14  C   UNL     1       6.944  -3.538  -0.859  0.00  0.00    +0.005 C 
ATOM     15  C   UNL     1       6.682  -4.908  -0.226  0.00  0.00    +0.028 C 
ATOM     16  C   UNL     1       6.027  -4.711   1.143  0.00  0.00    +0.161 C 
ATOM     17  O   UNL     1       4.819  -3.963   0.990  0.00  0.00    -0.367 OA
ENDBRANCH   9  12
ENDBRANCH   4   8
BRANCH   3  18
ATOM     18  N   UNL     1       2.789   0.671   2.278  0.00  0.00    -0.356 N 
ATOM     19  H   UNL     1       2.500   1.134   3.080  0.00  0.00    +0.142 HD
ATOM     20  H   UNL     1       3.636   0.198   2.271  0.00  0.00    +0.142 HD
ENDBRANCH   3  18
TORSDOF 3
