REMARK  Name = ZINC31157964
REMARK  15 active torsions:
REMARK  status: ('A' for Active; 'I' for Inactive)
REMARK    1  A    between atoms: C_1  and  C_2
REMARK    2  A    between atoms: C_3  and  C_4
REMARK    3  A    between atoms: C_4  and  C_5
REMARK    4  A    between atoms: C_5  and  C_6
REMARK    5  A    between atoms: C_6  and  C_8
REMARK    6  A    between atoms: C_10  and  C_31
REMARK    7  A    between atoms: C_14  and  C_24
REMARK    8  A    between atoms: C_16  and  C_22
REMARK    9  A    between atoms: C_19  and  C_20
REMARK   10  A    between atoms: C_19  and  O_21
REMARK   11  A    between atoms: C_24  and  C_26
REMARK   12  A    between atoms: C_27  and  C_28
REMARK   13  A    between atoms: C_29  and  C_30
REMARK   14  A    between atoms: C_31  and  C_39
REMARK   15  A    between atoms: C_33  and  C_37
REMARK                            x       y       z     vdW  Elec       q    Type
REMARK                         _______ _______ _______ _____ _____    ______ ____
ROOT
ATOM      1  C   UNL     1       1.423   1.608  -0.003  0.00  0.00    +0.083 C 
ATOM      2  C   UNL     1      -0.013   1.086   0.008  0.00  0.00    +0.059 C 
ATOM      3  C   UNL     1      -0.785   1.586  -1.218  0.00  0.00    +0.054 C 
ATOM      4  C   UNL     1      -0.638   3.100  -1.273  0.00  0.00    +0.133 C 
ATOM      5  C   UNL     1       0.653   3.544  -1.306  0.00  0.00    +0.158 C 
ATOM      6  C   UNL     1       1.684   2.417  -1.282  0.00  0.00    +0.097 C 
ATOM      7  C   UNL     1       1.328   1.512  -2.457  0.00  0.00    +0.178 C 
ATOM      8  O   UNL     1       2.129   1.216  -3.312  0.00  0.00    -0.293 OA
ATOM      9  C   UNL     1      -0.106   1.009  -2.476  0.00  0.00    +0.126 C 
ATOM     10  C   UNL     1      -0.127  -0.520  -2.429  0.00  0.00    +0.050 C 
ATOM     11  C   UNL     1       3.119   2.943  -1.351  0.00  0.00    +0.028 C 
ATOM     12  O   UNL     1       0.985   4.850  -1.354  0.00  0.00    -0.296 OA
ENDROOT
BRANCH   2  13
ATOM     13  C   UNL     1      -0.715   1.572   1.277  0.00  0.00    +0.176 C 
ATOM     14  C   UNL     1      -2.145   1.081   1.305  0.00  0.00    +0.209 C 
ATOM     15  C   UNL     1      -2.921   2.181   1.319  0.00  0.00    +0.080 C 
ATOM     16  C   UNL     1      -2.109   3.334   1.303  0.00  0.00    +0.339 C 
ATOM     17  O   UNL     1      -2.531   4.475   1.310  0.00  0.00    -0.245 OA
ATOM     18  O   UNL     1      -0.803   3.003   1.279  0.00  0.00    -0.447 OA
ATOM     19  C   UNL     1      -4.427   2.181   1.348  0.00  0.00    +0.055 C 
ATOM     20  O   UNL     1      -2.560  -0.202   1.314  0.00  0.00    -0.288 OA
ATOM     21  C   UNL     1       0.037   1.086   2.518  0.00  0.00    +0.065 C 
ENDBRANCH   2  13
BRANCH   1  22
ATOM     22  C   UNL     1       2.377   0.443   0.055  0.00  0.00    +0.138 C 
ATOM     23  O   UNL     1       2.064  -0.619  -0.426  0.00  0.00    -0.297 OA
BRANCH  22  24
ATOM     24  C   UNL     1       3.724   0.605   0.712  0.00  0.00    +0.078 C 
BRANCH  24  25
ATOM     25  C   UNL     1       4.491  -0.717   0.635  0.00  0.00    +0.034 C 
BRANCH  25  28
ATOM     26  C   UNL     1       7.544  -1.204   2.913  0.00  0.00    +0.035 C 
ATOM     27  C   UNL     1       6.197  -1.366   2.256  0.00  0.00    -0.034 C 
ATOM     28  C   UNL     1       5.838  -0.555   1.292  0.00  0.00    -0.031 C 
ENDBRANCH  25  28
ENDBRANCH  24  25
ENDBRANCH  22  24
ENDBRANCH   1  22
BRANCH   9  29
ATOM     29  O   UNL     1      -0.775   1.472  -3.651  0.00  0.00    -0.381 OA
ATOM     30  H   UNL     1      -0.423   1.158  -4.644  0.00  0.00    +0.211 HD
ENDBRANCH   9  29
BRANCH   4  31
ATOM     31  C   UNL     1      -1.786   4.006  -1.290  0.00  0.00    +0.167 C 
ATOM     32  O   UNL     1      -1.611   5.211  -1.334  0.00  0.00    -0.292 OA
BRANCH  31  33
ATOM     33  C   UNL     1      -3.147   3.464  -1.253  0.00  0.00    +0.047 C 
ATOM     34  C   UNL     1      -4.208   4.301  -1.268  0.00  0.00    +0.003 C 
BRANCH  34  35
ATOM     35  C   UNL     1      -5.567   3.760  -1.232  0.00  0.00    -0.004 C 
ATOM     36  C   UNL     1      -6.615   4.587  -1.247  0.00  0.00    -0.030 C 
ATOM     37  C   UNL     1      -8.014   4.029  -1.209  0.00  0.00    +0.035 C 
ENDBRANCH  34  35
ENDBRANCH  31  33
ENDBRANCH   4  31
TORSDOF 9
