REMARK  Name = ZINC13407103
REMARK  15 active torsions:
REMARK  status: ('A' for Active; 'I' for Inactive)
REMARK    1  A    between atoms: C_1  and  C_2
REMARK    2  A    between atoms: C_2  and  O_4
REMARK    3  A    between atoms: O_4  and  C_5
REMARK    4  A    between atoms: C_9  and  C_43
REMARK    5  A    between atoms: C_9  and  C_44
REMARK    6  A    between atoms: C_12  and  C_42
REMARK    7  A    between atoms: C_15  and  O_38
REMARK    8  A    between atoms: C_20  and  O_34
REMARK    9  A    between atoms: C_23  and  O_26
REMARK   10  A    between atoms: O_26  and  C_27
REMARK   11  A    between atoms: C_27  and  C_29
REMARK   12  A    between atoms: O_34  and  C_35
REMARK   13  A    between atoms: C_35  and  C_37
REMARK   14  A    between atoms: O_38  and  C_39
REMARK   15  A    between atoms: C_39  and  C_41
REMARK                            x       y       z     vdW  Elec       q    Type
REMARK                         _______ _______ _______ _____ _____    ______ ____
ROOT
ATOM      1  C   UNL     1       2.818   2.092   3.532  0.00  0.00    +0.183 C 
ATOM      2  C   UNL     1       3.668   3.351   3.364  0.00  0.00    +0.046 C 
ATOM      3  C   UNL     1       4.993   2.920   2.736  0.00  0.00    +0.010 C 
ATOM      4  C   UNL     1       4.769   2.280   1.365  0.00  0.00    -0.031 C 
ATOM      5  C   UNL     1       3.664   1.251   1.351  0.00  0.00    +0.008 C 
ATOM      6  C   UNL     1       2.403   1.582   2.148  0.00  0.00    +0.016 C 
ATOM      7  C   UNL     1       1.544   2.590   1.410  0.00  0.00    +0.060 C 
ATOM      8  C   UNL     1       0.299   3.020   2.179  0.00  0.00    +0.182 C 
ATOM      9  C   UNL     1      -0.551   4.003   1.369  0.00  0.00    +0.057 C 
ATOM     10  C   UNL     1      -0.776   3.497  -0.058  0.00  0.00    +0.067 C 
ATOM     11  C   UNL     1       0.616   3.398  -0.737  0.00  0.00    +0.202 C 
ATOM     12  C   UNL     1       1.176   2.142   0.002  0.00  0.00    +0.114 C 
ATOM     13  C   UNL     1       2.328   1.598  -0.807  0.00  0.00    +0.194 C 
ATOM     14  C   UNL     1       3.316   0.746  -0.039  0.00  0.00    +0.050 C 
ATOM     15  C   UNL     1      -0.014   1.210   0.009  0.00  0.00    +0.173 C 
ATOM     16  O   UNL     1       0.002  -0.004   0.002  0.00  0.00    -0.292 OA
ATOM     17  C   UNL     1      -1.228   2.046   0.002  0.00  0.00    -0.004 C 
ATOM     18  C   UNL     1      -2.488   1.608   0.034  0.00  0.00    +0.016 C 
ATOM     19  C   UNL     1       1.658   0.253   2.378  0.00  0.00    +0.015 C 
ATOM     20  C   UNL     1       6.095   1.561   1.004  0.00  0.00    +0.011 C 
ATOM     21  C   UNL     1       4.573   3.391   0.332  0.00  0.00    +0.011 C 
ENDROOT
BRANCH   1  22
ATOM     22  O   UNL     1       1.684   2.330   4.388  0.00  0.00    -0.461 OA
BRANCH  22  24
ATOM     23  C   UNL     1       0.732   2.402   6.665  0.00  0.00    +0.136 C 
ATOM     24  C   UNL     1       1.872   2.171   5.708  0.00  0.00    +0.304 C 
ATOM     25  O   UNL     1       2.956   1.841   6.128  0.00  0.00    -0.251 OA
ENDBRANCH  22  24
ENDBRANCH   1  22
BRANCH  13  26
ATOM     26  O   UNL     1       1.772   0.793  -1.897  0.00  0.00    -0.460 OA
BRANCH  26  27
ATOM     27  C   UNL     1       2.481   0.735  -3.035  0.00  0.00    +0.304 C 
ATOM     28  O   UNL     1       3.528   1.331  -3.125  0.00  0.00    -0.251 OA
ATOM     29  C   UNL     1       1.972  -0.074  -4.200  0.00  0.00    +0.136 C 
ENDBRANCH  26  27
ENDBRANCH  13  26
BRANCH  11  30
ATOM     30  O   UNL     1       1.427   4.573  -0.499  0.00  0.00    -0.460 OA
BRANCH  30  31
ATOM     31  C   UNL     1       1.466   5.493  -1.476  0.00  0.00    +0.304 C 
ATOM     32  O   UNL     1       0.842   5.320  -2.495  0.00  0.00    -0.251 OA
ATOM     33  C   UNL     1       2.289   6.744  -1.299  0.00  0.00    +0.136 C 
ENDBRANCH  30  31
ENDBRANCH  11  30
BRANCH   8  34
ATOM     34  O   UNL     1      -0.530   1.913   2.595  0.00  0.00    -0.461 OA
BRANCH  34  35
ATOM     35  C   UNL     1      -1.239   2.074   3.723  0.00  0.00    +0.304 C 
ATOM     36  O   UNL     1      -1.165   3.110   4.341  0.00  0.00    -0.251 OA
ATOM     37  C   UNL     1      -2.127   0.962   4.219  0.00  0.00    +0.136 C 
ENDBRANCH  34  35
ENDBRANCH   8  34
TORSDOF 8
