REMARK  Name = ZINC05123433
REMARK  4 active torsions:
REMARK  status: ('A' for Active; 'I' for Inactive)
REMARK    1  A    between atoms: C_1  and  C_2
REMARK    2  A    between atoms: C_5  and  N_8
REMARK    3  A    between atoms: C_10  and  N_15
REMARK    4  A    between atoms: N_18  and  C_19
REMARK                            x       y       z     vdW  Elec       q    Type
REMARK                         _______ _______ _______ _____ _____    ______ ____
ROOT
ATOM      1  N   UNL     1       0.059  -4.170  -0.021  0.00  0.00    -0.270 N 
ATOM      2  C   UNL     1      -0.053  -4.993  -1.231  0.00  0.00    +0.136 C 
ATOM      3  C   UNL     1       0.451  -6.396  -0.821  0.00  0.00    +0.101 C 
ATOM      4  C   UNL     1       0.171  -6.397   0.700  0.00  0.00    +0.120 C 
ATOM      5  C   UNL     1       0.176  -4.933   1.079  0.00  0.00    +0.222 C 
ATOM      6  O   UNL     1       0.274  -4.509   2.212  0.00  0.00    -0.275 OA
ENDROOT
BRANCH   1  11
ATOM      7  C   UNL     1      -0.018   1.503   0.010  0.00  0.00    +0.044 C 
ATOM      8  C   UNL     1       0.002  -0.004   0.002  0.00  0.00    -0.050 A 
ATOM      9  C   UNL     1       0.010  -0.687  -1.200  0.00  0.00    +0.005 A 
ATOM     10  C   UNL     1       0.033  -2.068  -1.211  0.00  0.00    +0.024 A 
ATOM     11  C   UNL     1       0.039  -2.771  -0.013  0.00  0.00    +0.036 A 
ATOM     12  C   UNL     1       0.026  -2.082   1.192  0.00  0.00    +0.024 A 
ATOM     13  C   UNL     1       0.007  -0.701   1.197  0.00  0.00    +0.005 A 
ENDBRANCH   1  11
BRANCH   3  14
ATOM     14  N   UNL     1      -0.319  -7.444  -1.496  0.00  0.00    -0.295 N 
ATOM     15  C   UNL     1       0.177  -8.694  -1.582  0.00  0.00    +0.300 C 
ATOM     16  O   UNL     1       1.263  -8.953  -1.100  0.00  0.00    -0.253 OA
ATOM     17  N   UNL     1      -0.531  -9.658  -2.204  0.00  0.00    -0.297 N 
ATOM     18  H   UNL     1      -1.185  -7.238  -1.881  0.00  0.00    +0.151 HD
ATOM     19  H   UNL     1      -1.397  -9.452  -2.589  0.00  0.00    +0.151 HD
BRANCH  17  20
ATOM     20  C   UNL     1       0.008 -11.018  -2.297  0.00  0.00    +0.074 C 
ATOM     21  C   UNL     1       0.900 -11.147  -3.549  0.00  0.00    +0.022 C 
ATOM     22  C   UNL     1       0.615 -12.577  -4.072  0.00  0.00    +0.002 C 
ATOM     23  C   UNL     1      -0.905 -12.738  -3.818  0.00  0.00    +0.002 C 
ATOM     24  C   UNL     1      -1.139 -12.029  -2.468  0.00  0.00    +0.022 C 
ENDBRANCH  17  20
ENDBRANCH   3  14
TORSDOF 3
