REMARK  Name = ZINC38980009
REMARK  10 active torsions:
REMARK  status: ('A' for Active; 'I' for Inactive)
REMARK    1  A    between atoms: C_1  and  C_2
REMARK    2  A    between atoms: C_5  and  C_35
REMARK    3  A    between atoms: C_6  and  S_8
REMARK    4  A    between atoms: S_8  and  N_11
REMARK    5  A    between atoms: C_13  and  N_23
REMARK    6  A    between atoms: N_23  and  C_24
REMARK    7  A    between atoms: C_27  and  O_32
REMARK    8  A    between atoms: C_29  and  O_30
REMARK    9  A    between atoms: O_30  and  C_31
REMARK   10  A    between atoms: O_32  and  C_33
REMARK                            x       y       z     vdW  Elec       q    Type
REMARK                         _______ _______ _______ _____ _____    ______ ____
ROOT
ATOM      1  N   UNL     1      -1.315  -3.675   3.050  0.00  0.00    -0.110 NA
ATOM      2  C   UNL     1      -1.614  -4.527   3.986  0.00  0.00    +0.192 C 
ATOM      3  C   UNL     1      -2.892  -5.331   3.911  0.00  0.00    +0.237 C 
ATOM      4  N   UNL     1      -3.173  -6.278   5.002  0.00  0.00    -0.359 N 
ATOM      5  C   UNL     1      -2.312  -6.378   5.975  0.00  0.00    +0.063 A 
ATOM      6  C   UNL     1      -2.545  -7.310   7.089  0.00  0.00    +0.027 A 
ATOM      7  C   UNL     1      -1.630  -7.387   8.079  0.00  0.00    +0.002 A 
ATOM      8  C   UNL     1      -0.465  -6.601   8.071  0.00  0.00    +0.002 A 
ATOM      9  C   UNL     1      -0.182  -5.725   7.083  0.00  0.00    +0.030 A 
ATOM     10  C   UNL     1      -1.073  -5.562   5.992  0.00  0.00    +0.089 A 
ATOM     11  N   UNL     1      -0.790  -4.709   5.030  0.00  0.00    -0.226 NA
ATOM     12  H   UNL     1      -3.981  -6.815   4.997  0.00  0.00    +0.162 HD
ENDROOT
BRANCH   1  13
ATOM     13  S   UNL     1       0.092  -2.806   3.140  0.00  0.00    +0.101 S 
ATOM     14  O   UNL     1       1.155  -3.740   3.012  0.00  0.00    -0.146 OA
ATOM     15  O   UNL     1      -0.034  -1.945   4.264  0.00  0.00    -0.146 OA
BRANCH  13  21
ATOM     16  C   UNL     1       0.103   1.915   0.897  0.00  0.00    +0.044 C 
ATOM     17  C   UNL     1       0.157   0.417   0.742  0.00  0.00    -0.049 A 
ATOM     18  C   UNL     1       0.257  -0.145  -0.518  0.00  0.00    +0.004 A 
ATOM     19  C   UNL     1       0.307  -1.519  -0.660  0.00  0.00    +0.005 A 
ATOM     20  C   UNL     1       0.256  -2.332   0.457  0.00  0.00    -0.024 A 
ATOM     21  C   UNL     1       0.157  -1.770   1.716  0.00  0.00    +0.116 A 
ATOM     22  C   UNL     1       0.112  -0.396   1.859  0.00  0.00    +0.032 A 
ATOM     23  C   UNL     1       0.309  -3.830   0.302  0.00  0.00    +0.046 C 
ENDBRANCH  13  21
ENDBRANCH   1  13
BRANCH   3  24
ATOM     24  N   UNL     1      -4.011  -4.387   3.841  0.00  0.00    -0.315 N 
ATOM     25  H   UNL     1      -4.025  -3.607   4.418  0.00  0.00    +0.149 HD
BRANCH  24  26
ATOM     26  C   UNL     1      -5.061  -4.610   2.939  0.00  0.00    +0.073 A 
ATOM     27  C   UNL     1      -5.107  -5.786   2.205  0.00  0.00    +0.050 A 
ATOM     28  C   UNL     1      -6.143  -6.007   1.315  0.00  0.00    +0.084 A 
ATOM     29  C   UNL     1      -7.138  -5.052   1.156  0.00  0.00    +0.142 A 
ATOM     30  C   UNL     1      -7.095  -3.875   1.888  0.00  0.00    +0.094 A 
ATOM     31  C   UNL     1      -6.062  -3.655   2.784  0.00  0.00    +0.144 A 
ATOM     32 CL   UNL     1      -6.199  -7.479   0.397  0.00  0.00    -0.080 Cl
BRANCH  31  33
ATOM     33  O   UNL     1      -6.021  -2.503   3.506  0.00  0.00    -0.493 OA
ATOM     34  C   UNL     1      -7.081  -1.567   3.296  0.00  0.00    +0.277 C 
ENDBRANCH  31  33
BRANCH  29  35
ATOM     35  O   UNL     1      -8.156  -5.271   0.281  0.00  0.00    -0.494 OA
ATOM     36  C   UNL     1      -9.146  -4.247   0.168  0.00  0.00    +0.277 C 
ENDBRANCH  29  35
ENDBRANCH  24  26
ENDBRANCH   3  24
TORSDOF 6
