REMARK  Name = ZINC58952618
REMARK  9 active torsions:
REMARK  status: ('A' for Active; 'I' for Inactive)
REMARK    1  A    between atoms: C_1  and  C_2
REMARK    2  A    between atoms: C_6  and  C_18
REMARK    3  A    between atoms: N_8  and  C_9
REMARK    4  A    between atoms: C_14  and  N_15
REMARK    5  A    between atoms: N_20  and  C_21
REMARK    6  A    between atoms: C_21  and  C_22
REMARK    7  A    between atoms: C_27  and  C_28
REMARK    8  A    between atoms: C_28  and  N_29
REMARK    9  A    between atoms: C_34  and  C_36
REMARK                            x       y       z     vdW  Elec       q    Type
REMARK                         _______ _______ _______ _____ _____    ______ ____
ROOT
ATOM      1  C   UNL     1       0.320  -4.182   0.278  0.00  0.00    +0.268 C 
ATOM      2  O   UNL     1       0.243  -4.878  -0.716  0.00  0.00    -0.268 OA
ATOM      3  N   UNL     1       0.543  -4.748   1.481  0.00  0.00    -0.306 N 
ATOM      4  H   UNL     1       0.603  -4.193   2.274  0.00  0.00    +0.149 HD
ENDROOT
BRANCH   1  10
ATOM      5  C   UNL     1      -0.242   1.491   0.037  0.00  0.00    +0.066 C 
ATOM      6  C   UNL     1      -0.106  -0.010   0.015  0.00  0.00    +0.044 A 
ATOM      7  C   UNL     1      -0.211  -0.673  -1.161  0.00  0.00    +0.076 A 
ATOM      8  C   UNL     1      -0.076  -2.086  -1.139  0.00  0.00    +0.213 A 
ATOM      9  O   UNL     1      -0.158  -2.749  -2.161  0.00  0.00    -0.285 OA
ATOM     10  C   UNL     1       0.168  -2.718   0.168  0.00  0.00    +0.192 A 
ATOM     11  N   UNL     1       0.248  -1.953   1.236  0.00  0.00    -0.158 NA
ATOM     12  N   UNL     1       0.125  -0.678   1.172  0.00  0.00    -0.234 N 
BRANCH  12  13
ATOM     13  C   UNL     1       0.229   0.059   2.356  0.00  0.00    +0.096 A 
ATOM     14  C   UNL     1       1.446   0.621   2.722  0.00  0.00    +0.030 A 
ATOM     15  C   UNL     1       1.546   1.348   3.891  0.00  0.00    +0.002 A 
ATOM     16  C   UNL     1       0.435   1.518   4.698  0.00  0.00    +0.002 A 
ATOM     17  C   UNL     1      -0.778   0.961   4.337  0.00  0.00    +0.035 A 
ATOM     18  C   UNL     1      -0.885   0.237   3.166  0.00  0.00    +0.151 A 
BRANCH  18  19
ATOM     19  N   UNL     1      -2.185  -0.354   2.777  0.00  0.00    +0.059 N 
ATOM     20  O   UNL     1      -3.155  -0.200   3.482  0.00  0.00    -0.126 OA
ATOM     21  O   UNL     1      -2.278  -0.992   1.754  0.00  0.00    -0.126 OA
ENDBRANCH  18  19
ENDBRANCH  12  13
ENDBRANCH   1  10
BRANCH   3  22
ATOM     22  C   UNL     1       0.693  -6.201   1.591  0.00  0.00    +0.140 C 
BRANCH  22  23
ATOM     23  C   UNL     1       0.932  -6.574   3.031  0.00  0.00    -0.029 A 
ATOM     24  C   UNL     1       2.216  -6.832   3.474  0.00  0.00    +0.005 A 
ATOM     25  C   UNL     1       2.435  -7.174   4.796  0.00  0.00    +0.000 A 
ATOM     26  C   UNL     1       1.370  -7.258   5.674  0.00  0.00    +0.000 A 
ATOM     27  C   UNL     1       0.087  -6.999   5.230  0.00  0.00    +0.002 A 
ATOM     28  C   UNL     1      -0.132  -6.652   3.910  0.00  0.00    -0.059 A 
BRANCH  28  29
ATOM     29  C   UNL     1      -1.530  -6.365   3.428  0.00  0.00    -0.042 C 
BRANCH  29  30
ATOM     30  N   UNL     1      -2.062  -7.547   2.736  0.00  0.00    +0.384 N 
ATOM     31  C   UNL     1      -2.192  -8.654   3.691  0.00  0.00    -0.078 C 
ATOM     32  C   UNL     1      -2.668  -9.910   2.959  0.00  0.00    -0.019 C 
ATOM     33  C   UNL     1      -4.028  -9.632   2.311  0.00  0.00    -0.003 C 
ATOM     34  C   UNL     1      -3.898  -8.428   1.373  0.00  0.00    -0.016 C 
ATOM     35  C   UNL     1      -3.376  -7.227   2.163  0.00  0.00    -0.071 C 
ATOM     36  C   UNL     1      -3.244  -6.021   1.231  0.00  0.00    -0.013 C 
ATOM     37  H   UNL     1      -1.431  -7.815   1.996  0.00  0.00    -0.081 HD
ENDBRANCH  29  30
ENDBRANCH  28  29
ENDBRANCH  22  23
ENDBRANCH   3  22
TORSDOF 7
