REMARK  Name = ZINC15859183
REMARK  9 active torsions:
REMARK  status: ('A' for Active; 'I' for Inactive)
REMARK    1  A    between atoms: C_1  and  C_2
REMARK    2  A    between atoms: C_7  and  C_32
REMARK    3  A    between atoms: C_8  and  C_13
REMARK    4  A    between atoms: C_13  and  C_14
REMARK    5  A    between atoms: C_17  and  S_20
REMARK    6  A    between atoms: N_18  and  C_19
REMARK    7  A    between atoms: S_20  and  C_21
REMARK    8  A    between atoms: C_21  and  C_22
REMARK    9  A    between atoms: N_24  and  C_25
REMARK                            x       y       z     vdW  Elec       q    Type
REMARK                         _______ _______ _______ _____ _____    ______ ____
ROOT
ATOM      1  C   UNL     1       2.825   0.960  -0.998  0.00  0.00    +0.138 A 
ATOM      2  N   UNL     1       2.506   0.138  -1.958  0.00  0.00    -0.133 NA
ATOM      3  N   UNL     1       3.228   0.371  -2.995  0.00  0.00    -0.122 NA
ATOM      4  C   UNL     1       4.059   1.356  -2.748  0.00  0.00    +0.192 A 
ATOM      5  N   UNL     1       3.828   1.763  -1.466  0.00  0.00    -0.309 N 
ATOM      6  C   UNL     1       4.513   2.836  -0.741  0.00  0.00    +0.152 C 
ENDROOT
BRANCH   1   7
ATOM      7  C   UNL     1       2.207   1.012   0.376  0.00  0.00    +0.118 C 
BRANCH   7  15
ATOM      8  C   UNL     1      -1.428   7.392   0.281  0.00  0.00    +0.045 C 
ATOM      9  C   UNL     1      -1.437   5.885   0.254  0.00  0.00    -0.034 A 
ATOM     10  C   UNL     1      -2.654   5.194   0.174  0.00  0.00    +0.008 A 
ATOM     11  C   UNL     1      -2.653   3.832   0.150  0.00  0.00    +0.047 A 
ATOM     12  C   UNL     1      -1.429   3.140   0.207  0.00  0.00    +0.140 A 
ATOM     13  N   UNL     1      -1.426   1.808   0.179  0.00  0.00    -0.234 NA
ATOM     14  C   UNL     1      -0.296   1.121   0.236  0.00  0.00    +0.049 A 
ATOM     15  C   UNL     1       0.913   1.783   0.316  0.00  0.00    +0.046 A 
ATOM     16  C   UNL     1       0.918   3.183   0.341  0.00  0.00    +0.262 A 
ATOM     17  O   UNL     1       1.971   3.798   0.411  0.00  0.00    -0.267 OA
ATOM     18  N   UNL     1      -0.259   3.842   0.285  0.00  0.00    -0.268 N 
ATOM     19  C   UNL     1      -0.271   5.204   0.309  0.00  0.00    +0.099 A 
ATOM     20  C   UNL     1      -0.329  -0.386   0.207  0.00  0.00    +0.066 C 
ENDBRANCH   7  15
ENDBRANCH   1   7
BRANCH   4  21
ATOM     21  S   UNL     1       5.249   2.027  -3.862  0.00  0.00    -0.077 S 
BRANCH  21  22
ATOM     22  C   UNL     1       4.947   0.984  -5.310  0.00  0.00    +0.173 C 
BRANCH  22  23
ATOM     23  C   UNL     1       5.879   1.389  -6.423  0.00  0.00    +0.228 C 
ATOM     24  O   UNL     1       6.669   2.293  -6.254  0.00  0.00    -0.275 OA
ATOM     25  N   UNL     1       5.833   0.746  -7.607  0.00  0.00    -0.284 N 
ATOM     26  H   UNL     1       5.275  -0.041  -7.711  0.00  0.00    +0.155 HD
BRANCH  25  27
ATOM     27  C   UNL     1       6.592   1.213  -8.687  0.00  0.00    +0.052 A 
ATOM     28  C   UNL     1       7.782   1.891  -8.459  0.00  0.00    +0.025 A 
ATOM     29  C   UNL     1       8.532   2.345  -9.527  0.00  0.00    +0.002 A 
ATOM     30  C   UNL     1       8.092   2.136 -10.821  0.00  0.00    +0.002 A 
ATOM     31  C   UNL     1       6.905   1.467 -11.052  0.00  0.00    +0.022 A 
ATOM     32  C   UNL     1       6.153   1.004  -9.988  0.00  0.00    +0.062 A 
ATOM     33 CL   UNL     1       4.662   0.164 -10.278  0.00  0.00    -0.082 Cl
ENDBRANCH  25  27
ENDBRANCH  22  23
ENDBRANCH  21  22
ENDBRANCH   4  21
TORSDOF 6
