REMARK  Name = ZINC09056281
REMARK  10 active torsions:
REMARK  status: ('A' for Active; 'I' for Inactive)
REMARK    1  A    between atoms: C_1  and  C_2
REMARK    2  A    between atoms: C_7  and  N_8
REMARK    3  A    between atoms: C_9  and  C_36
REMARK    4  A    between atoms: C_12  and  S_13
REMARK    5  A    between atoms: S_13  and  C_14
REMARK    6  A    between atoms: C_14  and  C_15
REMARK    7  A    between atoms: C_18  and  C_31
REMARK    8  A    between atoms: C_21  and  C_23
REMARK    9  A    between atoms: C_26  and  O_29
REMARK   10  A    between atoms: O_29  and  C_30
REMARK                            x       y       z     vdW  Elec       q    Type
REMARK                         _______ _______ _______ _____ _____    ______ ____
ROOT
ATOM      1  C   UNL     1       3.505  -5.393  -6.098  0.00  0.00    +0.246 C 
ATOM      2  O   UNL     1       4.095  -5.596  -7.139  0.00  0.00    -0.273 OA
ATOM      3  N   UNL     1       3.265  -4.129  -5.696  0.00  0.00    -0.181 N 
ATOM      4  C   UNL     1       3.661  -2.910  -6.419  0.00  0.00    +0.173 C 
ATOM      5  C   UNL     1       3.135  -1.771  -5.523  0.00  0.00    +0.090 C 
ATOM      6  C   UNL     1       2.492  -2.491  -4.359  0.00  0.00    +0.069 C 
ATOM      7  N   UNL     1       2.600  -3.763  -4.527  0.00  0.00    -0.181 NA
ENDROOT
BRANCH   6   8
ATOM      8  C   UNL     1       1.837  -1.837  -3.212  0.00  0.00    -0.002 A 
ATOM      9  C   UNL     1       1.270  -2.609  -2.195  0.00  0.00    +0.013 A 
ATOM     10  C   UNL     1       0.659  -1.993  -1.124  0.00  0.00    +0.046 A 
ATOM     11  C   UNL     1       0.606  -0.607  -1.055  0.00  0.00    +0.120 A 
ATOM     12  C   UNL     1       1.162   0.165  -2.067  0.00  0.00    +0.046 A 
ATOM     13  C   UNL     1       1.780  -0.442  -3.139  0.00  0.00    +0.013 A 
BRANCH  11  14
ATOM     14  O   UNL     1       0.002  -0.004   0.002  0.00  0.00    -0.495 OA
ATOM     15  C   UNL     1      -0.017   1.425   0.010  0.00  0.00    +0.277 C 
ENDBRANCH  11  14
ENDBRANCH   6   8
BRANCH   4  16
ATOM     16  C   UNL     1       5.160  -2.839  -6.557  0.00  0.00    +0.128 A 
ATOM     17  C   UNL     1       5.830  -2.399  -7.637  0.00  0.00    +0.046 A 
ATOM     18  C   UNL     1       7.208  -2.506  -7.335  0.00  0.00    +0.041 A 
ATOM     19  C   UNL     1       7.296  -3.004  -6.089  0.00  0.00    +0.195 A 
ATOM     20  O   UNL     1       6.053  -3.199  -5.620  0.00  0.00    -0.466 OA
ENDBRANCH   4  16
BRANCH   1  21
ATOM     21  C   UNL     1       3.041  -6.553  -5.256  0.00  0.00    +0.175 C 
BRANCH  21  22
ATOM     22  S   UNL     1       3.510  -8.106  -6.058  0.00  0.00    -0.076 S 
BRANCH  22  27
ATOM     23  N   UNL     1       2.925 -10.623  -4.978  0.00  0.00    -0.274 N 
ATOM     24  C   UNL     1       2.296 -11.092  -3.856  0.00  0.00    +0.135 A 
ATOM     25  N   UNL     1       1.899 -10.056  -3.173  0.00  0.00    -0.133 NA
ATOM     26  N   UNL     1       2.236  -8.973  -3.776  0.00  0.00    -0.122 NA
ATOM     27  C   UNL     1       2.863  -9.259  -4.893  0.00  0.00    +0.197 A 
ATOM     28  C   UNL     1       2.099 -12.539  -3.480  0.00  0.00    +0.088 C 
BRANCH  23  35
ATOM     29  C   UNL     1       1.305 -11.377  -7.194  0.00  0.00    +0.046 C 
ATOM     30  C   UNL     1       2.756 -11.771  -7.099  0.00  0.00    -0.027 A 
ATOM     31  C   UNL     1       3.337 -12.519  -8.106  0.00  0.00    +0.005 A 
ATOM     32  C   UNL     1       4.668 -12.881  -8.019  0.00  0.00    +0.000 A 
ATOM     33  C   UNL     1       5.423 -12.496  -6.926  0.00  0.00    +0.002 A 
ATOM     34  C   UNL     1       4.850 -11.744  -5.920  0.00  0.00    +0.026 A 
ATOM     35  C   UNL     1       3.511 -11.383  -6.001  0.00  0.00    +0.053 A 
ENDBRANCH  23  35
ENDBRANCH  22  27
ENDBRANCH  21  22
ENDBRANCH   1  21
TORSDOF 7
