REMARK  Name = ZINC32604986
REMARK  3 active torsions:
REMARK  status: ('A' for Active; 'I' for Inactive)
REMARK    1  A    between atoms: C_4  and  N_22
REMARK    2  A    between atoms: C_6  and  N_7
REMARK    3  A    between atoms: C_8  and  C_10
REMARK                            x       y       z     vdW  Elec       q    Type
REMARK                         _______ _______ _______ _____ _____    ______ ____
ROOT
ATOM      1  N   UNL     1      -2.478  -0.367   0.011  0.00  0.00    -0.281 N 
ATOM      2  C   UNL     1      -2.507   0.980   0.021  0.00  0.00    +0.253 C 
ATOM      3  O   UNL     1      -3.574   1.565   0.038  0.00  0.00    -0.270 OA
ATOM      4  H   UNL     1      -1.518  -0.896  -0.081  0.00  0.00    +0.155 HD
ENDROOT
BRANCH   2   5
ATOM      5  C   UNL     1      -1.248   1.744   0.011  0.00  0.00    +0.100 A 
ATOM      6  C   UNL     1      -0.013   1.076  -0.008  0.00  0.00    +0.100 A 
ATOM      7  N   UNL     1       1.121   1.729  -0.023  0.00  0.00    -0.360 N 
ATOM      8  C   UNL     1       1.167   3.068  -0.015  0.00  0.00    +0.050 A 
ATOM      9  C   UNL     1       2.398   3.744  -0.031  0.00  0.00    +0.028 A 
ATOM     10  C   UNL     1       2.423   5.106  -0.023  0.00  0.00    +0.022 A 
ATOM     11  C   UNL     1       1.243   5.846   0.002  0.00  0.00    +0.042 A 
ATOM     12  C   UNL     1       0.030   5.224   0.018  0.00  0.00    +0.033 A 
ATOM     13  C   UNL     1      -0.031   3.822   0.011  0.00  0.00    +0.047 A 
ATOM     14  C   UNL     1      -1.270   3.143   0.027  0.00  0.00    +0.202 A 
ATOM     15  O   UNL     1      -2.439   3.824   0.051  0.00  0.00    -0.286 OA
ATOM     16 CL   UNL     1       1.318   7.581   0.012  0.00  0.00    -0.084 Cl
ATOM     17  H   UNL     1       2.073   1.178  -0.042  0.00  0.00    +0.165 HD
ENDBRANCH   2   5
BRANCH   1  23
ATOM     18  C   UNL     1      -3.688  -2.302   0.802  0.00  0.00    +0.025 A 
ATOM     19  C   UNL     1      -4.867  -3.014   0.912  0.00  0.00    +0.024 A 
ATOM     20  C   UNL     1      -6.025  -2.530   0.330  0.00  0.00    +0.071 A 
ATOM     21  C   UNL     1      -6.008  -1.329  -0.358  0.00  0.00    +0.146 A 
ATOM     22  C   UNL     1      -4.834  -0.611  -0.466  0.00  0.00    +0.057 A 
ATOM     23  C   UNL     1      -3.669  -1.094   0.118  0.00  0.00    +0.036 A 
ATOM     24 CL   UNL     1      -7.503  -3.431   0.463  0.00  0.00    -0.081 Cl
BRANCH  21  25
ATOM     25  N   UNL     1      -7.249  -0.815  -0.980  0.00  0.00    +0.058 N 
ATOM     26  O   UNL     1      -7.234   0.241  -1.585  0.00  0.00    -0.126 OA
ATOM     27  O   UNL     1      -8.285  -1.449  -0.886  0.00  0.00    -0.126 OA
ENDBRANCH  21  25
ENDBRANCH   1  23
TORSDOF 3
