REMARK  Name = ZINC10151751
REMARK  8 active torsions:
REMARK  status: ('A' for Active; 'I' for Inactive)
REMARK    1  A    between atoms: C_1  and  C_2
REMARK    2  A    between atoms: C_2  and  C_3
REMARK    3  A    between atoms: C_3  and  C_5
REMARK    4  A    between atoms: C_3  and  O_19
REMARK    5  A    between atoms: N_7  and  N_8
REMARK    6  A    between atoms: C_9  and  C_11
REMARK    7  A    between atoms: C_16  and  C_17
REMARK    8  A    between atoms: O_19  and  C_20
REMARK                            x       y       z     vdW  Elec       q    Type
REMARK                         _______ _______ _______ _____ _____    ______ ____
ROOT
ATOM      1  C   UNL     1      -0.432   0.889  -1.389  0.00  0.00    +0.270 C 
ATOM      2  O   UNL     1       0.646   1.409  -1.587  0.00  0.00    -0.270 OA
ATOM      3  N   UNL     1      -1.529   1.654  -1.226  0.00  0.00    -0.231 N 
ATOM      4  H   UNL     1      -2.392   1.237  -1.072  0.00  0.00    +0.173 HD
ENDROOT
BRANCH   3   5
ATOM      5  N   UNL     1      -1.425   3.050  -1.277  0.00  0.00    -0.230 N 
ATOM      6  C   UNL     1      -2.522   3.814  -1.113  0.00  0.00    +0.261 C 
ATOM      7  O   UNL     1      -3.603   3.293  -0.920  0.00  0.00    -0.269 OA
ATOM      8  H   UNL     1      -0.562   3.466  -1.431  0.00  0.00    +0.173 HD
BRANCH   6   9
ATOM      9  C   UNL     1      -2.412   5.289  -1.167  0.00  0.00    +0.052 A 
ATOM     10  C   UNL     1      -1.183   5.890  -1.424  0.00  0.00    +0.014 A 
ATOM     11  C   UNL     1      -1.085   7.267  -1.480  0.00  0.00    +0.001 A 
ATOM     12  C   UNL     1      -2.202   8.057  -1.270  0.00  0.00    +0.001 A 
ATOM     13  C   UNL     1      -3.429   7.479  -1.009  0.00  0.00    +0.016 A 
ATOM     14  C   UNL     1      -3.547   6.092  -0.955  0.00  0.00    +0.075 A 
BRANCH  14  15
ATOM     15  C   UNL     1      -4.858   5.468  -0.675  0.00  0.00    +0.387 C 
ATOM     16  O   UNL     1      -5.322   4.656  -1.450  0.00  0.00    -0.241 OA
ATOM     17  O   UNL     1      -5.538   5.800   0.440  0.00  0.00    -0.241 OA
ENDBRANCH  14  15
ENDBRANCH   6   9
ENDBRANCH   3   5
BRANCH   1  18
ATOM     18  C   UNL     1      -0.544  -0.613  -1.334  0.00  0.00    +0.260 C 
BRANCH  18  20
ATOM     19  C   UNL     1      -1.196  -2.553   0.099  0.00  0.00    +0.008 C 
ATOM     20  C   UNL     1      -0.961  -1.041   0.074  0.00  0.00    +0.051 C 
ENDBRANCH  18  20
BRANCH  18  21
ATOM     21  O   UNL     1       0.719  -1.197  -1.655  0.00  0.00    -0.480 OA
BRANCH  21  22
ATOM     22  C   UNL     1       0.701  -2.353  -2.371  0.00  0.00    +0.122 A 
ATOM     23  C   UNL     1       1.889  -2.998  -2.680  0.00  0.00    +0.047 A 
ATOM     24  C   UNL     1       1.867  -4.175  -3.402  0.00  0.00    +0.019 A 
ATOM     25  C   UNL     1       0.662  -4.705  -3.827  0.00  0.00    +0.018 A 
ATOM     26  C   UNL     1      -0.524  -4.060  -3.525  0.00  0.00    +0.019 A 
ATOM     27  C   UNL     1      -0.507  -2.886  -2.798  0.00  0.00    +0.047 A 
ATOM     28 BR   UNL     1       0.636  -6.314  -4.821  0.00  0.00    -0.050 Br
ENDBRANCH  21  22
ENDBRANCH  18  21
ENDBRANCH   1  18
TORSDOF 7
