REMARK  Name = ZINC49396063
REMARK  6 active torsions:
REMARK  status: ('A' for Active; 'I' for Inactive)
REMARK    1  A    between atoms: C_1  and  C_2
REMARK    2  A    between atoms: C_4  and  C_8
REMARK    3  A    between atoms: C_5  and  C_7
REMARK    4  A    between atoms: C_8  and  C_10
REMARK    5  A    between atoms: C_8  and  N_11
REMARK    6  A    between atoms: N_14  and  C_15
REMARK                            x       y       z     vdW  Elec       q    Type
REMARK                         _______ _______ _______ _____ _____    ______ ____
ROOT
ATOM      1  N   UNL     1      -2.756  -3.101  -0.579  0.00  0.00    -0.292 N 
ATOM      2  C   UNL     1      -3.473  -4.087  -1.153  0.00  0.00    +0.304 C 
ATOM      3  O   UNL     1      -3.029  -5.218  -1.192  0.00  0.00    -0.252 OA
ATOM      4  N   UNL     1      -4.682  -3.818  -1.684  0.00  0.00    -0.268 N 
ATOM      5  H   UNL     1      -3.110  -2.198  -0.548  0.00  0.00    +0.151 HD
ATOM      6  H   UNL     1      -5.066  -2.932  -1.593  0.00  0.00    +0.156 HD
ENDROOT
BRANCH   4   7
ATOM      7  C   UNL     1      -5.385  -4.819  -2.366  0.00  0.00    +0.053 A 
ATOM      8  C   UNL     1      -5.310  -6.146  -1.948  0.00  0.00    +0.028 A 
ATOM      9  C   UNL     1      -6.022  -7.100  -2.654  0.00  0.00    +0.042 A 
ATOM     10  C   UNL     1      -6.779  -6.708  -3.745  0.00  0.00    +0.129 A 
ATOM     11  N   UNL     1      -6.829  -5.443  -4.115  0.00  0.00    -0.242 NA
ATOM     12  C   UNL     1      -6.170  -4.503  -3.466  0.00  0.00    +0.135 A 
ATOM     13 CL   UNL     1      -7.676  -7.898  -4.637  0.00  0.00    -0.062 Cl
ENDBRANCH   4   7
BRANCH   1  14
ATOM     14  C   UNL     1      -1.441  -3.392  -0.001  0.00  0.00    +0.105 C 
ATOM     15  C   UNL     1      -1.615  -3.900   1.431  0.00  0.00    +0.033 C 
BRANCH  14  19
ATOM     16  C   UNL     1      -0.031   1.503   0.043  0.00  0.00    +0.086 C 
ATOM     17  C   UNL     1      -0.008  -0.004   0.028  0.00  0.00    +0.103 A 
ATOM     18  C   UNL     1      -1.087  -0.807   0.023  0.00  0.00    +0.050 A 
ATOM     19  C   UNL     1      -0.607  -2.137   0.009  0.00  0.00    +0.013 A 
ATOM     20  C   UNL     1       0.736  -2.067   0.005  0.00  0.00    +0.107 A 
ATOM     21  O   UNL     1       1.094  -0.772   0.012  0.00  0.00    -0.465 OA
ATOM     22  C   UNL     1       1.680  -3.242  -0.008  0.00  0.00    +0.086 C 
ENDBRANCH  14  19
ENDBRANCH   1  14
TORSDOF 3
