REMARK  Name = ZINC67392653
REMARK  10 active torsions:
REMARK  status: ('A' for Active; 'I' for Inactive)
REMARK    1  A    between atoms: C_1  and  C_2
REMARK    2  A    between atoms: N_7  and  C_9
REMARK    3  A    between atoms: C_9  and  C_10
REMARK    4  A    between atoms: C_9  and  C_11
REMARK    5  A    between atoms: C_9  and  C_12
REMARK    6  A    between atoms: C_12  and  N_13
REMARK    7  A    between atoms: C_14  and  C_16
REMARK    8  A    between atoms: C_22  and  C_24
REMARK    9  A    between atoms: C_24  and  C_25
REMARK   10  A    between atoms: C_24  and  C_26
REMARK                            x       y       z     vdW  Elec       q    Type
REMARK                         _______ _______ _______ _____ _____    ______ ____
ROOT
ATOM      1  N   UNL     1      -0.065  -4.403   2.277  0.00  0.00    -0.309 N 
ATOM      2  C   UNL     1      -0.407  -5.702   2.380  0.00  0.00    +0.299 C 
ATOM      3  O   UNL     1       0.431  -6.529   2.674  0.00  0.00    -0.265 OA
ATOM      4  H   UNL     1      -0.734  -3.742   2.042  0.00  0.00    +0.149 HD
ENDROOT
BRANCH   2   5
ATOM      5  C   UNL     1      -1.818  -6.124   2.133  0.00  0.00    +0.305 C 
ATOM      6  O   UNL     1      -2.656  -5.297   1.839  0.00  0.00    -0.265 OA
ATOM      7  N   UNL     1      -2.161  -7.423   2.237  0.00  0.00    -0.255 N 
ATOM      8  C   UNL     1      -3.473  -7.815   2.007  0.00  0.00    +0.188 A 
ATOM      9  N   UNL     1      -4.534  -7.093   1.673  0.00  0.00    -0.126 NA
ATOM     10  N   UNL     1      -5.668  -7.616   1.501  0.00  0.00    -0.144 NA
ATOM     11  C   UNL     1      -5.872  -8.912   1.641  0.00  0.00    +0.106 A 
ATOM     12  S   UNL     1      -4.216  -9.443   2.069  0.00  0.00    -0.035 S 
ATOM     13  H   UNL     1      -1.491  -8.084   2.472  0.00  0.00    +0.157 HD
BRANCH  11  14
ATOM     14  C   UNL     1      -7.136  -9.716   1.481  0.00  0.00    +0.040 C 
ATOM     15  C   UNL     1      -8.189  -9.214   2.471  0.00  0.00    +0.014 C 
ATOM     16  C   UNL     1      -7.663  -9.559   0.053  0.00  0.00    +0.014 C 
ENDBRANCH  11  14
ENDBRANCH   2   5
BRANCH   1  17
ATOM     17  C   UNL     1       1.320  -3.989   2.519  0.00  0.00    +0.092 C 
BRANCH  17  18
ATOM     18  C   UNL     1       1.467  -2.497   2.214  0.00  0.00    -0.055 C 
ATOM     19  C   UNL     1       2.930  -2.083   2.387  0.00  0.00    -0.008 C 
ATOM     20  C   UNL     1       0.591  -1.691   3.175  0.00  0.00    -0.008 C 
BRANCH  18  26
ATOM     21  C   UNL     1       0.868   0.971  -1.189  0.00  0.00    +0.005 C 
ATOM     22  C   UNL     1       0.694  -0.517  -0.879  0.00  0.00    -0.031 C 
ATOM     23  C   UNL     1       1.493  -1.346  -1.889  0.00  0.00    -0.001 C 
ATOM     24  C   UNL     1       1.376  -2.829  -1.523  0.00  0.00    -0.018 C 
ATOM     25  C   UNL     1       1.865  -3.035  -0.088  0.00  0.00    -0.078 C 
ATOM     26  N   UNL     1       1.045  -2.236   0.831  0.00  0.00    +0.384 N 
ATOM     27  C   UNL     1       1.207  -0.808   0.533  0.00  0.00    -0.075 C 
ATOM     28  H   UNL     1       0.075  -2.493   0.724  0.00  0.00    -0.081 HD
ENDBRANCH  18  26
ENDBRANCH  17  18
ENDBRANCH   1  17
TORSDOF 5
