REMARK  Name = ZINC44699124
REMARK  10 active torsions:
REMARK  status: ('A' for Active; 'I' for Inactive)
REMARK    1  A    between atoms: C_1  and  C_2
REMARK    2  A    between atoms: C_2  and  C_4
REMARK    3  A    between atoms: C_2  and  O_7
REMARK    4  A    between atoms: O_7  and  C_8
REMARK    5  A    between atoms: C_10  and  N_38
REMARK    6  A    between atoms: C_12  and  O_30
REMARK    7  A    between atoms: C_20  and  C_24
REMARK    8  A    between atoms: O_30  and  C_31
REMARK    9  A    between atoms: C_31  and  C_32
REMARK   10  A    between atoms: C_39  and  C_41
REMARK                            x       y       z     vdW  Elec       q    Type
REMARK                         _______ _______ _______ _____ _____    ______ ____
ROOT
ATOM      1  C   UNL     1      -0.258  -0.758  -2.291  0.00  0.00    +0.176 C 
ATOM      2  C   UNL     1      -0.725  -2.205  -2.108  0.00  0.00    +0.160 C 
ATOM      3  C   UNL     1      -1.591  -2.606  -3.306  0.00  0.00    +0.274 C 
ATOM      4  O   UNL     1      -0.834  -2.450  -4.508  0.00  0.00    -0.341 OA
ATOM      5  C   UNL     1      -0.397  -1.115  -4.759  0.00  0.00    +0.178 C 
ATOM      6  C   UNL     1       0.501  -0.635  -3.615  0.00  0.00    +0.183 C 
ATOM      7  O   UNL     1       0.833   0.741  -3.835  0.00  0.00    -0.339 OA
ATOM      8  C   UNL     1      -0.309   1.597  -3.924  0.00  0.00    +0.282 C 
ATOM      9  O   UNL     1      -1.150   1.165  -4.996  0.00  0.00    -0.345 OA
ATOM     10  C   UNL     1      -1.609  -0.184  -4.862  0.00  0.00    +0.197 C 
ENDROOT
BRANCH   8  11
ATOM     11  C   UNL     1       0.144   3.012  -4.181  0.00  0.00    +0.008 A 
ATOM     12  C   UNL     1       1.492   3.295  -4.298  0.00  0.00    +0.008 A 
ATOM     13  C   UNL     1       1.907   4.593  -4.533  0.00  0.00    +0.000 A 
ATOM     14  C   UNL     1       0.975   5.606  -4.652  0.00  0.00    +0.000 A 
ATOM     15  C   UNL     1      -0.373   5.322  -4.536  0.00  0.00    +0.000 A 
ATOM     16  C   UNL     1      -0.789   4.024  -4.305  0.00  0.00    +0.008 A 
ENDBRANCH   8  11
BRANCH   2  17
ATOM     17  N   UNL     1      -1.509  -2.315  -0.876  0.00  0.00    -0.305 N 
ATOM     18  C   UNL     1      -1.558  -3.486  -0.210  0.00  0.00    +0.210 C 
ATOM     19  O   UNL     1      -0.953  -4.449  -0.632  0.00  0.00    -0.276 OA
ATOM     20  C   UNL     1      -2.365  -3.600   1.057  0.00  0.00    +0.109 C 
ATOM     21  H   UNL     1      -1.994  -1.545  -0.538  0.00  0.00    +0.149 HD
ENDBRANCH   2  17
BRANCH   1  22
ATOM     22  O   UNL     1       0.604  -0.394  -1.210  0.00  0.00    -0.358 OA
BRANCH  22  24
ATOM     23  C   UNL     1       0.202   1.801  -0.283  0.00  0.00    +0.050 C 
ATOM     24  C   UNL     1      -0.055   0.299  -0.149  0.00  0.00    +0.228 C 
BRANCH  24  25
ATOM     25  C   UNL     1       0.478  -0.185   1.175  0.00  0.00    +0.384 C 
ATOM     26  O   UNL     1      -0.018   0.214   2.215  0.00  0.00    -0.243 OA
ATOM     27  O   UNL     1       1.404  -0.977   1.206  0.00  0.00    -0.243 OA
ENDBRANCH  24  25
ENDBRANCH  22  24
ENDBRANCH   1  22
BRANCH   3  28
ATOM     28  O   UNL     1      -2.749  -1.771  -3.358  0.00  0.00    -0.345 OA
BRANCH  28  29
ATOM     29  C   UNL     1      -3.734  -2.203  -4.299  0.00  0.00    +0.198 C 
BRANCH  29  30
ATOM     30  C   UNL     1      -4.905  -1.255  -4.270  0.00  0.00    -0.022 A 
ATOM     31  C   UNL     1      -5.959  -1.483  -3.404  0.00  0.00    +0.006 A 
ATOM     32  C   UNL     1      -7.033  -0.614  -3.378  0.00  0.00    +0.000 A 
ATOM     33  C   UNL     1      -7.054   0.484  -4.217  0.00  0.00    +0.000 A 
ATOM     34  C   UNL     1      -6.000   0.714  -5.082  0.00  0.00    +0.000 A 
ATOM     35  C   UNL     1      -4.924  -0.154  -5.106  0.00  0.00    +0.006 A 
ENDBRANCH  29  30
ENDBRANCH  28  29
ENDBRANCH   3  28
TORSDOF 8
