REMARK  Name = ZINC05986303
REMARK  7 active torsions:
REMARK  status: ('A' for Active; 'I' for Inactive)
REMARK    1  A    between atoms: C_1  and  O_2
REMARK    2  A    between atoms: O_2  and  C_3
REMARK    3  A    between atoms: C_6  and  N_21
REMARK    4  A    between atoms: C_8  and  N_9
REMARK    5  A    between atoms: N_9  and  C_10
REMARK    6  A    between atoms: C_10  and  N_12
REMARK    7  A    between atoms: C_13  and  C_15
REMARK                            x       y       z     vdW  Elec       q    Type
REMARK                         _______ _______ _______ _____ _____    ______ ____
ROOT
ATOM      1  N   UNL     1       2.323   0.998  -0.015  0.00  0.00    -0.294 N 
ATOM      2  H   UNL     1       2.220   0.261   0.608  0.00  0.00    +0.154 HD
ENDROOT
BRANCH   1   8
ATOM      3  C   UNL     1       4.734   0.939  -0.224  0.00  0.00    +0.141 A 
ATOM      4  C   UNL     1       5.945   1.605  -0.322  0.00  0.00    +0.050 A 
ATOM      5  C   UNL     1       5.977   2.987  -0.309  0.00  0.00    +0.036 A 
ATOM      6  C   UNL     1       4.803   3.709  -0.199  0.00  0.00    +0.128 A 
ATOM      7  C   UNL     1       3.591   3.052  -0.106  0.00  0.00    +0.059 A 
ATOM      8  C   UNL     1       3.551   1.665  -0.113  0.00  0.00    +0.077 A 
BRANCH   6   9
ATOM      9  N   UNL     1       4.844   5.188  -0.186  0.00  0.00    +0.056 N 
ATOM     10  O   UNL     1       5.912   5.768  -0.273  0.00  0.00    -0.126 OA
ATOM     11  O   UNL     1       3.811   5.825  -0.090  0.00  0.00    -0.126 OA
ENDBRANCH   6   9
BRANCH   3  13
ATOM     12  C   UNL     1       5.953  -1.099  -0.353  0.00  0.00    +0.277 C 
ATOM     13  O   UNL     1       4.701  -0.420  -0.236  0.00  0.00    -0.493 OA
ENDBRANCH   3  13
ENDBRANCH   1   8
BRANCH   1  14
ATOM     14  C   UNL     1       1.285   1.379  -0.785  0.00  0.00    +0.141 C 
ATOM     15  S   UNL     1       1.431   2.748  -1.802  0.00  0.00    -0.018 S 
BRANCH  14  16
ATOM     16  N   UNL     1       0.131   0.683  -0.754  0.00  0.00    -0.261 N 
ATOM     17  C   UNL     1      -0.905   1.061  -1.528  0.00  0.00    +0.285 C 
ATOM     18  O   UNL     1      -0.801   2.034  -2.251  0.00  0.00    -0.266 OA
ATOM     19  H   UNL     1       0.048  -0.093  -0.178  0.00  0.00    +0.157 HD
BRANCH  17  20
ATOM     20  C   UNL     1      -2.156   0.301  -1.499  0.00  0.00    +0.191 A 
ATOM     21  C   UNL     1      -3.279   0.574  -2.229  0.00  0.00    +0.056 A 
ATOM     22  C   UNL     1      -4.228  -0.402  -1.891  0.00  0.00    +0.058 A 
ATOM     23  C   UNL     1      -3.651  -1.220  -0.980  0.00  0.00    +0.171 A 
ATOM     24  O   UNL     1      -2.401  -0.796  -0.751  0.00  0.00    -0.444 OA
ATOM     25 BR   UNL     1      -4.471  -2.718  -0.170  0.00  0.00    -0.008 Br
ENDBRANCH  17  20
ENDBRANCH  14  16
ENDBRANCH   1  14
TORSDOF 6
