REMARK  Name = ZINC59474738
REMARK  5 active torsions:
REMARK  status: ('A' for Active; 'I' for Inactive)
REMARK    1  A    between atoms: C_6  and  N_7
REMARK    2  A    between atoms: C_9  and  C_14
REMARK    3  A    between atoms: N_16  and  N_17
REMARK    4  A    between atoms: C_18  and  C_19
REMARK    5  A    between atoms: C_24  and  O_25
REMARK                            x       y       z     vdW  Elec       q    Type
REMARK                         _______ _______ _______ _____ _____    ______ ____
ROOT
ATOM      1  C   UNL     1      -3.283  -3.688  -0.408  0.00  0.00    +0.237 C 
ATOM      2  O   UNL     1      -2.627  -4.194  -1.295  0.00  0.00    -0.274 OA
ATOM      3  N   UNL     1      -4.519  -4.150  -0.136  0.00  0.00    -0.207 N 
ATOM      4  H   UNL     1      -5.043  -3.745   0.573  0.00  0.00    +0.177 HD
ENDROOT
BRANCH   1   7
ATOM      5  N   UNL     1      -1.200  -0.722   0.010  0.00  0.00    -0.271 N 
ATOM      6  C   UNL     1      -1.293  -2.182  -0.097  0.00  0.00    +0.127 C 
ATOM      7  C   UNL     1      -2.715  -2.541   0.388  0.00  0.00    +0.103 C 
ATOM      8  C   UNL     1      -3.486  -1.232   0.101  0.00  0.00    +0.110 C 
ATOM      9  C   UNL     1      -2.417  -0.162   0.122  0.00  0.00    +0.221 C 
ATOM     10  O   UNL     1      -2.627   1.029   0.224  0.00  0.00    -0.275 OA
BRANCH   5  16
ATOM     11  C   UNL     1      -0.017   1.384  -0.005  0.00  0.00    +0.025 A 
ATOM     12  C   UNL     1       1.170   2.090  -0.012  0.00  0.00    +0.022 A 
ATOM     13  C   UNL     1       2.378   1.414  -0.013  0.00  0.00    +0.041 A 
ATOM     14  C   UNL     1       2.400   0.031  -0.007  0.00  0.00    +0.022 A 
ATOM     15  C   UNL     1       1.215  -0.679   0.001  0.00  0.00    +0.025 A 
ATOM     16  C   UNL     1       0.002  -0.004   0.002  0.00  0.00    +0.036 A 
ATOM     17 CL   UNL     1       3.869   2.304  -0.024  0.00  0.00    -0.084 Cl
ENDBRANCH   5  16
ENDBRANCH   1   7
BRANCH   3  18
ATOM     18  N   UNL     1      -5.047  -5.216  -0.876  0.00  0.00    -0.188 NA
ATOM     19  C   UNL     1      -6.237  -5.662  -0.614  0.00  0.00    +0.142 C 
BRANCH  19  20
ATOM     20  C   UNL     1      -6.793  -6.783  -1.393  0.00  0.00    +0.037 A 
ATOM     21  C   UNL     1      -8.076  -7.262  -1.118  0.00  0.00    +0.028 A 
ATOM     22  C   UNL     1      -8.590  -8.312  -1.851  0.00  0.00    +0.019 A 
ATOM     23  C   UNL     1      -7.838  -8.893  -2.859  0.00  0.00    +0.019 A 
ATOM     24  C   UNL     1      -6.567  -8.428  -3.140  0.00  0.00    +0.047 A 
ATOM     25  C   UNL     1      -6.039  -7.371  -2.417  0.00  0.00    +0.126 A 
ATOM     26 BR   UNL     1     -10.327  -8.959  -1.478  0.00  0.00    -0.050 Br
BRANCH  25  27
ATOM     27  O   UNL     1      -4.792  -6.910  -2.697  0.00  0.00    -0.506 OA
ATOM     28  H   UNL     1      -4.090  -7.349  -2.198  0.00  0.00    +0.292 HD
ENDBRANCH  25  27
ENDBRANCH  19  20
ENDBRANCH   3  18
TORSDOF 5
