REMARK  Name = ZINC39615152
REMARK  8 active torsions:
REMARK  status: ('A' for Active; 'I' for Inactive)
REMARK    1  A    between atoms: C_1  and  C_2
REMARK    2  A    between atoms: C_5  and  C_8
REMARK    3  A    between atoms: C_11  and  C_14
REMARK    4  A    between atoms: C_19  and  C_21
REMARK    5  A    between atoms: C_21  and  O_22
REMARK    6  A    between atoms: O_22  and  C_23
REMARK    7  A    between atoms: C_23  and  C_25
REMARK    8  A    between atoms: C_31  and  C_33
REMARK                            x       y       z     vdW  Elec       q    Type
REMARK                         _______ _______ _______ _____ _____    ______ ____
ROOT
ATOM      1  C   UNL     1       0.058  -4.248  -0.021  0.00  0.00    +0.069 C 
ATOM      2  N   UNL     1       0.068  -4.985  -1.077  0.00  0.00    -0.181 NA
ATOM      3  N   UNL     1       0.086  -6.354  -0.816  0.00  0.00    -0.179 N 
ATOM      4  C   UNL     1       0.088  -6.560   0.641  0.00  0.00    +0.173 C 
ATOM      5  C   UNL     1       0.076  -5.127   1.209  0.00  0.00    +0.090 C 
ATOM      6  C   UNL     1       0.098  -7.329  -1.746  0.00  0.00    +0.273 C 
ATOM      7  O   UNL     1       0.113  -8.493  -1.404  0.00  0.00    -0.270 OA
ENDROOT
BRANCH   1  12
ATOM      8  C   UNL     1      -0.018   1.503   0.010  0.00  0.00    +0.044 C 
ATOM      9  C   UNL     1       0.002  -0.004   0.002  0.00  0.00    -0.050 A 
ATOM     10  C   UNL     1       0.006  -0.686  -1.202  0.00  0.00    +0.004 A 
ATOM     11  C   UNL     1       0.024  -2.065  -1.217  0.00  0.00    +0.010 A 
ATOM     12  C   UNL     1       0.039  -2.773  -0.013  0.00  0.00    -0.002 A 
ATOM     13  C   UNL     1       0.036  -2.078   1.198  0.00  0.00    +0.010 A 
ATOM     14  C   UNL     1       0.023  -0.699   1.198  0.00  0.00    +0.004 A 
ENDBRANCH   1  12
BRANCH   4  15
ATOM     15  C   UNL     1       1.335  -7.289   1.071  0.00  0.00    +0.128 A 
ATOM     16  C   UNL     1       1.402  -8.240   2.020  0.00  0.00    +0.046 A 
ATOM     17  C   UNL     1       2.754  -8.646   2.097  0.00  0.00    +0.041 A 
ATOM     18  C   UNL     1       3.432  -7.918   1.192  0.00  0.00    +0.195 A 
ATOM     19  O   UNL     1       2.566  -7.102   0.569  0.00  0.00    -0.466 OA
ENDBRANCH   4  15
BRANCH   6  20
ATOM     20  C   UNL     1       0.095  -6.974  -3.211  0.00  0.00    +0.329 C 
BRANCH  20  21
ATOM     21  O   UNL     1       0.110  -8.171  -3.991  0.00  0.00    -0.454 OA
BRANCH  21  22
ATOM     22  C   UNL     1       0.109  -8.029  -5.326  0.00  0.00    +0.328 C 
ATOM     23  O   UNL     1       0.095  -6.924  -5.815  0.00  0.00    -0.249 OA
BRANCH  22  24
ATOM     24  C   UNL     1       0.125  -9.246  -6.214  0.00  0.00    +0.185 C 
ATOM     25  C   UNL     1      -1.298  -9.832  -6.326  0.00  0.00    +0.035 C 
ATOM     26  C   UNL     1      -1.375 -10.276  -7.811  0.00  0.00    +0.021 C 
ATOM     27  C   UNL     1      -0.545  -9.171  -8.509  0.00  0.00    +0.109 C 
ATOM     28  N   UNL     1       0.554  -8.871  -7.569  0.00  0.00    -0.284 N 
ATOM     29  C   UNL     1       1.750  -8.342  -7.895  0.00  0.00    +0.254 C 
ATOM     30  O   UNL     1       2.582  -8.137  -7.031  0.00  0.00    -0.269 OA
BRANCH  29  31
ATOM     31  C   UNL     1       2.049  -8.014  -9.292  0.00  0.00    +0.074 A 
ATOM     32  C   UNL     1       3.206  -7.474  -9.835  0.00  0.00    +0.021 A 
ATOM     33  C   UNL     1       3.191  -7.275 -11.195  0.00  0.00    +0.008 A 
ATOM     34  C   UNL     1       2.080  -7.609 -11.897  0.00  0.00    +0.046 A 
ATOM     35  S   UNL     1       1.024  -8.210 -10.737  0.00  0.00    -0.092 S 
ENDBRANCH  29  31
ENDBRANCH  22  24
ENDBRANCH  21  22
ENDBRANCH  20  21
ENDBRANCH   6  20
TORSDOF 7
