REMARK  Name = ZINC13382219
REMARK  5 active torsions:
REMARK  status: ('A' for Active; 'I' for Inactive)
REMARK    1  A    between atoms: C_8  and  N_11
REMARK    2  A    between atoms: N_11  and  N_12
REMARK    3  A    between atoms: C_13  and  C_15
REMARK    4  A    between atoms: C_16  and  C_26
REMARK    5  A    between atoms: C_26  and  N_27
REMARK                            x       y       z     vdW  Elec       q    Type
REMARK                         _______ _______ _______ _____ _____    ______ ____
ROOT
ATOM      1  C   UNL     1      -3.100  -3.804   0.427  0.00  0.00    +0.170 A 
ATOM      2  C   UNL     1      -4.054  -4.769   0.579  0.00  0.00    +0.063 A 
ATOM      3  N   UNL     1      -5.252  -4.146   0.533  0.00  0.00    -0.194 N 
ATOM      4  N   UNL     1      -4.990  -2.780   0.349  0.00  0.00    -0.058 NA
ATOM      5  N   UNL     1      -3.715  -2.615   0.297  0.00  0.00    -0.124 NA
ATOM      6  C   UNL     1      -6.511  -4.746   0.648  0.00  0.00    +0.240 A 
ATOM      7  C   UNL     1      -7.802  -4.066   0.509  0.00  0.00    +0.206 A 
ATOM      8  N   UNL     1      -8.750  -4.946   0.679  0.00  0.00    -0.032 NA
ATOM      9  O   UNL     1      -8.138  -6.199   0.928  0.00  0.00    -0.239 OA
ATOM     10  N   UNL     1      -6.735  -6.006   0.890  0.00  0.00    -0.027 NA
ATOM     11  N   UNL     1      -7.985  -2.713   0.243  0.00  0.00    -0.337 N 
ATOM     12  H   UNL     1      -7.216  -2.132   0.132  0.00  0.00    +0.144 HD
ATOM     13  H   UNL     1      -8.881  -2.351   0.169  0.00  0.00    +0.144 HD
ENDROOT
BRANCH   1  15
ATOM     14  N   UNL     1      -0.800  -2.976   0.358  0.00  0.00    -0.231 N 
ATOM     15  C   UNL     1      -1.642  -4.027   0.413  0.00  0.00    +0.282 C 
ATOM     16  O   UNL     1      -1.200  -5.159   0.452  0.00  0.00    -0.267 OA
ATOM     17  H   UNL     1      -1.153  -2.073   0.327  0.00  0.00    +0.173 HD
BRANCH  14  18
ATOM     18  N   UNL     1       0.585  -3.188   0.345  0.00  0.00    -0.259 N 
ATOM     19  H   UNL     1       0.937  -4.091   0.307  0.00  0.00    +0.170 HD
BRANCH  18  27
ATOM     20  C   UNL     1      -0.132   1.298   0.199  0.00  0.00    +0.001 A 
ATOM     21  C   UNL     1       1.059   2.002   0.273  0.00  0.00    +0.002 A 
ATOM     22  C   UNL     1       2.271   1.339   0.377  0.00  0.00    +0.024 A 
ATOM     23  C   UNL     1       2.307  -0.052   0.409  0.00  0.00    +0.043 A 
ATOM     24  N   UNL     1       3.347  -0.930   0.503  0.00  0.00    -0.280 N 
ATOM     25  C   UNL     1       2.920  -2.180   0.497  0.00  0.00    +0.264 C 
ATOM     26  O   UNL     1       3.614  -3.177   0.569  0.00  0.00    -0.268 OA
ATOM     27  C   UNL     1       1.420  -2.147   0.386  0.00  0.00    +0.116 C 
ATOM     28  C   UNL     1       1.086  -0.771   0.333  0.00  0.00    +0.024 A 
ATOM     29  C   UNL     1      -0.129  -0.083   0.229  0.00  0.00    +0.012 A 
ATOM     30  H   UNL     1       4.279  -0.670   0.567  0.00  0.00    +0.155 HD
ENDBRANCH  18  27
ENDBRANCH  14  18
ENDBRANCH   1  15
BRANCH   2  31
ATOM     31  C   UNL     1      -3.817  -6.246   0.764  0.00  0.00    -0.020 C 
BRANCH  31  32
ATOM     32  N   UNL     1      -3.501  -6.519   2.172  0.00  0.00    +0.383 N 
ATOM     33  C   UNL     1      -4.703  -6.304   3.017  0.00  0.00    -0.078 C 
ATOM     34  C   UNL     1      -4.398  -7.140   4.286  0.00  0.00    -0.020 C 
ATOM     35  C   UNL     1      -3.680  -8.384   3.717  0.00  0.00    -0.020 C 
ATOM     36  C   UNL     1      -3.135  -7.942   2.346  0.00  0.00    -0.078 C 
ATOM     37  H   UNL     1      -2.746  -5.926   2.481  0.00  0.00    -0.081 HD
ENDBRANCH  31  32
ENDBRANCH   2  31
TORSDOF 5
