REMARK  Name = ZINC66641837
REMARK  8 active torsions:
REMARK  status: ('A' for Active; 'I' for Inactive)
REMARK    1  A    between atoms: C_1  and  C_2
REMARK    2  A    between atoms: C_2  and  N_3
REMARK    3  A    between atoms: C_7  and  C_10
REMARK    4  A    between atoms: C_10  and  N_11
REMARK    5  A    between atoms: C_12  and  C_14
REMARK    6  A    between atoms: C_14  and  N_15
REMARK    7  A    between atoms: N_18  and  C_19
REMARK    8  A    between atoms: C_19  and  C_20
REMARK                            x       y       z     vdW  Elec       q    Type
REMARK                         _______ _______ _______ _____ _____    ______ ____
ROOT
ATOM      1  C   UNL     1      -5.755  -6.358   0.876  0.00  0.00    +0.201 C 
ENDROOT
BRANCH   1   2
ATOM      2  N   UNL     1      -5.732  -7.819   0.987  0.00  0.00    -0.291 N 
ATOM      3  C   UNL     1      -6.880  -8.498   1.179  0.00  0.00    +0.300 C 
ATOM      4  O   UNL     1      -7.935  -7.898   1.260  0.00  0.00    -0.253 OA
ATOM      5  N   UNL     1      -6.859  -9.842   1.280  0.00  0.00    -0.295 N 
ATOM      6  H   UNL     1      -4.891  -8.297   0.922  0.00  0.00    +0.151 HD
ATOM      7  H   UNL     1      -6.018 -10.320   1.215  0.00  0.00    +0.151 HD
BRANCH   5   8
ATOM      8  C   UNL     1      -8.107 -10.580   1.489  0.00  0.00    +0.141 C 
BRANCH   8   9
ATOM      9  C   UNL     1      -7.811 -12.055   1.567  0.00  0.00    -0.030 A 
ATOM     10  C   UNL     1      -7.814 -12.823   0.417  0.00  0.00    +0.006 A 
ATOM     11  C   UNL     1      -7.542 -14.176   0.489  0.00  0.00    +0.020 A 
ATOM     12  C   UNL     1      -7.267 -14.763   1.711  0.00  0.00    +0.041 A 
ATOM     13  C   UNL     1      -7.265 -13.994   2.862  0.00  0.00    +0.020 A 
ATOM     14  C   UNL     1      -7.531 -12.640   2.788  0.00  0.00    +0.006 A 
ATOM     15 CL   UNL     1      -6.927 -16.462   1.802  0.00  0.00    -0.084 Cl
ENDBRANCH   8   9
ENDBRANCH   5   8
ENDBRANCH   1   2
BRANCH   1  17
ATOM     16  N   UNL     1      -4.128  -4.526   0.537  0.00  0.00    -0.314 N 
ATOM     17  C   UNL     1      -4.352  -5.848   0.667  0.00  0.00    +0.230 C 
ATOM     18  O   UNL     1      -3.425  -6.628   0.615  0.00  0.00    -0.274 OA
ATOM     19  H   UNL     1      -4.870  -3.902   0.579  0.00  0.00    +0.149 HD
BRANCH  16  20
ATOM     20  C   UNL     1      -2.765  -4.030   0.333  0.00  0.00    +0.106 C 
BRANCH  20  25
ATOM     21  N   UNL     1      -1.376  -0.512   0.012  0.00  0.00    +0.380 N 
ATOM     22  C   UNL     1      -2.051  -0.118  -1.230  0.00  0.00    -0.079 C 
ATOM     23  C   UNL     1      -3.511  -0.575  -1.189  0.00  0.00    -0.018 C 
ATOM     24  C   UNL     1      -3.559  -2.099  -1.042  0.00  0.00    +0.001 C 
ATOM     25  C   UNL     1      -2.788  -2.505   0.218  0.00  0.00    -0.011 C 
ATOM     26  C   UNL     1      -1.355  -1.976   0.125  0.00  0.00    -0.074 C 
ATOM     27  H   UNL     1      -1.871  -0.123   0.800  0.00  0.00    -0.082 HD
BRANCH  21  29
ATOM     28  C   UNL     1      -0.019   1.526   0.010  0.00  0.00    -0.017 C 
ATOM     29  C   UNL     1       0.002  -0.004   0.002  0.00  0.00    -0.082 C 
ENDBRANCH  21  29
ENDBRANCH  20  25
ENDBRANCH  16  20
ENDBRANCH   1  17
TORSDOF 7
