REMARK  Name = ZINC39918146
REMARK  5 active torsions:
REMARK  status: ('A' for Active; 'I' for Inactive)
REMARK    1  A    between atoms: C_1  and  C_2
REMARK    2  A    between atoms: C_7  and  N_8
REMARK    3  A    between atoms: C_10  and  C_15
REMARK    4  A    between atoms: N_17  and  C_18
REMARK    5  A    between atoms: C_23  and  O_24
REMARK                            x       y       z     vdW  Elec       q    Type
REMARK                         _______ _______ _______ _____ _____    ______ ____
ROOT
ATOM      1  N   UNL     1       0.002  -0.042   2.426  0.00  0.00    -0.270 N 
ATOM      2  C   UNL     1      -1.204   0.357   3.161  0.00  0.00    +0.127 C 
ATOM      3  C   UNL     1      -0.725   0.685   4.592  0.00  0.00    +0.102 C 
ATOM      4  C   UNL     1       0.754   1.065   4.350  0.00  0.00    +0.110 C 
ATOM      5  C   UNL     1       1.116   0.343   3.071  0.00  0.00    +0.221 C 
ATOM      6  O   UNL     1       2.248   0.143   2.683  0.00  0.00    -0.275 OA
ENDROOT
BRANCH   1  13
ATOM      7  C   UNL     1      -0.037   1.464   0.012  0.00  0.00    +0.045 C 
ATOM      8  C   UNL     1      -0.026  -0.043   0.011  0.00  0.00    -0.029 A 
ATOM      9  C   UNL     1      -0.029  -0.734  -1.186  0.00  0.00    +0.005 A 
ATOM     10  C   UNL     1      -0.020  -2.116  -1.187  0.00  0.00    +0.000 A 
ATOM     11  C   UNL     1      -0.006  -2.812   0.008  0.00  0.00    +0.002 A 
ATOM     12  C   UNL     1      -0.003  -2.128   1.207  0.00  0.00    +0.024 A 
ATOM     13  C   UNL     1      -0.007  -0.739   1.212  0.00  0.00    +0.039 A 
ENDBRANCH   1  13
BRANCH   3  14
ATOM     14  C   UNL     1      -1.494   1.847   5.165  0.00  0.00    +0.222 C 
ATOM     15  O   UNL     1      -2.359   2.386   4.507  0.00  0.00    -0.275 OA
ATOM     16  N   UNL     1      -1.222   2.288   6.410  0.00  0.00    -0.282 N 
ATOM     17  H   UNL     1      -0.577   1.817   6.960  0.00  0.00    +0.155 HD
BRANCH  16  18
ATOM     18  C   UNL     1      -1.871   3.425   6.908  0.00  0.00    +0.075 A 
ATOM     19  C   UNL     1      -3.186   3.687   6.553  0.00  0.00    +0.027 A 
ATOM     20  C   UNL     1      -3.824   4.809   7.046  0.00  0.00    +0.002 A 
ATOM     21  C   UNL     1      -3.155   5.674   7.893  0.00  0.00    +0.004 A 
ATOM     22  C   UNL     1      -1.844   5.420   8.250  0.00  0.00    +0.047 A 
ATOM     23  C   UNL     1      -1.199   4.293   7.765  0.00  0.00    +0.138 A 
BRANCH  23  24
ATOM     24  O   UNL     1       0.089   4.039   8.120  0.00  0.00    -0.505 OA
ATOM     25  H   UNL     1       0.745   4.431   7.529  0.00  0.00    +0.292 HD
ENDBRANCH  23  24
ENDBRANCH  16  18
ENDBRANCH   3  14
TORSDOF 4
