REMARK  Name = ZINC00246643
REMARK  3 active torsions:
REMARK  status: ('A' for Active; 'I' for Inactive)
REMARK    1  A    between atoms: C_7  and  C_11
REMARK    2  A    between atoms: N_12  and  N_13
REMARK    3  A    between atoms: C_14  and  C_16
REMARK                            x       y       z     vdW  Elec       q    Type
REMARK                         _______ _______ _______ _____ _____    ______ ____
ROOT
ATOM      1  C   UNL     1       0.693  -3.256  -0.022  0.00  0.00    +0.140 C 
ATOM      2  N   UNL     1      -0.593  -3.070  -0.007  0.00  0.00    -0.187 NA
ENDROOT
BRANCH   1   9
ATOM      3  C   UNL     1      -0.017   1.373   0.010  0.00  0.00    +0.001 A 
ATOM      4  C   UNL     1       1.172   2.090   0.002  0.00  0.00    +0.002 A 
ATOM      5  C   UNL     1       2.385   1.438  -0.013  0.00  0.00    +0.026 A 
ATOM      6  C   UNL     1       2.425   0.047  -0.021  0.00  0.00    +0.047 A 
ATOM      7  C   UNL     1       1.222  -0.677  -0.013  0.00  0.00    +0.008 A 
ATOM      8  C   UNL     1       0.002  -0.004   0.002  0.00  0.00    +0.010 A 
ATOM      9  C   UNL     1       1.604  -2.101  -0.025  0.00  0.00    +0.020 A 
ATOM     10  C   UNL     1       2.964  -2.137  -0.039  0.00  0.00    +0.093 A 
ATOM     11  N   UNL     1       3.458  -0.867  -0.037  0.00  0.00    -0.360 N 
ATOM     12  H   UNL     1       4.401  -0.638  -0.045  0.00  0.00    +0.165 HD
ENDBRANCH   1   9
BRANCH   2  13
ATOM     13  N   UNL     1      -1.460  -4.170  -0.004  0.00  0.00    -0.203 N 
ATOM     14  C   UNL     1      -2.794  -3.976   0.011  0.00  0.00    +0.270 C 
ATOM     15  O   UNL     1      -3.245  -2.845   0.021  0.00  0.00    -0.268 OA
ATOM     16  H   UNL     1      -1.101  -5.071  -0.013  0.00  0.00    +0.178 HD
BRANCH  14  17
ATOM     17  C   UNL     1      -3.702  -5.127   0.014  0.00  0.00    +0.075 A 
ATOM     18  C   UNL     1      -5.088  -5.147   0.022  0.00  0.00    +0.021 A 
ATOM     19  C   UNL     1      -5.668  -6.393   0.023  0.00  0.00    +0.008 A 
ATOM     20  C   UNL     1      -4.871  -7.490   0.016  0.00  0.00    +0.046 A 
ATOM     21  S   UNL     1      -3.311  -6.866  -0.001  0.00  0.00    -0.092 S 
ENDBRANCH  14  17
ENDBRANCH   2  13
TORSDOF 3
