REMARK  Name = ZINC01276454
REMARK  4 active torsions:
REMARK  status: ('A' for Active; 'I' for Inactive)
REMARK    1  A    between atoms: C_1  and  C_2
REMARK    2  A    between atoms: C_2  and  C_3
REMARK    3  A    between atoms: C_3  and  C_4
REMARK    4  A    between atoms: C_12  and  C_18
REMARK                            x       y       z     vdW  Elec       q    Type
REMARK                         _______ _______ _______ _____ _____    ______ ____
ROOT
ATOM      1  C   UNL     1       0.739  -2.004  -1.265  0.00  0.00    +0.219 C 
ATOM      2  O   UNL     1       0.230  -2.623  -0.354  0.00  0.00    -0.275 OA
ATOM      3  N   UNL     1       1.322  -2.665  -2.285  0.00  0.00    -0.253 N 
ATOM      4  C   UNL     1       1.341  -4.063  -2.293  0.00  0.00    +0.242 A 
ATOM      5  N   UNL     1       0.809  -4.854  -1.349  0.00  0.00    -0.180 NA
ATOM      6  C   UNL     1       1.004  -6.104  -1.667  0.00  0.00    +0.222 A 
ATOM      7  N   UNL     1       1.676  -6.137  -2.845  0.00  0.00    -0.223 N 
ATOM      8  N   UNL     1       1.877  -4.814  -3.229  0.00  0.00    -0.131 NA
ATOM      9  C   UNL     1       2.063  -7.381  -3.509  0.00  0.00    +0.149 C 
ATOM     10  C   UNL     1       1.046  -8.467  -3.148  0.00  0.00    +0.128 C 
ATOM     11  C   UNL     1       0.711  -8.432  -1.683  0.00  0.00    +0.222 C 
ATOM     12  O   UNL     1       0.501  -9.474  -1.099  0.00  0.00    -0.275 OA
ATOM     13  N   UNL     1       0.637  -7.267  -1.001  0.00  0.00    -0.255 N 
ATOM     14  H   UNL     1       1.728  -2.170  -3.014  0.00  0.00    +0.158 HD
ATOM     15  H   UNL     1       0.340  -7.244  -0.078  0.00  0.00    +0.158 HD
ENDROOT
BRANCH   9  16
ATOM     16  C   UNL     1       3.436  -7.794  -3.046  0.00  0.00    -0.022 A 
ATOM     17  C   UNL     1       3.666  -8.053  -1.708  0.00  0.00    +0.007 A 
ATOM     18  C   UNL     1       4.925  -8.432  -1.283  0.00  0.00    +0.020 A 
ATOM     19  C   UNL     1       5.956  -8.553  -2.197  0.00  0.00    +0.041 A 
ATOM     20  C   UNL     1       5.726  -8.294  -3.537  0.00  0.00    +0.020 A 
ATOM     21  C   UNL     1       4.465  -7.921  -3.962  0.00  0.00    +0.007 A 
ATOM     22 CL   UNL     1       7.538  -9.029  -1.664  0.00  0.00    -0.084 Cl
ENDBRANCH   9  16
BRANCH   1  23
ATOM     23  C   UNL     1       0.718  -0.497  -1.257  0.00  0.00    +0.096 C 
BRANCH  23  25
ATOM     24  C   UNL     1      -0.019   1.526   0.010  0.00  0.00    +0.004 C 
ATOM     25  C   UNL     1       0.002  -0.004   0.002  0.00  0.00    +0.006 C 
ENDBRANCH  23  25
ENDBRANCH   1  23
TORSDOF 3
