REMARK  Name = ZINC44772208
REMARK  6 active torsions:
REMARK  status: ('A' for Active; 'I' for Inactive)
REMARK    1  A    between atoms: C_4  and  N_10
REMARK    2  A    between atoms: C_6  and  N_7
REMARK    3  A    between atoms: C_11  and  C_13
REMARK    4  A    between atoms: C_13  and  O_14
REMARK    5  A    between atoms: O_14  and  C_15
REMARK    6  A    between atoms: C_20  and  C_21
REMARK                            x       y       z     vdW  Elec       q    Type
REMARK                         _______ _______ _______ _____ _____    ______ ____
ROOT
ATOM      1  N   UNL     1       3.622  -0.653  -0.037  0.00  0.00    -0.281 N 
ATOM      2  C   UNL     1       3.644  -1.998   0.058  0.00  0.00    +0.255 C 
ATOM      3  O   UNL     1       2.605  -2.622   0.065  0.00  0.00    -0.272 OA
ATOM      4  H   UNL     1       4.452  -0.159  -0.123  0.00  0.00    +0.155 HD
ENDROOT
BRANCH   1   8
ATOM      5  C   UNL     1      -0.015   1.380   0.043  0.00  0.00    +0.034 A 
ATOM      6  C   UNL     1       1.083   1.955  -0.572  0.00  0.00    +0.024 A 
ATOM      7  C   UNL     1       2.290   1.284  -0.600  0.00  0.00    +0.062 A 
ATOM      8  C   UNL     1       2.400   0.030  -0.010  0.00  0.00    +0.054 A 
ATOM      9  C   UNL     1       1.296  -0.543   0.606  0.00  0.00    +0.057 A 
ATOM     10  C   UNL     1       0.092   0.134   0.631  0.00  0.00    +0.128 A 
ATOM     11 CL   UNL     1       3.668   2.005  -1.372  0.00  0.00    -0.082 Cl
BRANCH  10  12
ATOM     12  N   UNL     1      -1.086  -0.477   1.287  0.00  0.00    +0.056 N 
ATOM     13  O   UNL     1      -2.140   0.114   1.310  0.00  0.00    -0.126 OA
ATOM     14  O   UNL     1      -0.993  -1.567   1.802  0.00  0.00    -0.126 OA
ENDBRANCH  10  12
ENDBRANCH   1   8
BRANCH   2  15
ATOM     15  C   UNL     1       4.961  -2.724   0.154  0.00  0.00    +0.324 C 
BRANCH  15  16
ATOM     16  O   UNL     1       4.723  -4.130   0.244  0.00  0.00    -0.482 OA
BRANCH  16  17
ATOM     17  C   UNL     1       5.812  -4.934   0.338  0.00  0.00    +0.131 A 
ATOM     18  C   UNL     1       7.085  -4.384   0.350  0.00  0.00    +0.048 A 
ATOM     19  C   UNL     1       8.192  -5.203   0.445  0.00  0.00    +0.023 A 
ATOM     20  C   UNL     1       8.043  -6.579   0.531  0.00  0.00    +0.042 A 
ATOM     21  C   UNL     1       6.787  -7.145   0.521  0.00  0.00    +0.034 A 
ATOM     22  C   UNL     1       5.655  -6.327   0.429  0.00  0.00    +0.057 A 
ATOM     23 CL   UNL     1       9.447  -7.594   0.650  0.00  0.00    -0.084 Cl
BRANCH  22  24
ATOM     24  C   UNL     1       4.312  -6.921   0.423  0.00  0.00    +0.262 C 
ATOM     25  O   UNL     1       4.182  -8.124   0.503  0.00  0.00    -0.296 OA
ENDBRANCH  22  24
ENDBRANCH  16  17
ENDBRANCH  15  16
ENDBRANCH   2  15
TORSDOF 6
