REMARK  Name = ZINC12279708
REMARK  8 active torsions:
REMARK  status: ('A' for Active; 'I' for Inactive)
REMARK    1  A    between atoms: C_3  and  C_6
REMARK    2  A    between atoms: N_8  and  C_9
REMARK    3  A    between atoms: N_8  and  C_18
REMARK    4  A    between atoms: C_9  and  C_10
REMARK    5  A    between atoms: C_10  and  C_11
REMARK    6  A    between atoms: C_18  and  C_19
REMARK    7  A    between atoms: C_27  and  N_28
REMARK    8  A    between atoms: C_31  and  O_34
REMARK                            x       y       z     vdW  Elec       q    Type
REMARK                         _______ _______ _______ _____ _____    ______ ____
ROOT
ATOM      1  C   UNL     1      -0.709   1.630  -1.226  0.00  0.00    +0.008 A 
ATOM      2  C   UNL     1      -1.268   0.746  -2.100  0.00  0.00    +0.018 A 
ATOM      3  C   UNL     1      -1.766   1.241  -3.322  0.00  0.00    -0.001 A 
ATOM      4  C   UNL     1      -2.355   0.386  -4.268  0.00  0.00    +0.011 A 
ATOM      5  C   UNL     1      -2.824   0.898  -5.439  0.00  0.00    +0.021 A 
ATOM      6  C   UNL     1      -2.730   2.262  -5.711  0.00  0.00    +0.043 A 
ATOM      7  C   UNL     1      -2.165   3.119  -4.815  0.00  0.00    +0.046 A 
ATOM      8  C   UNL     1      -1.668   2.627  -3.597  0.00  0.00    +0.049 A 
ATOM      9  C   UNL     1      -0.647   2.991  -1.553  0.00  0.00    +0.104 A 
ATOM     10 CL   UNL     1      -3.341   2.878  -7.215  0.00  0.00    -0.083 Cl
ATOM     11  N   UNL     1      -1.104   3.522  -2.715  0.00  0.00    -0.343 N 
ATOM     12  H   UNL     1      -1.034   4.525  -2.923  0.00  0.00    +0.167 HD
ENDROOT
BRANCH   9  13
ATOM     13  N   UNL     1      -0.080   3.879  -0.651  0.00  0.00    -0.316 N 
ATOM     14  C   UNL     1       1.357   4.040  -0.903  0.00  0.00    +0.109 C 
ATOM     15  C   UNL     1       1.975   4.909   0.195  0.00  0.00    +0.050 C 
ATOM     16  C   UNL     1       1.284   6.275   0.208  0.00  0.00    +0.118 C 
ATOM     17  C   UNL     1      -0.219   6.076   0.424  0.00  0.00    +0.050 C 
ATOM     18  C   UNL     1      -0.773   5.174  -0.681  0.00  0.00    +0.109 C 
BRANCH  16  19
ATOM     19  O   UNL     1       1.818   7.070   1.268  0.00  0.00    -0.392 OA
ATOM     20  H   UNL     1       2.779   7.173   1.238  0.00  0.00    +0.210 HD
ENDBRANCH  16  19
ENDBRANCH   9  13
BRANCH   1  21
ATOM     21  C   UNL     1      -0.164   1.144   0.093  0.00  0.00    +0.146 C 
BRANCH  21  24
ATOM     22  C   UNL     1      -1.653  -0.671   0.744  0.00  0.00    +0.282 C 
ATOM     23  O   UNL     1      -1.864  -1.849   0.967  0.00  0.00    -0.267 OA
ATOM     24  N   UNL     1      -0.462  -0.282   0.249  0.00  0.00    -0.290 N 
BRANCH  22  27
ATOM     25  C   UNL     1      -4.577   1.311   1.664  0.00  0.00    +0.042 A 
ATOM     26  C   UNL     1      -3.902   0.082   1.606  0.00  0.00    +0.054 A 
ATOM     27  C   UNL     1      -2.696   0.324   1.014  0.00  0.00    +0.189 A 
ATOM     28  O   UNL     1      -2.629   1.640   0.726  0.00  0.00    -0.458 OA
ATOM     29  C   UNL     1      -3.764   2.238   1.112  0.00  0.00    +0.196 A 
ENDBRANCH  22  27
BRANCH  24  30
ATOM     30  C   UNL     1       0.536  -1.284  -0.133  0.00  0.00    +0.113 C 
BRANCH  30  31
ATOM     31  C   UNL     1       1.427  -1.601   1.069  0.00  0.00    +0.054 C 
BRANCH  31  32
ATOM     32  C   UNL     1       2.454  -2.632   0.676  0.00  0.00    -0.046 A 
ATOM     33  C   UNL     1       2.175  -3.977   0.829  0.00  0.00    +0.006 A 
ATOM     34  C   UNL     1       3.113  -4.924   0.465  0.00  0.00    +0.038 A 
ATOM     35  C   UNL     1       4.337  -4.524  -0.044  0.00  0.00    +0.123 A 
ATOM     36  C   UNL     1       4.618  -3.176  -0.191  0.00  0.00    +0.038 A 
ATOM     37  C   UNL     1       3.676  -2.232   0.169  0.00  0.00    +0.006 A 
ATOM     38  F   UNL     1       5.257  -5.449  -0.396  0.00  0.00    -0.205 F 
ENDBRANCH  31  32
ENDBRANCH  30  31
ENDBRANCH  24  30
ENDBRANCH  21  24
ENDBRANCH   1  21
TORSDOF 8
