REMARK  Name = ZINC05902417
REMARK  8 active torsions:
REMARK  status: ('A' for Active; 'I' for Inactive)
REMARK    1  A    between atoms: C_1  and  C_2
REMARK    2  A    between atoms: C_3  and  C_28
REMARK    3  A    between atoms: C_11  and  C_13
REMARK    4  A    between atoms: C_13  and  C_15
REMARK    5  A    between atoms: C_13  and  S_16
REMARK    6  A    between atoms: S_16  and  C_17
REMARK    7  A    between atoms: C_19  and  C_27
REMARK    8  A    between atoms: C_20  and  C_26
REMARK                            x       y       z     vdW  Elec       q    Type
REMARK                         _______ _______ _______ _____ _____    ______ ____
ROOT
ATOM      1  C   UNL     1       2.998   5.793  -0.930  0.00  0.00    +0.116 C 
ATOM      2  C   UNL     1       2.287   6.438   0.262  0.00  0.00    +0.027 C 
ENDROOT
BRANCH   1  13
ATOM      3  C   UNL     1       8.394   9.402  -2.604  0.00  0.00    +0.045 C 
ATOM      4  C   UNL     1       8.070   8.274  -1.658  0.00  0.00    -0.026 A 
ATOM      5  C   UNL     1       9.026   7.749  -0.875  0.00  0.00    -0.008 A 
ATOM      6  S   UNL     1       8.164   6.480   0.034  0.00  0.00    -0.073 S 
ATOM      7  C   UNL     1       6.546   6.693  -0.664  0.00  0.00    +0.116 A 
ATOM      8  C   UNL     1       6.722   7.743  -1.584  0.00  0.00    +0.075 A 
ATOM      9  C   UNL     1       5.550   8.134  -2.309  0.00  0.00    +0.260 A 
ATOM     10  O   UNL     1       5.600   9.034  -3.129  0.00  0.00    -0.267 OA
ATOM     11  N   UNL     1       4.393   7.486  -2.075  0.00  0.00    -0.309 N 
ATOM     12  H   UNL     1       3.573   7.748  -2.585  0.00  0.00    +0.170 HD
ATOM     13  C   UNL     1       4.317   6.484  -1.162  0.00  0.00    +0.124 A 
ATOM     14  N   UNL     1       5.367   6.105  -0.485  0.00  0.00    -0.225 NA
ATOM     15  C   UNL     1      10.479   8.138  -0.786  0.00  0.00    +0.052 C 
ENDBRANCH   1  13
BRANCH   1  16
ATOM     16  S   UNL     1       3.288   4.040  -0.584  0.00  0.00    -0.094 S 
BRANCH  16  17
ATOM     17  C   UNL     1       1.624   3.464  -0.507  0.00  0.00    +0.109 A 
ATOM     18  C   UNL     1       1.348   2.093  -0.247  0.00  0.00    +0.043 A 
ATOM     19  C   UNL     1       2.262   0.989  -0.014  0.00  0.00    -0.029 A 
ATOM     20  C   UNL     1       1.766  -0.236   0.213  0.00  0.00    -0.008 A 
ATOM     21  S   UNL     1       0.001   0.008   0.128  0.00  0.00    -0.074 S 
ATOM     22  C   UNL     1      -0.021   1.748  -0.209  0.00  0.00    +0.113 A 
ATOM     23  N   UNL     1      -0.963   2.651  -0.399  0.00  0.00    -0.228 NA
ATOM     24  C   UNL     1      -0.644   3.908  -0.641  0.00  0.00    +0.223 A 
ATOM     25  N   UNL     1       0.616   4.302  -0.691  0.00  0.00    -0.229 NA
ATOM     26  C   UNL     1       2.519  -1.514   0.477  0.00  0.00    +0.052 C 
ATOM     27  C   UNL     1       3.752   1.217  -0.028  0.00  0.00    +0.045 C 
ENDBRANCH  16  17
ENDBRANCH   1  16
TORSDOF 3
