REMARK  Name = ZINC46624676
REMARK  9 active torsions:
REMARK  status: ('A' for Active; 'I' for Inactive)
REMARK    1  A    between atoms: C_1  and  C_2
REMARK    2  A    between atoms: C_5  and  N_30
REMARK    3  A    between atoms: C_7  and  S_8
REMARK    4  A    between atoms: S_8  and  N_11
REMARK    5  A    between atoms: C_14  and  C_17
REMARK    6  A    between atoms: N_19  and  C_20
REMARK    7  A    between atoms: C_20  and  C_21
REMARK    8  A    between atoms: N_27  and  C_28
REMARK    9  A    between atoms: N_27  and  C_29
REMARK                            x       y       z     vdW  Elec       q    Type
REMARK                         _______ _______ _______ _____ _____    ______ ____
ROOT
ATOM      1  N   UNL     1       1.449   1.014   2.807  0.00  0.00    -0.177 NA
ATOM      2  C   UNL     1       2.647   0.405   3.400  0.00  0.00    +0.110 C 
ATOM      3  C   UNL     1       3.187   1.338   4.488  0.00  0.00    +0.030 C 
ATOM      4  C   UNL     1       3.418   2.729   3.893  0.00  0.00    +0.077 C 
ATOM      5  C   UNL     1       2.090   3.296   3.386  0.00  0.00    +0.030 C 
ATOM      6  C   UNL     1       1.539   2.383   2.281  0.00  0.00    +0.110 C 
ENDROOT
BRANCH   4   7
ATOM      7  C   UNL     1       3.982   3.640   4.953  0.00  0.00    +0.216 C 
ATOM      8  O   UNL     1       4.179   3.219   6.073  0.00  0.00    -0.276 OA
ATOM      9  N   UNL     1       4.266   4.924   4.655  0.00  0.00    -0.311 N 
ATOM     10  H   UNL     1       4.109   5.261   3.760  0.00  0.00    +0.149 HD
BRANCH   9  11
ATOM     11  C   UNL     1       4.814   5.810   5.685  0.00  0.00    +0.139 C 
BRANCH  11  12
ATOM     12  C   UNL     1       5.042   7.180   5.100  0.00  0.00    -0.026 A 
ATOM     13  C   UNL     1       6.254   7.505   4.504  0.00  0.00    +0.023 A 
ATOM     14  C   UNL     1       6.430   8.768   3.977  0.00  0.00    +0.084 A 
ATOM     15  N   UNL     1       5.465   9.666   4.032  0.00  0.00    -0.350 N 
ATOM     16  C   UNL     1       4.296   9.395   4.592  0.00  0.00    +0.098 A 
ATOM     17  C   UNL     1       4.047   8.140   5.138  0.00  0.00    +0.047 A 
ATOM     18  N   UNL     1       3.307  10.371   4.629  0.00  0.00    -0.323 N 
ATOM     19  C   UNL     1       3.560  11.693   4.051  0.00  0.00    +0.130 C 
ATOM     20  C   UNL     1       2.011  10.078   5.247  0.00  0.00    +0.130 C 
ATOM     21  H   UNL     1       5.615  10.547   3.654  0.00  0.00    +0.166 HD
ENDBRANCH  11  12
ENDBRANCH   9  11
ENDBRANCH   4   7
BRANCH   1  22
ATOM     22  S   UNL     1       0.025   0.171   2.726  0.00  0.00    +0.061 S 
ATOM     23  O   UNL     1      -1.014   1.137   2.645  0.00  0.00    -0.153 OA
ATOM     24  O   UNL     1       0.076  -0.810   3.753  0.00  0.00    -0.153 OA
BRANCH  22  31
ATOM     25  C   UNL     1      -0.018   1.503   0.010  0.00  0.00    +0.046 C 
ATOM     26  C   UNL     1       0.002  -0.004   0.002  0.00  0.00    -0.024 A 
ATOM     27  C   UNL     1       0.006  -0.689  -1.199  0.00  0.00    +0.007 A 
ATOM     28  C   UNL     1       0.025  -2.071  -1.207  0.00  0.00    +0.033 A 
ATOM     29  C   UNL     1       0.040  -2.768  -0.013  0.00  0.00    +0.128 A 
ATOM     30  C   UNL     1       0.037  -2.084   1.188  0.00  0.00    +0.061 A 
ATOM     31  C   UNL     1       0.023  -0.702   1.195  0.00  0.00    +0.111 A 
BRANCH  29  32
ATOM     32  N   UNL     1       0.059  -4.248  -0.021  0.00  0.00    +0.056 N 
ATOM     33  O   UNL     1       0.061  -4.847  -1.072  0.00  0.00    -0.126 OA
ATOM     34  O   UNL     1       0.073  -4.859   1.022  0.00  0.00    -0.126 OA
ENDBRANCH  29  32
ENDBRANCH  22  31
ENDBRANCH   1  22
TORSDOF 6
