REMARK  Name = ZINC37057065
REMARK  4 active torsions:
REMARK  status: ('A' for Active; 'I' for Inactive)
REMARK    1  A    between atoms: C_1  and  C_2
REMARK    2  A    between atoms: C_7  and  N_8
REMARK    3  A    between atoms: N_8  and  C_9
REMARK    4  A    between atoms: C_9  and  C_10
REMARK                            x       y       z     vdW  Elec       q    Type
REMARK                         _______ _______ _______ _____ _____    ______ ____
ROOT
ATOM      1  C   UNL     1       0.045   0.214   4.831  0.00  0.00    +0.034 A 
ATOM      2  C   UNL     1      -1.125   0.550   5.428  0.00  0.00    +0.020 A 
ATOM      3  C   UNL     1      -1.093   1.496   6.546  0.00  0.00    -0.001 A 
ATOM      4  C   UNL     1      -2.267   1.881   7.202  0.00  0.00    +0.010 A 
ATOM      5  C   UNL     1      -2.203   2.765   8.241  0.00  0.00    +0.001 A 
ATOM      6  C   UNL     1      -0.983   3.285   8.652  0.00  0.00    +0.002 A 
ATOM      7  C   UNL     1       0.186   2.920   8.020  0.00  0.00    +0.026 A 
ATOM      8  C   UNL     1       0.146   2.021   6.960  0.00  0.00    +0.049 A 
ATOM      9  N   UNL     1       1.300   1.638   6.310  0.00  0.00    -0.322 N 
ATOM     10  C   UNL     1       1.261   0.765   5.289  0.00  0.00    +0.254 A 
ATOM     11  O   UNL     1       2.302   0.445   4.741  0.00  0.00    -0.268 OA
ATOM     12  H   UNL     1       2.152   2.001   6.597  0.00  0.00    +0.169 HD
ENDROOT
BRANCH   1  13
ATOM     13  C   UNL     1       0.047  -0.757   3.679  0.00  0.00    +0.142 C 
BRANCH  13  14
ATOM     14  N   UNL     1       0.025  -0.016   2.415  0.00  0.00    -0.339 N 
ATOM     15  H   UNL     1       0.012   0.954   2.422  0.00  0.00    +0.146 HD
BRANCH  14  22
ATOM     16  C   UNL     1      -0.018   1.503   0.010  0.00  0.00    +0.045 C 
ATOM     17  C   UNL     1       0.002  -0.004   0.002  0.00  0.00    -0.029 A 
ATOM     18  C   UNL     1       0.006  -0.689  -1.198  0.00  0.00    +0.019 A 
ATOM     19  C   UNL     1       0.024  -2.072  -1.206  0.00  0.00    +0.014 A 
ATOM     20  C   UNL     1       0.039  -2.774  -0.014  0.00  0.00    +0.016 A 
ATOM     21  C   UNL     1       0.035  -2.095   1.189  0.00  0.00    +0.024 A 
ATOM     22  C   UNL     1       0.023  -0.706   1.200  0.00  0.00    +0.030 A 
ATOM     23  I   UNL     1       0.030  -3.106  -3.028  0.00  0.00    -0.044 I 
ENDBRANCH  14  22
ENDBRANCH  13  14
ENDBRANCH   1  13
TORSDOF 3
