REMARK  Name = ZINC08762145
REMARK  7 active torsions:
REMARK  status: ('A' for Active; 'I' for Inactive)
REMARK    1  A    between atoms: C_4  and  C_7
REMARK    2  A    between atoms: N_15  and  C_18
REMARK    3  A    between atoms: C_18  and  C_19
REMARK    4  A    between atoms: C_19  and  N_20
REMARK    5  A    between atoms: N_20  and  C_21
REMARK    6  A    between atoms: C_24  and  C_26
REMARK    7  A    between atoms: N_32  and  C_33
REMARK                            x       y       z     vdW  Elec       q    Type
REMARK                         _______ _______ _______ _____ _____    ______ ____
ROOT
ATOM      1  C   UNL     1      -2.388   1.767   0.951  0.00  0.00    +0.157 C 
ATOM      2  C   UNL     1      -1.324   1.890  -0.132  0.00  0.00    +0.145 C 
ATOM      3  C   UNL     1      -0.459   3.031   0.521  0.00  0.00    +0.249 C 
ATOM      4  C   UNL     1       0.815   2.876  -0.144  0.00  0.00    +0.254 C 
ATOM      5  O   UNL     1       1.618   3.747  -0.402  0.00  0.00    -0.272 OA
ATOM      6  N   UNL     1       0.926   1.539  -0.420  0.00  0.00    -0.238 N 
ATOM      7  C   UNL     1      -0.242   0.859  -0.235  0.00  0.00    +0.230 C 
ATOM      8  O   UNL     1      -0.379  -0.344  -0.171  0.00  0.00    -0.275 OA
ATOM      9  O   UNL     1      -1.379   3.954   0.916  0.00  0.00    -0.257 OA
ATOM     10  N   UNL     1      -2.465   3.138   1.544  0.00  0.00    -0.244 N 
ENDROOT
BRANCH   1  14
ATOM     11  C   UNL     1      -1.194  -1.076   3.907  0.00  0.00    +0.000 A 
ATOM     12  C   UNL     1      -0.779   0.238   4.005  0.00  0.00    +0.000 A 
ATOM     13  C   UNL     1      -1.165   1.159   3.049  0.00  0.00    +0.006 A 
ATOM     14  C   UNL     1      -1.967   0.764   1.994  0.00  0.00    -0.022 A 
ATOM     15  C   UNL     1      -2.386  -0.550   1.898  0.00  0.00    +0.006 A 
ATOM     16  C   UNL     1      -1.996  -1.471   2.853  0.00  0.00    +0.000 A 
ENDBRANCH   1  14
BRANCH  10  17
ATOM     17  C   UNL     1      -3.718   3.711   1.318  0.00  0.00    +0.065 A 
ATOM     18  C   UNL     1      -4.212   3.818   0.024  0.00  0.00    +0.028 A 
ATOM     19  C   UNL     1      -5.453   4.381  -0.196  0.00  0.00    +0.002 A 
ATOM     20  C   UNL     1      -6.200   4.849   0.870  0.00  0.00    +0.000 A 
ATOM     21  C   UNL     1      -5.710   4.749   2.159  0.00  0.00    +0.002 A 
ATOM     22  C   UNL     1      -4.471   4.182   2.386  0.00  0.00    +0.028 A 
ENDBRANCH  10  17
BRANCH   6  23
ATOM     23  C   UNL     1       2.168   0.905  -0.869  0.00  0.00    +0.135 C 
BRANCH  23  24
ATOM     24  C   UNL     1       2.235   0.939  -2.398  0.00  0.00    +0.122 C 
BRANCH  24  25
ATOM     25  N   UNL     1       3.477   0.305  -2.846  0.00  0.00    -0.328 N 
ATOM     26  H   UNL     1       4.101  -0.052  -2.196  0.00  0.00    +0.147 HD
BRANCH  25  27
ATOM     27  C   UNL     1       3.761   0.217  -4.205  0.00  0.00    +0.115 A 
ATOM     28  C   UNL     1       4.946  -0.381  -4.625  0.00  0.00    +0.079 A 
ATOM     29  C   UNL     1       5.213  -0.467  -5.980  0.00  0.00    +0.037 A 
ATOM     30  C   UNL     1       4.288   0.059  -6.872  0.00  0.00    +0.072 A 
ATOM     31  C   UNL     1       3.136   0.644  -6.385  0.00  0.00    +0.096 A 
ATOM     32 CL   UNL     1       6.070  -1.016  -3.465  0.00  0.00    -0.080 Cl
ATOM     33  N   UNL     1       2.838   0.741  -5.062  0.00  0.00    -0.348 N 
ATOM     34  H   UNL     1       1.972   1.181  -4.729  0.00  0.00    +0.167 HD
BRANCH  30  35
ATOM     35  C   UNL     1       4.539  -0.007  -8.356  0.00  0.00    +0.419 C 
ATOM     36  F   UNL     1       3.470   0.586  -9.037  0.00  0.00    -0.166 F 
ATOM     37  F   UNL     1       5.721   0.676  -8.660  0.00  0.00    -0.166 F 
ATOM     38  F   UNL     1       4.659  -1.344  -8.750  0.00  0.00    -0.166 F 
ENDBRANCH  30  35
ENDBRANCH  25  27
ENDBRANCH  24  25
ENDBRANCH  23  24
ENDBRANCH   6  23
TORSDOF 7
