REMARK  Name = ZINC32599580
REMARK  4 active torsions:
REMARK  status: ('A' for Active; 'I' for Inactive)
REMARK    1  A    between atoms: N_11  and  C_12
REMARK    2  A    between atoms: C_15  and  N_18
REMARK    3  A    between atoms: N_18  and  C_19
REMARK    4  A    between atoms: C_19  and  C_24
REMARK                            x       y       z     vdW  Elec       q    Type
REMARK                         _______ _______ _______ _____ _____    ______ ____
ROOT
ATOM      1  C   UNL     1      -0.293   0.753   0.167  0.00  0.00    +0.073 C 
ATOM      2  C   UNL     1       0.774   1.785  -0.203  0.00  0.00    +0.024 C 
ATOM      3  C   UNL     1       1.490   1.342  -1.481  0.00  0.00    +0.020 C 
ATOM      4  C   UNL     1       2.154  -0.017  -1.250  0.00  0.00    +0.055 C 
ATOM      5  C   UNL     1       1.087  -1.049  -0.879  0.00  0.00    +0.020 C 
ATOM      6  C   UNL     1       0.371  -0.606   0.399  0.00  0.00    +0.024 C 
ENDROOT
BRANCH   1  15
ATOM      7  C   UNL     1      -4.894  -0.983  -0.903  0.00  0.00    +0.002 C 
ATOM      8  C   UNL     1      -3.932  -0.983   0.292  0.00  0.00    +0.002 C 
ATOM      9  C   UNL     1      -3.347   0.421   0.411  0.00  0.00    +0.024 C 
ATOM     10  C   UNL     1      -2.707   0.904  -0.849  0.00  0.00    +0.099 C 
ATOM     11  C   UNL     1      -3.233   0.433  -2.186  0.00  0.00    +0.149 C 
ATOM     12  C   UNL     1      -4.066  -0.833  -2.172  0.00  0.00    +0.030 C 
ATOM     13  N   UNL     1      -1.999   0.154  -2.957  0.00  0.00    -0.168 NA
ATOM     14  N   UNL     1      -1.002   0.271  -2.248  0.00  0.00    -0.102 NA
ATOM     15  N   UNL     1      -1.264   0.642  -0.924  0.00  0.00    -0.306 NA
ATOM     16  H   UNL     1      -0.387   0.634  -0.260  0.00  0.00    +0.148 HD
ENDBRANCH   1  15
BRANCH   4  17
ATOM     17  N   UNL     1       2.841  -0.442  -2.476  0.00  0.00    -0.296 NA
ATOM     18  H   UNL     1       2.561  -1.479  -2.713  0.00  0.00    +0.124 HD
BRANCH  17  19
ATOM     19  C   UNL     1       4.300  -0.374  -2.313  0.00  0.00    +0.107 C 
ATOM     20  C   UNL     1       4.998  -0.790  -3.624  0.00  0.00    +0.037 C 
ATOM     21  C   UNL     1       6.247  -1.578  -3.155  0.00  0.00    +0.003 C 
ATOM     22  C   UNL     1       5.716  -2.361  -1.928  0.00  0.00    +0.003 C 
ATOM     23  C   UNL     1       4.756  -1.372  -1.235  0.00  0.00    +0.037 C 
BRANCH  19  24
ATOM     24  C   UNL     1       4.702   0.992  -1.939  0.00  0.00    +0.085 C 
ATOM     25  N   UNL     1       5.012   2.046  -1.650  0.00  0.00    -0.195 NA
ENDBRANCH  19  24
ENDBRANCH  17  19
ENDBRANCH   4  17
TORSDOF 4
