REMARK  Name = ZINC05641540
REMARK  12 active torsions:
REMARK  status: ('A' for Active; 'I' for Inactive)
REMARK    1  A    between atoms: C_1  and  C_2
REMARK    2  A    between atoms: C_2  and  N_3
REMARK    3  A    between atoms: C_5  and  C_21
REMARK    4  A    between atoms: C_6  and  N_20
REMARK    5  A    between atoms: C_7  and  C_18
REMARK    6  A    between atoms: C_9  and  C_10
REMARK    7  A    between atoms: C_11  and  C_12
REMARK    8  A    between atoms: C_11  and  C_14
REMARK    9  A    between atoms: C_14  and  O_16
REMARK   10  A    between atoms: O_16  and  C_17
REMARK   11  A    between atoms: C_21  and  O_23
REMARK   12  A    between atoms: O_23  and  C_24
REMARK                            x       y       z     vdW  Elec       q    Type
REMARK                         _______ _______ _______ _____ _____    ______ ____
ROOT
ATOM      1  N   UNL     1      -1.214  -2.167   0.243  0.00  0.00    -0.305 N 
ATOM      2  C   UNL     1      -2.394  -2.806   0.322  0.00  0.00    +0.092 C 
ATOM      3  C   UNL     1      -3.586  -2.109   0.304  0.00  0.00    +0.095 C 
ATOM      4  C   UNL     1      -3.572  -0.692   0.206  0.00  0.00    +0.059 C 
ATOM      5  C   UNL     1      -2.334  -0.033   0.130  0.00  0.00    +0.094 C 
ATOM      6  C   UNL     1      -1.148  -0.801   0.153  0.00  0.00    +0.053 C 
ATOM      7  C   UNL     1       0.097  -0.166   0.079  0.00  0.00    +0.026 C 
ENDROOT
BRANCH   4   8
ATOM      8  N   UNL     1      -4.745   0.019   0.187  0.00  0.00    -0.356 N 
ATOM      9  H   UNL     1      -4.730   0.975   0.023  0.00  0.00    +0.142 HD
ATOM     10  H   UNL     1      -5.589  -0.434   0.337  0.00  0.00    +0.142 HD
ENDBRANCH   4   8
BRANCH   1  12
ATOM     11  C   UNL     1       0.497  -3.125   1.704  0.00  0.00    +0.024 C 
ATOM     12  C   UNL     1       0.026  -2.947   0.259  0.00  0.00    +0.107 C 
ENDBRANCH   1  12
BRANCH   7  13
ATOM     13  C   UNL     1       0.243   1.121   0.548  0.00  0.00    +0.028 C 
ATOM     14  C   UNL     1       1.479   1.779   0.421  0.00  0.00    +0.136 C 
BRANCH  14  15
ATOM     15  C   UNL     1       2.585   1.113  -0.197  0.00  0.00    +0.106 C 
ATOM     16  N   UNL     1       3.463   0.584  -0.686  0.00  0.00    -0.191 NA
ENDBRANCH  14  15
BRANCH  14  17
ATOM     17  C   UNL     1       1.629   3.101   0.903  0.00  0.00    +0.349 C 
ATOM     18  O   UNL     1       0.688   3.668   1.427  0.00  0.00    -0.244 OA
BRANCH  17  19
ATOM     19  O   UNL     1       2.815   3.733   0.781  0.00  0.00    -0.464 OA
ATOM     20  C   UNL     1       2.895   5.066   1.290  0.00  0.00    +0.280 C 
ENDBRANCH  17  19
ENDBRANCH  14  17
ENDBRANCH   7  13
BRANCH   5  21
ATOM     21  C   UNL     1      -2.275   1.394   0.030  0.00  0.00    +0.103 C 
ATOM     22  N   UNL     1      -2.228   2.526  -0.050  0.00  0.00    -0.191 NA
ENDBRANCH   5  21
BRANCH   3  23
ATOM     23  C   UNL     1      -4.865  -2.831   0.386  0.00  0.00    +0.342 C 
ATOM     24  O   UNL     1      -4.881  -4.045   0.352  0.00  0.00    -0.245 OA
BRANCH  23  25
ATOM     25  O   UNL     1      -6.020  -2.145   0.498  0.00  0.00    -0.464 OA
ATOM     26  C   UNL     1      -7.244  -2.922   0.574  0.00  0.00    +0.280 C 
ENDBRANCH  23  25
ENDBRANCH   3  23
TORSDOF 9
