REMARK  Name = ZINC59669720
REMARK  5 active torsions:
REMARK  status: ('A' for Active; 'I' for Inactive)
REMARK    1  A    between atoms: C_1  and  C_2
REMARK    2  A    between atoms: C_7  and  N_8
REMARK    3  A    between atoms: C_9  and  C_11
REMARK    4  A    between atoms: C_13  and  C_29
REMARK    5  A    between atoms: C_21  and  C_23
REMARK                            x       y       z     vdW  Elec       q    Type
REMARK                         _______ _______ _______ _____ _____    ______ ____
ROOT
ATOM      1  C   UNL     1      -0.168   0.052   4.882  0.00  0.00    +0.126 C 
ATOM      2  C   UNL     1      -1.433   0.918   4.867  0.00  0.00    +0.084 C 
ATOM      3  N   UNL     1      -1.492   1.687   6.126  0.00  0.00    -0.310 N 
ATOM      4  C   UNL     1      -1.182   0.990   7.286  0.00  0.00    +0.214 A 
ATOM      5  N   UNL     1      -1.363   1.328   8.534  0.00  0.00    -0.202 NA
ATOM      6  C   UNL     1      -0.918   0.349   9.330  0.00  0.00    +0.247 A 
ATOM      7  N   UNL     1      -0.447  -0.625   8.593  0.00  0.00    -0.156 NA
ATOM      8  N   UNL     1      -0.604  -0.235   7.262  0.00  0.00    -0.223 N 
ATOM      9  C   UNL     1      -0.242  -0.951   6.040  0.00  0.00    +0.173 C 
ATOM     10  C   UNL     1      -2.667   0.022   4.750  0.00  0.00    +0.028 C 
ATOM     11  H   UNL     1      -1.733   2.627   6.141  0.00  0.00    +0.149 HD
ENDROOT
BRANCH   9  12
ATOM     12  C   UNL     1       1.100  -1.612   6.222  0.00  0.00    +0.067 A 
ATOM     13  C   UNL     1       2.065  -0.997   6.997  0.00  0.00    +0.025 A 
ATOM     14  C   UNL     1       3.296  -1.613   7.158  0.00  0.00    +0.003 A 
ATOM     15  C   UNL     1       3.512  -2.831   6.531  0.00  0.00    +0.020 A 
ATOM     16  C   UNL     1       2.499  -3.386   5.772  0.00  0.00    +0.111 A 
ATOM     17  N   UNL     1       1.338  -2.773   5.645  0.00  0.00    -0.258 NA
ENDBRANCH   9  12
BRANCH   1  19
ATOM     18  N   UNL     1       0.025  -0.015   2.417  0.00  0.00    -0.285 N 
ATOM     19  C   UNL     1      -0.056  -0.694   3.578  0.00  0.00    +0.224 C 
ATOM     20  O   UNL     1      -0.040  -1.907   3.573  0.00  0.00    -0.275 OA
ATOM     21  H   UNL     1       0.078   0.954   2.425  0.00  0.00    +0.155 HD
BRANCH  18  28
ATOM     22  C   UNL     1      -1.263   1.184   0.181  0.00  0.00    +0.045 C 
ATOM     23  C   UNL     1      -0.584  -0.158   0.084  0.00  0.00    -0.029 A 
ATOM     24  C   UNL     1      -0.568  -0.840  -1.117  0.00  0.00    +0.005 A 
ATOM     25  C   UNL     1       0.055  -2.071  -1.206  0.00  0.00    +0.000 A 
ATOM     26  C   UNL     1       0.666  -2.622  -0.095  0.00  0.00    +0.002 A 
ATOM     27  C   UNL     1       0.655  -1.945   1.108  0.00  0.00    +0.023 A 
ATOM     28  C   UNL     1       0.034  -0.706   1.201  0.00  0.00    +0.036 A 
ENDBRANCH  18  28
ENDBRANCH   1  19
TORSDOF 3
