REMARK  Name = ZINC35158225
REMARK  10 active torsions:
REMARK  status: ('A' for Active; 'I' for Inactive)
REMARK    1  A    between atoms: C_1  and  C_2
REMARK    2  A    between atoms: C_3  and  C_31
REMARK    3  A    between atoms: N_6  and  C_30
REMARK    4  A    between atoms: C_7  and  S_9
REMARK    5  A    between atoms: S_9  and  C_10
REMARK    6  A    between atoms: C_10  and  C_12
REMARK    7  A    between atoms: C_10  and  C_13
REMARK    8  A    between atoms: N_18  and  C_21
REMARK    9  A    between atoms: C_24  and  N_27
REMARK   10  A    between atoms: C_31  and  C_32
REMARK                            x       y       z     vdW  Elec       q    Type
REMARK                         _______ _______ _______ _____ _____    ______ ____
ROOT
ATOM      1  C   UNL     1       3.970  -1.396  -0.009  0.00  0.00    +0.137 C 
ATOM      2  C   UNL     1       3.868  -0.631   1.312  0.00  0.00    +0.029 C 
ENDROOT
BRANCH   1   3
ATOM      3  C   UNL     1       5.361  -1.956  -0.160  0.00  0.00    +0.229 C 
ATOM      4  O   UNL     1       5.577  -3.121   0.098  0.00  0.00    -0.274 OA
ATOM      5  N   UNL     1       6.365  -1.161  -0.582  0.00  0.00    -0.298 N 
ATOM      6  C   UNL     1       6.119   0.254  -0.892  0.00  0.00    +0.126 C 
ATOM      7  C   UNL     1       7.081   1.112  -0.061  0.00  0.00    +0.124 C 
ATOM      8  N   UNL     1       8.441   0.579  -0.218  0.00  0.00    -0.327 N 
ATOM      9  C   UNL     1       8.687  -0.837   0.092  0.00  0.00    +0.124 C 
ATOM     10  C   UNL     1       7.726  -1.694  -0.733  0.00  0.00    +0.126 C 
BRANCH   8  11
ATOM     11  C   UNL     1       9.481   1.402  -0.655  0.00  0.00    +0.030 A 
ATOM     12  C   UNL     1       9.216   2.705  -1.055  0.00  0.00    +0.025 A 
ATOM     13  C   UNL     1      10.248   3.517  -1.486  0.00  0.00    +0.034 A 
ATOM     14  C   UNL     1      11.543   3.033  -1.520  0.00  0.00    +0.126 A 
ATOM     15  C   UNL     1      11.810   1.736  -1.122  0.00  0.00    +0.034 A 
ATOM     16  C   UNL     1      10.784   0.921  -0.685  0.00  0.00    +0.025 A 
BRANCH  14  17
ATOM     17  N   UNL     1      12.645   3.905  -1.983  0.00  0.00    +0.056 N 
ATOM     18  O   UNL     1      12.413   5.039  -2.331  0.00  0.00    -0.126 OA
ATOM     19  O   UNL     1      13.778   3.483  -2.012  0.00  0.00    -0.126 OA
ENDBRANCH  14  17
ENDBRANCH   8  11
ENDBRANCH   1   3
BRANCH   1  20
ATOM     20  S   UNL     1       2.768  -2.754  -0.015  0.00  0.00    -0.075 S 
BRANCH  20  27
ATOM     21  C   UNL     1      -0.012   1.537   0.091  0.00  0.00    +0.066 C 
ATOM     22  C   UNL     1       0.002   0.031   0.066  0.00  0.00    +0.050 A 
ATOM     23  C   UNL     1      -1.175  -0.661   0.071  0.00  0.00    +0.042 A 
ATOM     24  C   UNL     1      -1.137  -2.067   0.047  0.00  0.00    +0.258 A 
ATOM     25  O   UNL     1      -2.170  -2.716   0.050  0.00  0.00    -0.267 OA
ATOM     26  N   UNL     1       0.063  -2.683   0.021  0.00  0.00    -0.291 N 
ATOM     27  C   UNL     1       1.205  -1.941   0.018  0.00  0.00    +0.172 A 
ATOM     28  N   UNL     1       1.160  -0.623   0.035  0.00  0.00    -0.228 NA
ATOM     29  C   UNL     1       0.138  -4.146  -0.003  0.00  0.00    +0.154 C 
BRANCH  23  30
ATOM     30  C   UNL     1      -2.493   0.069   0.101  0.00  0.00    +0.077 C 
BRANCH  30  31
ATOM     31  C   UNL     1      -3.011   0.228  -1.306  0.00  0.00    -0.043 A 
ATOM     32  C   UNL     1      -2.667   1.343  -2.047  0.00  0.00    +0.007 A 
ATOM     33  C   UNL     1      -3.141   1.489  -3.337  0.00  0.00    +0.038 A 
ATOM     34  C   UNL     1      -3.962   0.518  -3.886  0.00  0.00    +0.123 A 
ATOM     35  C   UNL     1      -4.306  -0.598  -3.143  0.00  0.00    +0.038 A 
ATOM     36  C   UNL     1      -3.826  -0.745  -1.855  0.00  0.00    +0.007 A 
ATOM     37  F   UNL     1      -4.426   0.661  -5.147  0.00  0.00    -0.205 F 
ENDBRANCH  30  31
ENDBRANCH  23  30
ENDBRANCH  20  27
ENDBRANCH   1  20
TORSDOF 7
