REMARK  Name = ZINC38963727
REMARK  8 active torsions:
REMARK  status: ('A' for Active; 'I' for Inactive)
REMARK    1  A    between atoms: C_1  and  O_2
REMARK    2  A    between atoms: O_2  and  C_3
REMARK    3  A    between atoms: C_6  and  N_9
REMARK    4  A    between atoms: N_9  and  C_10
REMARK    5  A    between atoms: C_10  and  C_11
REMARK    6  A    between atoms: C_16  and  O_23
REMARK    7  A    between atoms: O_23  and  C_24
REMARK    8  A    between atoms: C_25  and  C_27
REMARK                            x       y       z     vdW  Elec       q    Type
REMARK                         _______ _______ _______ _____ _____    ______ ____
ROOT
ATOM      1  N   UNL     1       2.949  -2.352  -4.093  0.00  0.00    -0.266 N 
ATOM      2  C   UNL     1       3.147  -1.553  -5.160  0.00  0.00    +0.251 C 
ATOM      3  O   UNL     1       2.636  -0.451  -5.197  0.00  0.00    -0.270 OA
ENDROOT
BRANCH   1   7
ATOM      4  C   UNL     1       0.409  -1.133  -1.020  0.00  0.00    +0.120 A 
ATOM      5  C   UNL     1       0.057  -0.905  -2.342  0.00  0.00    +0.047 A 
ATOM      6  C   UNL     1       0.898  -1.308  -3.360  0.00  0.00    +0.027 A 
ATOM      7  C   UNL     1       2.096  -1.942  -3.061  0.00  0.00    +0.037 A 
ATOM      8  C   UNL     1       2.448  -2.171  -1.737  0.00  0.00    +0.027 A 
ATOM      9  C   UNL     1       1.609  -1.762  -0.719  0.00  0.00    +0.047 A 
BRANCH   4  11
ATOM     10  C   UNL     1      -1.638  -0.095  -0.399  0.00  0.00    +0.277 C 
ATOM     11  O   UNL     1      -0.419  -0.736  -0.017  0.00  0.00    -0.495 OA
ENDBRANCH   4  11
ENDBRANCH   1   7
BRANCH   2  12
ATOM     12  C   UNL     1       3.986  -2.019  -6.288  0.00  0.00    +0.040 A 
ATOM     13  C   UNL     1       4.190  -3.384  -6.516  0.00  0.00    +0.033 A 
ATOM     14  C   UNL     1       4.980  -3.774  -7.580  0.00  0.00    +0.111 A 
ATOM     15  N   UNL     1       5.538  -2.881  -8.373  0.00  0.00    -0.263 NA
ATOM     16  C   UNL     1       5.372  -1.585  -8.193  0.00  0.00    +0.111 A 
ATOM     17  C   UNL     1       4.592  -1.107  -7.158  0.00  0.00    +0.033 A 
ENDBRANCH   2  12
BRANCH   1  18
ATOM     18  C   UNL     1       3.627  -3.648  -4.012  0.00  0.00    +0.131 C 
BRANCH  18  19
ATOM     19  C   UNL     1       2.647  -4.760  -4.392  0.00  0.00    +0.116 C 
ATOM     20  C   UNL     1       3.432  -6.052  -4.511  0.00  0.00    -0.003 C 
ATOM     21  C   UNL     1       3.050  -7.091  -3.716  0.00  0.00    -0.004 A 
ATOM     22  C   UNL     1       3.753  -8.373  -3.768  0.00  0.00    +0.055 A 
ATOM     23  C   UNL     1       3.337  -9.384  -2.956  0.00  0.00    +0.121 A 
ATOM     24  C   UNL     1       2.256  -9.215  -2.082  0.00  0.00    +0.047 A 
ATOM     25  C   UNL     1       1.565  -8.050  -1.990  0.00  0.00    +0.027 A 
ATOM     26  C   UNL     1       1.917  -6.944  -2.786  0.00  0.00    +0.041 A 
ATOM     27  N   UNL     1       1.230  -5.806  -2.684  0.00  0.00    -0.284 N 
ATOM     28  C   UNL     1       1.505  -4.731  -3.401  0.00  0.00    +0.226 C 
ATOM     29  O   UNL     1       0.841  -3.720  -3.264  0.00  0.00    -0.275 OA
ATOM     30  H   UNL     1       0.493  -5.766  -2.054  0.00  0.00    +0.155 HD
BRANCH  23  31
ATOM     31  O   UNL     1       3.982 -10.579  -2.995  0.00  0.00    -0.495 OA
ATOM     32  C   UNL     1       3.503 -11.604  -2.123  0.00  0.00    +0.277 C 
ENDBRANCH  23  31
ENDBRANCH  18  19
ENDBRANCH   1  18
TORSDOF 6
