REMARK  Name = ZINC05117091
REMARK  7 active torsions:
REMARK  status: ('A' for Active; 'I' for Inactive)
REMARK    1  A    between atoms: C_1  and  C_2
REMARK    2  A    between atoms: C_2  and  C_4
REMARK    3  A    between atoms: C_2  and  N_7
REMARK    4  A    between atoms: C_4  and  C_5
REMARK    5  A    between atoms: C_4  and  C_6
REMARK    6  A    between atoms: C_13  and  C_20
REMARK    7  A    between atoms: N_18  and  C_19
REMARK                            x       y       z     vdW  Elec       q    Type
REMARK                         _______ _______ _______ _____ _____    ______ ____
ROOT
ATOM      1  N   UNL     1       1.063   0.005  -1.190  0.00  0.00    -0.289 N 
ATOM      2  C   UNL     1       0.457  -0.790  -2.269  0.00  0.00    +0.159 C 
ATOM      3  C   UNL     1       1.594  -1.079  -3.224  0.00  0.00    +0.042 C 
ATOM      4  C   UNL     1       2.689  -0.493  -2.699  0.00  0.00    +0.058 C 
ATOM      5  C   UNL     1       2.366   0.155  -1.489  0.00  0.00    +0.247 C 
ATOM      6  O   UNL     1       3.163   0.769  -0.803  0.00  0.00    -0.270 OA
ATOM      7  C   UNL     1       3.992  -0.626  -3.460  0.00  0.00    +0.143 C 
ATOM      8  N   UNL     1       3.954  -1.388  -4.720  0.00  0.00    -0.288 N 
ATOM      9  C   UNL     1       2.779  -1.916  -5.115  0.00  0.00    +0.307 C 
ATOM     10  O   UNL     1       2.738  -2.547  -6.154  0.00  0.00    -0.252 OA
ATOM     11  N   UNL     1       1.656  -1.768  -4.402  0.00  0.00    -0.260 N 
ATOM     12  C   UNL     1       0.426  -2.378  -4.912  0.00  0.00    +0.139 C 
ATOM     13  H   UNL     1       4.757  -1.507  -5.252  0.00  0.00    +0.151 HD
ENDROOT
BRANCH   7  14
ATOM     14  C   UNL     1       4.998  -1.283  -2.550  0.00  0.00    -0.003 A 
ATOM     15  C   UNL     1       4.570  -1.966  -1.427  0.00  0.00    +0.007 A 
ATOM     16  C   UNL     1       5.491  -2.569  -0.591  0.00  0.00    +0.002 A 
ATOM     17  C   UNL     1       6.841  -2.490  -0.878  0.00  0.00    +0.021 A 
ATOM     18  C   UNL     1       7.271  -1.807  -2.001  0.00  0.00    +0.060 A 
ATOM     19  C   UNL     1       6.348  -1.208  -2.841  0.00  0.00    +0.064 A 
ATOM     20 CL   UNL     1       6.885  -0.357  -4.256  0.00  0.00    -0.082 Cl
ATOM     21 CL   UNL     1       8.966  -1.707  -2.361  0.00  0.00    -0.082 Cl
ENDBRANCH   7  14
BRANCH   1  23
ATOM     22  C   UNL     1      -1.072   0.038   0.003  0.00  0.00    +0.028 C 
ATOM     23  C   UNL     1       0.374   0.538  -0.013  0.00  0.00    +0.076 C 
BRANCH  23  24
ATOM     24  C   UNL     1       0.384   2.067  -0.065  0.00  0.00    +0.003 C 
ATOM     25  C   UNL     1      -0.402   2.541  -1.290  0.00  0.00    +0.009 C 
ATOM     26  C   UNL     1      -0.264   2.626   1.203  0.00  0.00    +0.009 C 
ENDBRANCH  23  24
ENDBRANCH   1  23
TORSDOF 3
