REMARK  Name = ZINC58293756
REMARK  7 active torsions:
REMARK  status: ('A' for Active; 'I' for Inactive)
REMARK    1  A    between atoms: C_3  and  C_6
REMARK    2  A    between atoms: C_7  and  C_8
REMARK    3  A    between atoms: C_7  and  C_10
REMARK    4  A    between atoms: N_12  and  C_13
REMARK    5  A    between atoms: C_16  and  N_19
REMARK    6  A    between atoms: C_20  and  N_26
REMARK    7  A    between atoms: C_21  and  C_24
REMARK                            x       y       z     vdW  Elec       q    Type
REMARK                         _______ _______ _______ _____ _____    ______ ____
ROOT
ATOM      1  C   UNL     1       7.671  -1.828   0.007  0.00  0.00    +0.034 A 
ATOM      2  C   UNL     1       8.348  -0.619   0.108  0.00  0.00    +0.025 A 
ATOM      3  C   UNL     1       9.726  -0.605   0.184  0.00  0.00    +0.029 A 
ATOM      4  C   UNL     1      10.436  -1.798   0.159  0.00  0.00    +0.068 A 
ATOM      5  C   UNL     1       9.759  -3.006   0.058  0.00  0.00    +0.029 A 
ATOM      6  C   UNL     1       8.381  -3.022  -0.012  0.00  0.00    +0.025 A 
ENDROOT
BRANCH   4   7
ATOM      7  N   UNL     1      11.836  -1.783   0.235  0.00  0.00    -0.218 N 
ATOM      8  C   UNL     1      12.604  -2.707   0.854  0.00  0.00    +0.137 A 
ATOM      9  C   UNL     1      13.930  -2.314   0.690  0.00  0.00    +0.111 A 
ATOM     10  C   UNL     1      13.915  -1.111  -0.055  0.00  0.00    +0.155 A 
ATOM     11  N   UNL     1      12.675  -0.811  -0.322  0.00  0.00    -0.172 NA
BRANCH   8  12
ATOM     12  N   UNL     1      12.158  -3.831   1.523  0.00  0.00    -0.342 N 
ATOM     13  H   UNL     1      11.207  -4.016   1.580  0.00  0.00    +0.144 HD
ATOM     14  H   UNL     1      12.795  -4.435   1.935  0.00  0.00    +0.144 HD
ENDBRANCH   8  12
BRANCH   9  15
ATOM     15  C   UNL     1      15.088  -2.996   1.183  0.00  0.00    +0.104 C 
ATOM     16  N   UNL     1      16.007  -3.538   1.575  0.00  0.00    -0.191 NA
ENDBRANCH   9  15
ENDBRANCH   4   7
BRANCH   1  19
ATOM     17  C   UNL     1       5.577  -2.836   0.518  0.00  0.00    +0.259 C 
ATOM     18  O   UNL     1       6.165  -3.764   1.043  0.00  0.00    -0.269 OA
ATOM     19  N   UNL     1       6.274  -1.843  -0.069  0.00  0.00    -0.281 N 
ATOM     20  H   UNL     1       5.806  -1.139  -0.545  0.00  0.00    +0.155 HD
BRANCH  17  22
ATOM     21  C   UNL     1       3.394  -3.821   1.130  0.00  0.00    +0.070 C 
ATOM     22  C   UNL     1       4.110  -2.799   0.526  0.00  0.00    +0.117 C 
BRANCH  21  25
ATOM     23  C   UNL     1      -0.160  -4.291   1.473  0.00  0.00    +0.042 A 
ATOM     24  C   UNL     1       1.149  -4.732   1.701  0.00  0.00    +0.049 A 
ATOM     25  C   UNL     1       1.987  -3.785   1.137  0.00  0.00    +0.129 A 
ATOM     26  O   UNL     1       1.212  -2.821   0.596  0.00  0.00    -0.463 OA
ATOM     27  C   UNL     1      -0.077  -3.122   0.796  0.00  0.00    +0.195 A 
ENDBRANCH  21  25
BRANCH  22  28
ATOM     28  C   UNL     1       3.418  -1.708  -0.091  0.00  0.00    +0.104 C 
ATOM     29  N   UNL     1       2.869  -0.842  -0.580  0.00  0.00    -0.191 NA
ENDBRANCH  22  28
ENDBRANCH  17  22
ENDBRANCH   1  19
TORSDOF 7
