REMARK  Name = ZINC09981026
REMARK  5 active torsions:
REMARK  status: ('A' for Active; 'I' for Inactive)
REMARK    1  A    between atoms: N_9  and  C_12
REMARK    2  A    between atoms: C_12  and  S_13
REMARK    3  A    between atoms: S_13  and  C_14
REMARK    4  A    between atoms: N_24  and  C_25
REMARK    5  A    between atoms: C_25  and  C_26
REMARK                            x       y       z     vdW  Elec       q    Type
REMARK                         _______ _______ _______ _____ _____    ______ ____
ROOT
ATOM      1  C   UNL     1      -0.912   3.627   2.263  0.00  0.00    +0.174 A 
ATOM      2  N   UNL     1      -0.142   4.228   1.389  0.00  0.00    -0.223 NA
ATOM      3  C   UNL     1       0.629   5.286   1.735  0.00  0.00    +0.079 A 
ATOM      4  C   UNL     1       1.447   5.931   0.803  0.00  0.00    +0.029 A 
ATOM      5  C   UNL     1       2.215   6.992   1.192  0.00  0.00    +0.017 A 
ATOM      6  C   UNL     1       2.196   7.445   2.506  0.00  0.00    +0.019 A 
ATOM      7  C   UNL     1       1.400   6.830   3.448  0.00  0.00    +0.030 A 
ATOM      8  C   UNL     1       0.608   5.745   3.072  0.00  0.00    +0.066 A 
ATOM      9  C   UNL     1      -0.260   5.049   4.031  0.00  0.00    +0.263 A 
ATOM     10  O   UNL     1      -0.321   5.398   5.196  0.00  0.00    -0.267 OA
ATOM     11  N   UNL     1      -0.991   4.006   3.572  0.00  0.00    -0.280 N 
ATOM     12 BR   UNL     1       3.272   8.917   3.005  0.00  0.00    -0.050 Br
ENDROOT
BRANCH   1  13
ATOM     13  S   UNL     1      -1.887   2.263   1.723  0.00  0.00    -0.064 S 
BRANCH  13  14
ATOM     14  C   UNL     1      -1.281   2.095   0.026  0.00  0.00    +0.226 C 
BRANCH  14  23
ATOM     15  C   UNL     1       2.964  -2.359   0.158  0.00  0.00    +0.001 A 
ATOM     16  C   UNL     1       4.056  -1.501   0.129  0.00  0.00    +0.002 A 
ATOM     17  C   UNL     1       3.879  -0.137   0.085  0.00  0.00    +0.030 A 
ATOM     18  C   UNL     1       2.587   0.395   0.069  0.00  0.00    +0.100 A 
ATOM     19  C   UNL     1       1.479  -0.481   0.099  0.00  0.00    +0.068 A 
ATOM     20  C   UNL     1       1.680  -1.859   0.143  0.00  0.00    +0.015 A 
ATOM     21  C   UNL     1       0.129   0.103   0.082  0.00  0.00    +0.279 A 
ATOM     22  O   UNL     1      -0.864  -0.600   0.106  0.00  0.00    -0.265 OA
ATOM     23  N   UNL     1       0.035   1.453   0.039  0.00  0.00    -0.200 N 
ATOM     24  N   UNL     1       1.193   2.235   0.012  0.00  0.00    -0.061 NA
ATOM     25  N   UNL     1       2.375   1.734   0.027  0.00  0.00    -0.131 NA
ENDBRANCH  14  23
ENDBRANCH  13  14
ENDBRANCH   1  13
BRANCH  11  26
ATOM     26  C   UNL     1      -1.872   3.278   4.488  0.00  0.00    +0.201 C 
BRANCH  26  27
ATOM     27  C   UNL     1      -1.111   2.143   5.122  0.00  0.00    +0.125 A 
ATOM     28  C   UNL     1      -0.406   2.210   6.266  0.00  0.00    +0.046 A 
ATOM     29  C   UNL     1       0.138   0.924   6.487  0.00  0.00    +0.041 A 
ATOM     30  C   UNL     1      -0.260   0.150   5.462  0.00  0.00    +0.195 A 
ATOM     31  O   UNL     1      -1.016   0.894   4.638  0.00  0.00    -0.466 OA
ENDBRANCH  26  27
ENDBRANCH  11  26
TORSDOF 5
