REMARK  Name = ZINC23197445
REMARK  8 active torsions:
REMARK  status: ('A' for Active; 'I' for Inactive)
REMARK    1  A    between atoms: C_1  and  C_2
REMARK    2  A    between atoms: C_7  and  C_9
REMARK    3  A    between atoms: C_7  and  C_10
REMARK    4  A    between atoms: N_13  and  C_17
REMARK    5  A    between atoms: C_17  and  C_18
REMARK    6  A    between atoms: N_26  and  C_27
REMARK    7  A    between atoms: C_27  and  C_28
REMARK    8  A    between atoms: C_27  and  C_29
REMARK                            x       y       z     vdW  Elec       q    Type
REMARK                         _______ _______ _______ _____ _____    ______ ____
ROOT
ATOM      1  C   UNL     1      -0.066   1.571   0.001  0.00  0.00    +0.007 C 
ATOM      2  C   UNL     1      -0.053   0.040   0.010  0.00  0.00    -0.011 C 
ATOM      3  C   UNL     1       0.686  -0.466  -1.231  0.00  0.00    +0.038 C 
ATOM      4  C   UNL     1       0.663  -1.989  -1.258  0.00  0.00    +0.113 C 
ATOM      5  C   UNL     1       1.195  -2.609   0.018  0.00  0.00    +0.041 C 
ATOM      6  C   UNL     1       0.705  -1.976   1.309  0.00  0.00    -0.032 C 
ATOM      7  C   UNL     1       0.689  -0.453   1.250  0.00  0.00    +0.009 C 
ATOM      8  C   UNL     1       1.669  -2.393   2.441  0.00  0.00    +0.011 C 
ATOM      9  C   UNL     1      -0.686  -2.502   1.677  0.00  0.00    +0.011 C 
ATOM     10  C   UNL     1      -0.712  -2.500  -1.610  0.00  0.00    +0.247 C 
ATOM     11  O   UNL     1      -1.769  -2.241  -1.076  0.00  0.00    -0.273 OA
ATOM     12  N   UNL     1      -0.541  -3.306  -2.681  0.00  0.00    -0.215 N 
ATOM     13  C   UNL     1       0.720  -3.266  -3.127  0.00  0.00    +0.310 C 
ATOM     14  O   UNL     1       1.117  -3.895  -4.089  0.00  0.00    -0.252 OA
ATOM     15  N   UNL     1       1.496  -2.455  -2.389  0.00  0.00    -0.285 N 
ATOM     16  H   UNL     1       2.420  -2.213  -2.553  0.00  0.00    +0.151 HD
ENDROOT
BRANCH  12  17
ATOM     17  C   UNL     1      -1.603  -4.120  -3.276  0.00  0.00    +0.217 C 
BRANCH  17  18
ATOM     18  C   UNL     1      -2.308  -3.323  -4.344  0.00  0.00    +0.251 C 
ATOM     19  O   UNL     1      -1.957  -2.188  -4.584  0.00  0.00    -0.271 OA
ATOM     20  N   UNL     1      -3.328  -3.873  -5.032  0.00  0.00    -0.272 N 
ATOM     21  C   UNL     1      -3.651  -5.191  -4.840  0.00  0.00    +0.096 A 
ATOM     22  C   UNL     1      -4.667  -5.756  -5.519  0.00  0.00    +0.018 A 
ATOM     23  C   UNL     1      -5.417  -5.002  -6.442  0.00  0.00    +0.005 A 
ATOM     24  C   UNL     1      -5.115  -3.695  -6.649  0.00  0.00    +0.044 A 
ATOM     25  C   UNL     1      -4.049  -3.106  -5.927  0.00  0.00    +0.114 A 
ATOM     26  N   UNL     1      -3.744  -1.841  -6.109  0.00  0.00    -0.368 N 
ATOM     27  H   UNL     1      -2.963  -1.462  -5.677  0.00  0.00    +0.161 HD
BRANCH  26  28
ATOM     28  C   UNL     1      -4.585  -1.001  -6.966  0.00  0.00    +0.074 C 
ATOM     29  C   UNL     1      -4.435   0.464  -6.551  0.00  0.00    +0.030 C 
ATOM     30  C   UNL     1      -4.151  -1.165  -8.424  0.00  0.00    +0.030 C 
ENDBRANCH  26  28
ENDBRANCH  17  18
ENDBRANCH  12  17
TORSDOF 3
