REMARK  Name = ZINC16696094
REMARK  6 active torsions:
REMARK  status: ('A' for Active; 'I' for Inactive)
REMARK    1  A    between atoms: C_1  and  C_2
REMARK    2  A    between atoms: N_10  and  N_11
REMARK    3  A    between atoms: C_12  and  C_13
REMARK    4  A    between atoms: C_16  and  O_19
REMARK    5  A    between atoms: O_19  and  C_20
REMARK    6  A    between atoms: C_20  and  C_22
REMARK                            x       y       z     vdW  Elec       q    Type
REMARK                         _______ _______ _______ _____ _____    ______ ____
ROOT
ATOM      1  C   UNL     1       8.177  -2.434  -0.198  0.00  0.00    -0.005 A 
ATOM      2  C   UNL     1       8.329  -1.047  -0.117  0.00  0.00    +0.013 A 
ATOM      3  C   UNL     1       7.216  -0.236  -0.066  0.00  0.00    +0.047 A 
ATOM      4  C   UNL     1       5.945  -0.795  -0.095  0.00  0.00    +0.132 A 
ATOM      5  C   UNL     1       5.789  -2.173  -0.170  0.00  0.00    +0.047 A 
ATOM      6  C   UNL     1       6.896  -2.991  -0.227  0.00  0.00    +0.013 A 
ENDROOT
BRANCH   1   8
ATOM      7  N   UNL     1       9.221  -4.594  -0.327  0.00  0.00    -0.189 NA
ATOM      8  C   UNL     1       9.364  -3.305  -0.252  0.00  0.00    +0.138 C 
BRANCH   7  18
ATOM      9  C   UNL     1      12.718  -7.056  -0.480  0.00  0.00    +0.071 C 
ATOM     10  C   UNL     1      11.328  -7.637  -0.510  0.00  0.00    +0.100 A 
ATOM     11  C   UNL     1      10.198  -6.787  -0.458  0.00  0.00    +0.166 A 
ATOM     12  N   UNL     1       8.987  -7.334  -0.481  0.00  0.00    -0.174 NA
ATOM     13  C   UNL     1       8.876  -8.662  -0.564  0.00  0.00    +0.364 A 
ATOM     14  O   UNL     1       7.770  -9.177  -0.591  0.00  0.00    -0.243 OA
ATOM     15  N   UNL     1       9.975  -9.437  -0.612  0.00  0.00    -0.226 N 
ATOM     16  H   UNL     1       9.874 -10.400  -0.669  0.00  0.00    +0.194 HD
ATOM     17  N   UNL     1      11.156  -8.928  -0.586  0.00  0.00    -0.172 NA
ATOM     18  N   UNL     1      10.350  -5.422  -0.378  0.00  0.00    -0.219 N 
ATOM     19  H   UNL     1      11.238  -5.034  -0.357  0.00  0.00    +0.176 HD
ENDBRANCH   7  18
ENDBRANCH   1   8
BRANCH   4  20
ATOM     20  O   UNL     1       4.850   0.009  -0.045  0.00  0.00    -0.422 OA
BRANCH  20  21
ATOM     21  C   UNL     1       4.514   0.655  -1.179  0.00  0.00    +0.344 C 
ATOM     22  O   UNL     1       5.228   0.576  -2.158  0.00  0.00    -0.245 OA
BRANCH  21  23
ATOM     23  C   UNL     1       3.276   1.459  -1.231  0.00  0.00    +0.059 A 
ATOM     24  C   UNL     1       2.924   2.130  -2.404  0.00  0.00    +0.015 A 
ATOM     25  C   UNL     1       1.767   2.880  -2.445  0.00  0.00    +0.001 A 
ATOM     26  C   UNL     1       0.956   2.969  -1.327  0.00  0.00    +0.000 A 
ATOM     27  C   UNL     1       1.299   2.307  -0.162  0.00  0.00    +0.001 A 
ATOM     28  C   UNL     1       2.453   1.553  -0.107  0.00  0.00    +0.015 A 
ENDBRANCH  21  23
ENDBRANCH  20  21
ENDBRANCH   4  20
TORSDOF 5
