REMARK  Name = ZINC63822782
REMARK  9 active torsions:
REMARK  status: ('A' for Active; 'I' for Inactive)
REMARK    1  A    between atoms: C_1  and  C_2
REMARK    2  A    between atoms: C_4  and  C_21
REMARK    3  A    between atoms: N_12  and  C_14
REMARK    4  A    between atoms: C_24  and  O_31
REMARK    5  A    between atoms: C_25  and  O_27
REMARK    6  A    between atoms: O_27  and  C_28
REMARK    7  A    between atoms: C_28  and  C_29
REMARK    8  A    between atoms: C_28  and  C_30
REMARK    9  A    between atoms: O_31  and  C_32
REMARK                            x       y       z     vdW  Elec       q    Type
REMARK                         _______ _______ _______ _____ _____    ______ ____
ROOT
ATOM      1  C   UNL     1      -0.172   1.294  -0.661  0.00  0.00    +0.062 C 
ATOM      2  C   UNL     1      -0.259  -0.210  -0.619  0.00  0.00    +0.022 C 
ATOM      3  C   UNL     1      -1.311  -0.874  -0.234  0.00  0.00    -0.004 C 
ATOM      4  C   UNL     1      -2.704  -0.398   0.103  0.00  0.00    +0.059 C 
ATOM      5  C   UNL     1      -3.646  -1.073  -0.905  0.00  0.00    +0.108 C 
ATOM      6  C   UNL     1      -3.229  -2.477  -1.200  0.00  0.00    +0.216 C 
ATOM      7  O   UNL     1      -4.082  -3.203  -1.666  0.00  0.00    -0.276 OA
ATOM      8  N   UNL     1      -2.028  -3.023  -1.011  0.00  0.00    -0.292 N 
ATOM      9  C   UNL     1      -0.967  -2.354  -0.269  0.00  0.00    +0.210 C 
ATOM     10  N   UNL     1       0.330  -2.398  -0.946  0.00  0.00    -0.210 N 
ATOM     11  N   UNL     1       0.770  -1.063  -0.992  0.00  0.00    -0.265 N 
ATOM     12  H   UNL     1      -1.853  -3.902  -1.382  0.00  0.00    +0.151 HD
ATOM     13  H   UNL     1       1.662  -0.780  -1.245  0.00  0.00    +0.170 HD
ENDROOT
BRANCH  10  14
ATOM     14  C   UNL     1       0.986  -3.521  -1.444  0.00  0.00    +0.162 A 
ATOM     15  C   UNL     1       2.227  -3.387  -2.067  0.00  0.00    +0.052 A 
ATOM     16  C   UNL     1       2.840  -4.533  -2.546  0.00  0.00    +0.077 A 
ATOM     17  C   UNL     1       2.179  -5.748  -2.375  0.00  0.00    +0.289 A 
ATOM     18  O   UNL     1       2.743  -6.898  -2.828  0.00  0.00    -0.264 OA
ATOM     19  N   UNL     1       1.004  -5.779  -1.771  0.00  0.00    -0.105 NA
ATOM     20  N   UNL     1       0.437  -4.719  -1.322  0.00  0.00    -0.129 NA
ENDBRANCH  10  14
BRANCH   4  21
ATOM     21  C   UNL     1      -2.786   1.101  -0.031  0.00  0.00    -0.036 A 
ATOM     22  C   UNL     1      -2.682   1.901   1.092  0.00  0.00    +0.008 A 
ATOM     23  C   UNL     1      -2.757   3.276   0.974  0.00  0.00    +0.050 A 
ATOM     24  C   UNL     1      -2.935   3.856  -0.272  0.00  0.00    +0.162 A 
ATOM     25  C   UNL     1      -3.039   3.051  -1.402  0.00  0.00    +0.163 A 
ATOM     26  C   UNL     1      -2.959   1.673  -1.278  0.00  0.00    +0.053 A 
BRANCH  24  27
ATOM     27  O   UNL     1      -3.009   5.208  -0.390  0.00  0.00    -0.491 OA
ATOM     28  C   UNL     1      -2.894   5.972   0.813  0.00  0.00    +0.277 C 
ENDBRANCH  24  27
BRANCH  25  29
ATOM     29  O   UNL     1      -3.214   3.615  -2.627  0.00  0.00    -0.486 OA
BRANCH  29  30
ATOM     30  C   UNL     1      -3.357   2.726  -3.737  0.00  0.00    +0.167 C 
ATOM     31  C   UNL     1      -4.816   2.280  -3.849  0.00  0.00    +0.051 C 
ATOM     32  C   UNL     1      -2.943   3.444  -5.023  0.00  0.00    +0.051 C 
ENDBRANCH  29  30
ENDBRANCH  25  29
ENDBRANCH   4  21
TORSDOF 5
