REMARK  Name = ZINC31988817
REMARK  2 active torsions:
REMARK  status: ('A' for Active; 'I' for Inactive)
REMARK    1  A    between atoms: C_6  and  N_7
REMARK    2  A    between atoms: C_8  and  C_10
REMARK                            x       y       z     vdW  Elec       q    Type
REMARK                         _______ _______ _______ _____ _____    ______ ____
ROOT
ATOM      1  C   UNL     1       2.320   5.367  -0.170  0.00  0.00    +0.025 A 
ATOM      2  C   UNL     1       2.317   3.986  -0.200  0.00  0.00    +0.025 A 
ATOM      3  C   UNL     1       1.136   3.290   0.014  0.00  0.00    +0.037 A 
ATOM      4  C   UNL     1      -0.044   3.982   0.258  0.00  0.00    -0.024 A 
ATOM      5  C   UNL     1      -0.042   5.361   0.287  0.00  0.00    +0.028 A 
ATOM      6  C   UNL     1       1.141   6.058   0.074  0.00  0.00    +0.034 A 
ATOM      7  C   UNL     1      -1.324   3.222   0.490  0.00  0.00    +0.046 C 
ATOM      8  C   UNL     1      -1.324   1.950  -0.364  0.00  0.00    +0.101 C 
ATOM      9  C   UNL     1      -0.023   1.216  -0.182  0.00  0.00    +0.218 C 
ATOM     10  O   UNL     1      -0.012   0.003  -0.190  0.00  0.00    -0.275 OA
ATOM     11  N   UNL     1       1.130   1.890  -0.016  0.00  0.00    -0.285 N 
ATOM     12  H   UNL     1       2.072   1.334   0.097  0.00  0.00    +0.155 HD
ENDROOT
BRANCH   6  13
ATOM     13  N   UNL     1       1.144   7.458   0.103  0.00  0.00    -0.281 N 
ATOM     14  C   UNL     1       0.310   8.116   0.933  0.00  0.00    +0.255 C 
ATOM     15  O   UNL     1      -0.377   7.496   1.724  0.00  0.00    -0.269 OA
ATOM     16  H   UNL     1       1.827   8.021  -0.550  0.00  0.00    +0.155 HD
BRANCH  14  17
ATOM     17  C   UNL     1       0.229   9.578   0.882  0.00  0.00    +0.075 A 
ATOM     18  C   UNL     1      -0.554  10.436   1.638  0.00  0.00    +0.022 A 
ATOM     19  C   UNL     1      -0.433  11.779   1.384  0.00  0.00    +0.024 A 
ATOM     20  C   UNL     1       0.431  12.198   0.421  0.00  0.00    +0.056 A 
ATOM     21  S   UNL     1       1.119  10.717  -0.163  0.00  0.00    -0.077 S 
ATOM     22 BR   UNL     1       0.802  13.966  -0.138  0.00  0.00    -0.043 Br
ENDBRANCH  14  17
ENDBRANCH   6  13
TORSDOF 2
