REMARK  Name = ZINC00162962
REMARK  3 active torsions:
REMARK  status: ('A' for Active; 'I' for Inactive)
REMARK    1  A    between atoms: C_1  and  C_2
REMARK    2  A    between atoms: C_7  and  C_8
REMARK    3  A    between atoms: N_13  and  N_14
REMARK                            x       y       z     vdW  Elec       q    Type
REMARK                         _______ _______ _______ _____ _____    ______ ____
ROOT
ATOM      1  C   UNL     1      -1.807  -4.358  -0.003  0.00  0.00    +0.255 C 
ATOM      2  O   UNL     1      -0.682  -4.818  -0.017  0.00  0.00    -0.270 OA
ATOM      3  N   UNL     1      -1.989  -3.023   0.006  0.00  0.00    -0.235 N 
ATOM      4  C   UNL     1      -0.924  -2.197  -0.000  0.00  0.00    +0.324 C 
ATOM      5  O   UNL     1       0.201  -2.657  -0.014  0.00  0.00    -0.251 OA
ATOM      6  N   UNL     1      -1.105  -0.862   0.009  0.00  0.00    -0.204 N 
ATOM      7  H   UNL     1      -2.887  -2.656   0.017  0.00  0.00    +0.159 HD
ATOM      8  H   UNL     1      -2.003  -0.495   0.020  0.00  0.00    +0.177 HD
ENDROOT
BRANCH   1  15
ATOM      9  C   UNL     1      -3.000  -5.233  -2.525  0.00  0.00    +0.045 C 
ATOM     10  C   UNL     1      -3.553  -5.687  -1.199  0.00  0.00    -0.033 A 
ATOM     11  C   UNL     1      -4.642  -6.537  -1.138  0.00  0.00    +0.044 A 
ATOM     12  C   UNL     1      -5.128  -6.930   0.098  0.00  0.00    +0.131 A 
ATOM     13  N   UNL     1      -4.566  -6.510   1.217  0.00  0.00    -0.223 NA
ATOM     14  C   UNL     1      -3.524  -5.704   1.211  0.00  0.00    +0.143 A 
ATOM     15  C   UNL     1      -2.974  -5.262   0.004  0.00  0.00    +0.077 A 
ATOM     16 CL   UNL     1      -2.828  -5.185   2.715  0.00  0.00    -0.061 Cl
ATOM     17 CL   UNL     1      -6.500  -7.992   0.178  0.00  0.00    -0.062 Cl
ENDBRANCH   1  15
BRANCH   6  18
ATOM     18  N   UNL     1       0.002  -0.004   0.002  0.00  0.00    -0.233 N 
ATOM     19  C   UNL     1      -0.016   1.351   0.009  0.00  0.00    +0.244 A 
ATOM     20  N   UNL     1       1.224   1.756  -0.000  0.00  0.00    -0.137 NA
ATOM     21  N   UNL     1       2.012   0.739  -0.013  0.00  0.00    -0.137 NA
ATOM     22  C   UNL     1       1.309  -0.361  -0.012  0.00  0.00    +0.244 A 
ENDBRANCH   6  18
TORSDOF 2
