REMARK  Name = ZINC00922746
REMARK  10 active torsions:
REMARK  status: ('A' for Active; 'I' for Inactive)
REMARK    1  A    between atoms: C_1  and  C_2
REMARK    2  A    between atoms: C_2  and  C_4
REMARK    3  A    between atoms: C_8  and  N_10
REMARK    4  A    between atoms: N_10  and  C_11
REMARK    5  A    between atoms: C_11  and  C_13
REMARK    6  A    between atoms: C_11  and  C_19
REMARK    7  A    between atoms: N_17  and  C_18
REMARK    8  A    between atoms: N_21  and  C_22
REMARK    9  A    between atoms: C_28  and  C_30
REMARK   10  A    between atoms: C_30  and  N_31
REMARK                            x       y       z     vdW  Elec       q    Type
REMARK                         _______ _______ _______ _____ _____    ______ ____
ROOT
ATOM      1  N   UNL     1      -6.363   4.923  -1.521  0.00  0.00    -0.252 N 
ATOM      2  C   UNL     1      -6.303   4.202  -0.384  0.00  0.00    +0.242 C 
ATOM      3  O   UNL     1      -5.811   3.093  -0.394  0.00  0.00    -0.273 OA
ENDROOT
BRANCH   1   8
ATOM      4  C   UNL     1      -6.752   8.488  -0.659  0.00  0.00    +0.019 A 
ATOM      5  C   UNL     1      -7.851   8.826  -1.456  0.00  0.00    +0.011 A 
ATOM      6  C   UNL     1      -8.439   7.872  -2.260  0.00  0.00    +0.002 A 
ATOM      7  C   UNL     1      -7.947   6.580  -2.282  0.00  0.00    +0.023 A 
ATOM      8  C   UNL     1      -6.855   6.232  -1.494  0.00  0.00    +0.038 A 
ATOM      9  C   UNL     1      -6.259   7.181  -0.679  0.00  0.00    +0.035 A 
BRANCH   4  11
ATOM     10  C   UNL     1      -6.659  10.911   0.222  0.00  0.00    +0.091 C 
ATOM     11  C   UNL     1      -6.121   9.503   0.200  0.00  0.00    +0.160 C 
ATOM     12  O   UNL     1      -5.168   9.207   0.889  0.00  0.00    -0.292 OA
ENDBRANCH   4  11
ENDBRANCH   1   8
BRANCH   1  13
ATOM     13  C   UNL     1      -5.912   4.335  -2.785  0.00  0.00    +0.213 C 
BRANCH  13  14
ATOM     14  C   UNL     1      -7.109   3.957  -3.618  0.00  0.00    +0.049 A 
ATOM     15  C   UNL     1      -7.673   4.713  -4.581  0.00  0.00    +0.025 A 
ATOM     16  C   UNL     1      -8.759   3.986  -5.107  0.00  0.00    +0.019 A 
ATOM     17  C   UNL     1      -8.823   2.816  -4.439  0.00  0.00    +0.085 A 
ATOM     18  N   UNL     1      -7.812   2.792  -3.524  0.00  0.00    -0.352 N 
ATOM     19  C   UNL     1      -7.529   1.697  -2.594  0.00  0.00    +0.148 C 
ENDBRANCH  13  14
BRANCH  13  20
ATOM     20  C   UNL     1      -5.075   5.339  -3.535  0.00  0.00    +0.240 C 
ATOM     21  O   UNL     1      -4.928   6.459  -3.092  0.00  0.00    -0.273 OA
ATOM     22  N   UNL     1      -4.489   4.993  -4.699  0.00  0.00    -0.311 N 
ATOM     23  H   UNL     1      -4.647   4.115  -5.079  0.00  0.00    +0.149 HD
BRANCH  22  24
ATOM     24  C   UNL     1      -3.615   5.944  -5.390  0.00  0.00    +0.073 C 
ATOM     25  C   UNL     1      -4.462   6.874  -6.262  0.00  0.00    +0.022 C 
ATOM     26  C   UNL     1      -3.549   7.867  -6.984  0.00  0.00    +0.002 C 
ATOM     27  C   UNL     1      -2.559   7.102  -7.865  0.00  0.00    +0.000 C 
ATOM     28  C   UNL     1      -1.713   6.173  -6.994  0.00  0.00    +0.002 C 
ATOM     29  C   UNL     1      -2.626   5.179  -6.271  0.00  0.00    +0.022 C 
ENDBRANCH  22  24
ENDBRANCH  13  20
ENDBRANCH   1  13
BRANCH   2  30
ATOM     30  C   UNL     1      -6.847   4.774   0.900  0.00  0.00    +0.242 C 
BRANCH  30  31
ATOM     31  N   UNL     1      -7.828   3.847   1.470  0.00  0.00    -0.235 N 
ATOM     32  C   UNL     1      -9.180   3.828   1.227  0.00  0.00    +0.090 A 
ATOM     33  C   UNL     1     -10.030   4.591   0.433  0.00  0.00    +0.029 A 
ATOM     34  C   UNL     1     -11.368   4.315   0.410  0.00  0.00    +0.002 A 
ATOM     35  C   UNL     1     -11.887   3.271   1.164  0.00  0.00    +0.002 A 
ATOM     36  C   UNL     1     -11.075   2.504   1.947  0.00  0.00    +0.032 A 
ATOM     37  C   UNL     1      -9.700   2.770   1.993  0.00  0.00    +0.113 A 
ATOM     38  N   UNL     1      -8.672   2.201   2.654  0.00  0.00    -0.129 NA
ATOM     39  N   UNL     1      -7.571   2.803   2.373  0.00  0.00    -0.064 NA
ENDBRANCH  30  31
ENDBRANCH   2  30
TORSDOF 8
