REMARK  Name = ZINC39484346
REMARK  9 active torsions:
REMARK  status: ('A' for Active; 'I' for Inactive)
REMARK    1  A    between atoms: C_1  and  C_2
REMARK    2  A    between atoms: C_2  and  C_3
REMARK    3  A    between atoms: C_3  and  C_4
REMARK    4  A    between atoms: C_4  and  C_6
REMARK    5  A    between atoms: C_8  and  C_24
REMARK    6  A    between atoms: C_28  and  S_30
REMARK    7  A    between atoms: S_30  and  C_33
REMARK    8  A    between atoms: C_33  and  C_34
REMARK    9  A    between atoms: C_33  and  C_35
REMARK                            x       y       z     vdW  Elec       q    Type
REMARK                         _______ _______ _______ _____ _____    ______ ____
ROOT
ATOM      1  C   UNL     1       1.391  -2.743  -2.406  0.00  0.00    +0.088 C 
ATOM      2  C   UNL     1       1.834  -4.124  -1.931  0.00  0.00    +0.061 C 
ATOM      3  C   UNL     1       2.371  -4.946  -3.071  0.00  0.00    -0.025 A 
ATOM      4  C   UNL     1       3.229  -5.993  -2.796  0.00  0.00    +0.054 A 
ATOM      5  C   UNL     1       3.740  -6.773  -3.824  0.00  0.00    +0.167 A 
ATOM      6  C   UNL     1       3.390  -6.505  -5.149  0.00  0.00    +0.167 A 
ATOM      7  C   UNL     1       2.533  -5.462  -5.435  0.00  0.00    +0.061 A 
ATOM      8  C   UNL     1       2.022  -4.675  -4.396  0.00  0.00    +0.026 A 
ATOM      9  C   UNL     1       1.117  -3.555  -4.708  0.00  0.00    +0.178 C 
ATOM     10  O   UNL     1       0.961  -3.173  -5.849  0.00  0.00    -0.291 OA
ATOM     11  C   UNL     1       0.387  -2.898  -3.555  0.00  0.00    +0.139 C 
ATOM     12 BR   UNL     1      -0.278  -1.131  -4.105  0.00  0.00    -0.079 Br
ATOM     13  O   UNL     1       4.020  -7.406  -5.957  0.00  0.00    -0.453 OA
ATOM     14  C   UNL     1       5.077  -7.967  -5.156  0.00  0.00    +0.466 C 
ATOM     15  O   UNL     1       4.588  -7.840  -3.808  0.00  0.00    -0.453 OA
ENDROOT
BRANCH   2  16
ATOM     16  C   UNL     1       2.910  -3.966  -0.888  0.00  0.00    -0.037 A 
ATOM     17  C   UNL     1       4.089  -3.316  -1.204  0.00  0.00    +0.004 A 
ATOM     18  C   UNL     1       5.076  -3.171  -0.247  0.00  0.00    +0.002 A 
ATOM     19  C   UNL     1       4.884  -3.675   1.026  0.00  0.00    +0.027 A 
ATOM     20  C   UNL     1       3.705  -4.323   1.342  0.00  0.00    +0.089 A 
ATOM     21  C   UNL     1       2.716  -4.465   0.386  0.00  0.00    +0.031 A 
BRANCH  20  22
ATOM     22  S   UNL     1       3.461  -4.966   2.964  0.00  0.00    -0.001 S 
ATOM     23  O   UNL     1       2.537  -6.032   2.797  0.00  0.00    -0.169 OA
ATOM     24  O   UNL     1       4.771  -5.214   3.457  0.00  0.00    -0.169 OA
BRANCH  22  25
ATOM     25  C   UNL     1       2.691  -3.611   3.892  0.00  0.00    +0.130 C 
ATOM     26  C   UNL     1       1.366  -3.228   3.229  0.00  0.00    +0.032 C 
ATOM     27  C   UNL     1       2.430  -4.061   5.331  0.00  0.00    +0.032 C 
ENDBRANCH  22  25
ENDBRANCH  20  22
ENDBRANCH   2  16
BRANCH   1  28
ATOM     28  C   UNL     1       0.739  -2.004  -1.265  0.00  0.00    +0.139 C 
ATOM     29  O   UNL     1       0.233  -2.620  -0.358  0.00  0.00    -0.297 OA
BRANCH  28  30
ATOM     30  C   UNL     1       0.718  -0.497  -1.257  0.00  0.00    +0.074 C 
BRANCH  30  32
ATOM     31  C   UNL     1      -0.019   1.526   0.010  0.00  0.00    +0.004 C 
ATOM     32  C   UNL     1       0.002  -0.004   0.002  0.00  0.00    +0.004 C 
ENDBRANCH  30  32
ENDBRANCH  28  30
ENDBRANCH   1  28
TORSDOF 6
