REMARK  Name = ZINC36233785
REMARK  3 active torsions:
REMARK  status: ('A' for Active; 'I' for Inactive)
REMARK    1  A    between atoms: C_2  and  N_19
REMARK    2  A    between atoms: C_4  and  N_6
REMARK    3  A    between atoms: C_7  and  C_9
REMARK                            x       y       z     vdW  Elec       q    Type
REMARK                         _______ _______ _______ _____ _____    ______ ____
ROOT
ATOM      1  N   UNL     1      -0.367  -0.692   1.241  0.00  0.00    -0.314 N 
ATOM      2  C   UNL     1      -1.183  -1.764   1.199  0.00  0.00    +0.219 C 
ATOM      3  O   UNL     1      -1.612  -2.159   0.136  0.00  0.00    -0.275 OA
ATOM      4  H   UNL     1      -0.025  -0.377   2.092  0.00  0.00    +0.149 HD
ENDROOT
BRANCH   2   5
ATOM      5  C   UNL     1      -1.564  -2.472   2.474  0.00  0.00    +0.048 C 
ATOM      6  C   UNL     1      -2.284  -1.495   3.405  0.00  0.00    +0.019 C 
ATOM      7  C   UNL     1      -2.670  -2.214   4.699  0.00  0.00    -0.009 C 
ATOM      8  C   UNL     1      -3.598  -3.387   4.374  0.00  0.00    +0.007 C 
ATOM      9  C   UNL     1      -2.877  -4.364   3.443  0.00  0.00    -0.009 C 
ATOM     10  C   UNL     1      -2.491  -3.645   2.149  0.00  0.00    +0.019 C 
ATOM     11  C   UNL     1      -1.615  -4.887   4.132  0.00  0.00    +0.007 C 
ATOM     12  C   UNL     1      -0.687  -3.714   4.457  0.00  0.00    -0.009 C 
ATOM     13  C   UNL     1      -1.408  -2.737   5.388  0.00  0.00    +0.007 C 
ATOM     14  C   UNL     1      -0.301  -2.995   3.163  0.00  0.00    +0.019 C 
ENDBRANCH   2   5
BRANCH   1  17
ATOM     15  C   UNL     1      -0.019   1.526   0.010  0.00  0.00    +0.006 C 
ATOM     16  C   UNL     1       1.317   0.779  -0.006  0.00  0.00    -0.053 C 
ATOM     17  C   UNL     1       0.002  -0.004   0.002  0.00  0.00    +0.057 C 
BRANCH  16  18
ATOM     18  N   UNL     1       2.088   0.797  -1.256  0.00  0.00    +0.381 N 
ATOM     19  H   UNL     1       2.926   1.343  -1.127  0.00  0.00    -0.090 HD
ATOM     20  H   UNL     1       2.338  -0.147  -1.511  0.00  0.00    -0.090 HD
ATOM     21  H   UNL     1       1.530   1.206  -1.990  0.00  0.00    -0.090 HD
ENDBRANCH  16  18
ENDBRANCH   1  17
TORSDOF 3
