REMARK  Name = ZINC52924747
REMARK  6 active torsions:
REMARK  status: ('A' for Active; 'I' for Inactive)
REMARK    1  A    between atoms: C_1  and  C_2
REMARK    2  A    between atoms: C_4  and  C_17
REMARK    3  A    between atoms: C_6  and  C_8
REMARK    4  A    between atoms: C_11  and  C_13
REMARK    5  A    between atoms: C_13  and  C_15
REMARK    6  A    between atoms: C_13  and  O_16
REMARK                            x       y       z     vdW  Elec       q    Type
REMARK                         _______ _______ _______ _____ _____    ______ ____
ROOT
ATOM      1  C   UNL     1       0.053  -2.845   2.457  0.00  0.00    +0.135 A 
ATOM      2  C   UNL     1       0.046  -2.303   3.704  0.00  0.00    +0.050 A 
ATOM      3  C   UNL     1       0.066  -3.378   4.615  0.00  0.00    +0.048 A 
ATOM      4  C   UNL     1       0.084  -4.511   3.887  0.00  0.00    +0.134 A 
ATOM      5  O   UNL     1       0.070  -4.186   2.584  0.00  0.00    -0.457 OA
ENDROOT
BRANCH   1  11
ATOM      6  C   UNL     1      -0.018   1.503   0.010  0.00  0.00    +0.044 C 
ATOM      7  C   UNL     1       0.002  -0.004   0.002  0.00  0.00    -0.050 A 
ATOM      8  C   UNL     1       0.006  -0.688  -1.201  0.00  0.00    +0.006 A 
ATOM      9  C   UNL     1       0.025  -2.071  -1.217  0.00  0.00    -0.050 A 
ATOM     10  C   UNL     1       0.040  -2.778  -0.033  0.00  0.00    +0.015 A 
ATOM     11  C   UNL     1       0.036  -2.095   1.184  0.00  0.00    +0.018 A 
ATOM     12  C   UNL     1       0.023  -0.699   1.194  0.00  0.00    +0.015 A 
ATOM     13  C   UNL     1       0.028  -2.807  -2.532  0.00  0.00    +0.044 C 
ENDBRANCH   1  11
BRANCH   4  14
ATOM     14  C   UNL     1       0.110  -5.912   4.442  0.00  0.00    +0.177 C 
ATOM     15  C   UNL     1      -1.301  -6.503   4.401  0.00  0.00    +0.046 C 
BRANCH  14  16
ATOM     16  O   UNL     1       0.988  -6.720   3.657  0.00  0.00    -0.384 OA
ATOM     17  H   UNL     1       1.053  -7.637   3.958  0.00  0.00    +0.210 HD
ENDBRANCH  14  16
ENDBRANCH   4  14
TORSDOF 3
