REMARK  Name = ZINC35514477
REMARK  9 active torsions:
REMARK  status: ('A' for Active; 'I' for Inactive)
REMARK    1  A    between atoms: C_1  and  C_2
REMARK    2  A    between atoms: C_2  and  O_3
REMARK    3  A    between atoms: O_3  and  C_4
REMARK    4  A    between atoms: C_7  and  C_13
REMARK    5  A    between atoms: C_9  and  O_10
REMARK    6  A    between atoms: O_10  and  C_11
REMARK    7  A    between atoms: C_11  and  C_12
REMARK    8  A    between atoms: C_20  and  C_36
REMARK    9  A    between atoms: C_21  and  C_35
REMARK                            x       y       z     vdW  Elec       q    Type
REMARK                         _______ _______ _______ _____ _____    ______ ____
ROOT
ATOM      1  C   UNL     1       1.107  -6.044  -1.844  0.00  0.00    +0.151 C 
ATOM      2  C   UNL     1       2.209  -6.581  -0.990  0.00  0.00    +0.072 A 
ATOM      3  C   UNL     1       3.650  -6.306  -0.987  0.00  0.00    +0.199 A 
ATOM      4  O   UNL     1       4.159  -5.405  -1.631  0.00  0.00    -0.287 OA
ATOM      5  C   UNL     1       4.429  -7.229  -0.124  0.00  0.00    +0.065 A 
ATOM      6  C   UNL     1       5.823  -7.227  -0.166  0.00  0.00    +0.019 A 
ATOM      7  C   UNL     1       6.526  -8.087   0.631  0.00  0.00    -0.047 A 
ATOM      8  C   UNL     1       5.857  -8.959   1.479  0.00  0.00    -0.044 A 
ATOM      9  C   UNL     1       4.482  -8.973   1.535  0.00  0.00    +0.050 A 
ATOM     10  C   UNL     1       3.741  -8.104   0.733  0.00  0.00    +0.140 A 
ATOM     11  O   UNL     1       2.391  -8.127   0.811  0.00  0.00    -0.450 OA
ATOM     12  C   UNL     1       1.659  -7.468  -0.109  0.00  0.00    +0.199 A 
ATOM     13  C   UNL     1       0.211  -7.537  -0.365  0.00  0.00    +0.288 C 
ATOM     14  O   UNL     1      -0.572  -8.238   0.245  0.00  0.00    -0.266 OA
ATOM     15  N   UNL     1      -0.122  -6.708  -1.378  0.00  0.00    -0.238 N 
ATOM     16  C   UNL     1      -1.402  -6.513  -1.891  0.00  0.00    +0.129 A 
ATOM     17  C   UNL     1      -1.580  -5.706  -3.010  0.00  0.00    +0.044 A 
ATOM     18  C   UNL     1      -2.857  -5.521  -3.509  0.00  0.00    +0.005 A 
ATOM     19  C   UNL     1      -3.916  -6.151  -2.870  0.00  0.00    +0.020 A 
ATOM     20  C   UNL     1      -3.666  -6.938  -1.763  0.00  0.00    +0.113 A 
ATOM     21  N   UNL     1      -2.437  -7.101  -1.313  0.00  0.00    -0.240 NA
ATOM     22  C   UNL     1       6.646  -9.903   2.349  0.00  0.00    +0.044 C 
ATOM     23  C   UNL     1       8.033  -8.088   0.590  0.00  0.00    +0.044 C 
ENDROOT
BRANCH   1  27
ATOM     24  C   UNL     1       0.777  -1.811  -1.336  0.00  0.00    +0.162 A 
ATOM     25  C   UNL     1       0.243  -2.669  -0.388  0.00  0.00    +0.050 A 
ATOM     26  C   UNL     1       0.352  -4.037  -0.555  0.00  0.00    +0.009 A 
ATOM     27  C   UNL     1       0.992  -4.552  -1.667  0.00  0.00    -0.018 A 
ATOM     28  C   UNL     1       1.526  -3.702  -2.616  0.00  0.00    +0.055 A 
ATOM     29  C   UNL     1       1.416  -2.330  -2.458  0.00  0.00    +0.162 A 
BRANCH  24  30
ATOM     30  O   UNL     1       0.671  -0.465  -1.174  0.00  0.00    -0.489 OA
BRANCH  30  32
ATOM     31  C   UNL     1      -0.019   1.526   0.010  0.00  0.00    +0.048 C 
ATOM     32  C   UNL     1       0.002  -0.004   0.002  0.00  0.00    +0.226 C 
ENDBRANCH  30  32
ENDBRANCH  24  30
BRANCH  29  33
ATOM     33  O   UNL     1       1.936  -1.492  -3.394  0.00  0.00    -0.489 OA
BRANCH  33  34
ATOM     34  C   UNL     1       2.578  -2.095  -4.520  0.00  0.00    +0.226 C 
ATOM     35  C   UNL     1       3.096  -1.002  -5.457  0.00  0.00    +0.048 C 
ENDBRANCH  33  34
ENDBRANCH  29  33
ENDBRANCH   1  27
TORSDOF 5
