REMARK  Name = ZINC40041718
REMARK  9 active torsions:
REMARK  status: ('A' for Active; 'I' for Inactive)
REMARK    1  A    between atoms: C_1  and  C_2
REMARK    2  A    between atoms: C_2  and  C_3
REMARK    3  A    between atoms: C_3  and  N_4
REMARK    4  A    between atoms: C_5  and  C_22
REMARK    5  A    between atoms: C_12  and  C_21
REMARK    6  A    between atoms: C_14  and  C_20
REMARK    7  A    between atoms: C_25  and  O_28
REMARK    8  A    between atoms: O_28  and  C_29
REMARK    9  A    between atoms: C_29  and  C_30
REMARK                            x       y       z     vdW  Elec       q    Type
REMARK                         _______ _______ _______ _____ _____    ______ ____
ROOT
ATOM      1  N   UNL     1      -1.413  -1.998   0.005  0.00  0.00    -0.284 N 
ATOM      2  C   UNL     1      -1.407  -2.857  -1.191  0.00  0.00    +0.144 C 
ATOM      3  C   UNL     1      -1.388  -4.261  -0.684  0.00  0.00    +0.072 A 
ATOM      4  C   UNL     1      -1.384  -5.545  -1.394  0.00  0.00    +0.199 A 
ATOM      5  O   UNL     1      -1.221  -5.641  -2.598  0.00  0.00    -0.287 OA
ATOM      6  C   UNL     1      -1.598  -6.716  -0.506  0.00  0.00    +0.065 A 
ATOM      7  C   UNL     1      -1.819  -7.982  -1.048  0.00  0.00    +0.018 A 
ATOM      8  C   UNL     1      -2.019  -9.049  -0.217  0.00  0.00    -0.049 A 
ATOM      9  C   UNL     1      -2.003  -8.875   1.160  0.00  0.00    +0.010 A 
ATOM     10  C   UNL     1      -1.785  -7.633   1.712  0.00  0.00    -0.007 A 
ATOM     11  C   UNL     1      -1.576  -6.528   0.885  0.00  0.00    +0.142 A 
ATOM     12  O   UNL     1      -1.354  -5.319   1.449  0.00  0.00    -0.449 OA
ATOM     13  C   UNL     1      -1.378  -4.212   0.681  0.00  0.00    +0.199 A 
ATOM     14  C   UNL     1      -1.392  -2.797   1.092  0.00  0.00    +0.283 C 
ATOM     15  O   UNL     1      -1.386  -2.406   2.242  0.00  0.00    -0.267 OA
ATOM     16  C   UNL     1      -1.772  -7.465   3.209  0.00  0.00    +0.047 C 
ATOM     17  C   UNL     1      -2.257 -10.419  -0.798  0.00  0.00    +0.044 C 
ENDROOT
BRANCH   2  18
ATOM     18  C   UNL     1      -0.178  -2.585  -2.020  0.00  0.00    -0.022 A 
ATOM     19  C   UNL     1       1.040  -2.376  -1.400  0.00  0.00    +0.009 A 
ATOM     20  C   UNL     1       2.168  -2.126  -2.157  0.00  0.00    +0.046 A 
ATOM     21  C   UNL     1       2.078  -2.085  -3.541  0.00  0.00    +0.121 A 
ATOM     22  C   UNL     1       0.854  -2.295  -4.161  0.00  0.00    +0.046 A 
ATOM     23  C   UNL     1      -0.270  -2.550  -3.399  0.00  0.00    +0.009 A 
BRANCH  21  24
ATOM     24  O   UNL     1       3.186  -1.839  -4.288  0.00  0.00    -0.483 OA
BRANCH  24  25
ATOM     25  C   UNL     1       3.018  -1.811  -5.707  0.00  0.00    +0.324 C 
BRANCH  25  26
ATOM     26  C   UNL     1       4.345  -1.526  -6.364  0.00  0.00    +0.248 C 
ATOM     27  O   UNL     1       5.335  -1.363  -5.684  0.00  0.00    -0.272 OA
ATOM     28  N   UNL     1       4.429  -1.453  -7.707  0.00  0.00    -0.327 N 
ATOM     29  H   UNL     1       3.637  -1.583  -8.251  0.00  0.00    +0.145 HD
ATOM     30  H   UNL     1       5.283  -1.270  -8.130  0.00  0.00    +0.145 HD
ENDBRANCH  25  26
ENDBRANCH  24  25
ENDBRANCH  21  24
ENDBRANCH   2  18
BRANCH   1  31
ATOM     31  C   UNL     1      -1.433  -0.534   0.013  0.00  0.00    +0.109 C 
BRANCH  31  33
ATOM     32  C   UNL     1      -0.019   1.526   0.010  0.00  0.00    +0.005 C 
ATOM     33  C   UNL     1       0.002  -0.004   0.002  0.00  0.00    +0.016 C 
ENDBRANCH  31  33
ENDBRANCH   1  31
TORSDOF 6
