REMARK  Name = ZINC04224925
REMARK  6 active torsions:
REMARK  status: ('A' for Active; 'I' for Inactive)
REMARK    1  A    between atoms: C_1  and  C_2
REMARK    2  A    between atoms: C_7  and  N_8
REMARK    3  A    between atoms: C_9  and  N_17
REMARK    4  A    between atoms: C_18  and  C_20
REMARK    5  A    between atoms: C_24  and  N_27
REMARK    6  A    between atoms: C_25  and  C_26
REMARK                            x       y       z     vdW  Elec       q    Type
REMARK                         _______ _______ _______ _____ _____    ______ ____
ROOT
ATOM      1  N   UNL     1      -3.616   0.602  -1.028  0.00  0.00    -0.218 N 
ATOM      2  C   UNL     1      -2.550  -0.236  -1.040  0.00  0.00    +0.133 A 
ATOM      3  C   UNL     1      -3.031  -1.520  -1.163  0.00  0.00    +0.029 A 
ATOM      4  C   UNL     1      -4.413  -1.450  -1.218  0.00  0.00    +0.082 A 
ATOM      5  N   UNL     1      -4.769  -0.176  -1.141  0.00  0.00    -0.168 NA
ATOM      6  C   UNL     1      -5.163  -2.775  -1.352  0.00  0.00    +0.161 C 
ATOM      7  S   UNL     1      -3.861  -3.992  -0.896  0.00  0.00    +0.033 S 
ATOM      8  O   UNL     1      -3.936  -4.267   0.496  0.00  0.00    -0.257 OA
ATOM      9  C   UNL     1      -2.410  -2.913  -1.232  0.00  0.00    +0.144 C 
ENDROOT
BRANCH   1  16
ATOM     10  C   UNL     1      -5.183   2.142  -2.838  0.00  0.00    +0.046 C 
ATOM     11  C   UNL     1      -4.317   2.787  -1.787  0.00  0.00    -0.025 A 
ATOM     12  C   UNL     1      -4.267   4.163  -1.681  0.00  0.00    +0.005 A 
ATOM     13  C   UNL     1      -3.473   4.756  -0.717  0.00  0.00    +0.000 A 
ATOM     14  C   UNL     1      -2.727   3.973   0.145  0.00  0.00    +0.002 A 
ATOM     15  C   UNL     1      -2.775   2.597   0.047  0.00  0.00    +0.028 A 
ATOM     16  C   UNL     1      -3.568   1.998  -0.924  0.00  0.00    +0.070 A 
ENDBRANCH   1  16
BRANCH   2  17
ATOM     17  N   UNL     1      -1.210   0.135  -0.950  0.00  0.00    -0.266 N 
ATOM     18  C   UNL     1      -0.258  -0.637  -1.511  0.00  0.00    +0.250 C 
ATOM     19  O   UNL     1      -0.559  -1.695  -2.027  0.00  0.00    -0.270 OA
ATOM     20  H   UNL     1      -0.962   0.948  -0.483  0.00  0.00    +0.157 HD
BRANCH  18  21
ATOM     21  C   UNL     1       1.153  -0.195  -1.499  0.00  0.00    +0.042 A 
ATOM     22  C   UNL     1       1.523   0.953  -0.795  0.00  0.00    +0.013 A 
ATOM     23  C   UNL     1       2.842   1.356  -0.784  0.00  0.00    +0.003 A 
ATOM     24  C   UNL     1       3.797   0.629  -1.472  0.00  0.00    +0.033 A 
ATOM     25  C   UNL     1       3.436  -0.507  -2.175  0.00  0.00    +0.130 A 
ATOM     26  C   UNL     1       2.121  -0.922  -2.194  0.00  0.00    -0.008 A 
ATOM     27  C   UNL     1       1.730  -2.159  -2.961  0.00  0.00    +0.047 C 
BRANCH  25  28
ATOM     28  N   UNL     1       4.465  -1.279  -2.909  0.00  0.00    +0.057 N 
ATOM     29  O   UNL     1       5.601  -0.850  -2.995  0.00  0.00    -0.126 OA
ATOM     30  O   UNL     1       4.174  -2.342  -3.426  0.00  0.00    -0.126 OA
ENDBRANCH  25  28
ENDBRANCH  18  21
ENDBRANCH   2  17
TORSDOF 4
