REMARK  Name = ZINC58551515
REMARK  10 active torsions:
REMARK  status: ('A' for Active; 'I' for Inactive)
REMARK    1  A    between atoms: C_1  and  C_2
REMARK    2  A    between atoms: C_2  and  C_3
REMARK    3  A    between atoms: C_3  and  C_7
REMARK    4  A    between atoms: C_4  and  C_6
REMARK    5  A    between atoms: C_7  and  C_9
REMARK    6  A    between atoms: C_9  and  O_10
REMARK    7  A    between atoms: O_10  and  C_11
REMARK    8  A    between atoms: C_11  and  C_13
REMARK    9  A    between atoms: C_15  and  C_25
REMARK   10  A    between atoms: N_16  and  C_18
REMARK                            x       y       z     vdW  Elec       q    Type
REMARK                         _______ _______ _______ _____ _____    ______ ____
ROOT
ATOM      1  C   UNL     1       0.408  -6.831  -0.686  0.00  0.00    +0.260 A 
ATOM      2  N   UNL     1       0.223  -7.401   0.512  0.00  0.00    -0.200 NA
ATOM      3  C   UNL     1       0.298  -8.711   0.398  0.00  0.00    +0.171 A 
ATOM      4  N   UNL     1       0.540  -9.003  -0.915  0.00  0.00    -0.211 N 
ATOM      5  N   UNL     1       0.600  -7.772  -1.588  0.00  0.00    -0.137 NA
ENDROOT
BRANCH   4   6
ATOM      6  C   UNL     1       0.693 -10.276  -1.478  0.00  0.00    +0.068 A 
ATOM      7  C   UNL     1      -0.198 -11.291  -1.155  0.00  0.00    +0.030 A 
ATOM      8  C   UNL     1      -0.046 -12.546  -1.711  0.00  0.00    +0.040 A 
ATOM      9  C   UNL     1       0.994 -12.793  -2.591  0.00  0.00    +0.124 A 
ATOM     10  C   UNL     1       1.884 -11.782  -2.915  0.00  0.00    +0.040 A 
ATOM     11  C   UNL     1       1.732 -10.524  -2.365  0.00  0.00    +0.030 A 
ATOM     12  F   UNL     1       1.141 -14.021  -3.134  0.00  0.00    -0.205 F 
ENDBRANCH   4   6
BRANCH   3  13
ATOM     13  C   UNL     1       0.150  -9.687   1.489  0.00  0.00    +0.056 A 
ATOM     14  C   UNL     1      -0.404  -9.514   2.733  0.00  0.00    +0.019 A 
ATOM     15  C   UNL     1      -0.432 -10.584   3.597  0.00  0.00    +0.008 A 
ATOM     16  C   UNL     1       0.086 -11.775   3.195  0.00  0.00    +0.046 A 
ATOM     17  S   UNL     1       0.635 -11.404   1.538  0.00  0.00    -0.094 S 
ENDBRANCH   3  13
BRANCH   1  18
ATOM     18  C   UNL     1       0.393  -5.378  -0.954  0.00  0.00    +0.379 C 
ATOM     19  O   UNL     1       0.567  -4.967  -2.084  0.00  0.00    -0.241 OA
BRANCH  18  20
ATOM     20  O   UNL     1       0.186  -4.509   0.054  0.00  0.00    -0.451 OA
BRANCH  20  21
ATOM     21  C   UNL     1       0.184  -3.119  -0.277  0.00  0.00    +0.312 C 
BRANCH  21  22
ATOM     22  C   UNL     1      -0.060  -2.306   0.968  0.00  0.00    +0.205 C 
ATOM     23  O   UNL     1      -0.125  -2.855   2.048  0.00  0.00    -0.288 OA
BRANCH  22  24
ATOM     24  C   UNL     1      -0.219  -0.856   0.874  0.00  0.00    +0.083 C 
ATOM     25  C   UNL     1      -1.380  -0.261   1.316  0.00  0.00    +0.165 C 
ATOM     26  O   UNL     1      -1.480   1.078   1.341  0.00  0.00    -0.292 OA
ATOM     27  C   UNL     1      -2.538  -1.112   1.770  0.00  0.00    +0.092 C 
BRANCH  24  29
ATOM     28  C   UNL     1       1.873   0.613   1.220  0.00  0.00    +0.066 C 
ATOM     29  C   UNL     1       0.861  -0.033   0.308  0.00  0.00    +0.043 C 
ATOM     30  N   UNL     1       0.942   0.138  -0.974  0.00  0.00    -0.303 NA
ATOM     31  H   UNL     1       0.251  -0.216  -1.555  0.00  0.00    +0.186 HD
ENDBRANCH  24  29
ENDBRANCH  22  24
ENDBRANCH  21  22
ENDBRANCH  20  21
ENDBRANCH  18  20
ENDBRANCH   1  18
TORSDOF 8
