REMARK  Name = ZINC39188829
REMARK  2 active torsions:
REMARK  status: ('A' for Active; 'I' for Inactive)
REMARK    1  A    between atoms: C_2  and  N_19
REMARK    2  A    between atoms: C_4  and  C_9
REMARK                            x       y       z     vdW  Elec       q    Type
REMARK                         _______ _______ _______ _____ _____    ______ ____
ROOT
ATOM      1  C   UNL     1      -0.017   1.397   0.010  0.00  0.00    +0.113 A 
ATOM      2  C   UNL     1       1.192   2.073   0.002  0.00  0.00    +0.123 A 
ATOM      3  N   UNL     1       2.339   1.377  -0.013  0.00  0.00    -0.219 NA
ATOM      4  C   UNL     1       2.340   0.072  -0.020  0.00  0.00    +0.118 A 
ATOM      5  N   UNL     1       1.194  -0.637  -0.013  0.00  0.00    -0.310 N 
ATOM      6  H   UNL     1       1.226  -1.606  -0.019  0.00  0.00    +0.170 HD
ATOM      7  C   UNL     1       0.002  -0.004   0.002  0.00  0.00    +0.253 A 
ATOM      8  O   UNL     1      -1.040  -0.640   0.009  0.00  0.00    -0.268 OA
ENDROOT
BRANCH   4   9
ATOM      9  C   UNL     1       3.657  -0.660  -0.036  0.00  0.00    +0.029 C 
ATOM     10  C   UNL     1       3.740  -1.532  -1.291  0.00  0.00    +0.018 C 
ATOM     11  C   UNL     1       5.076  -2.276  -1.308  0.00  0.00    -0.010 C 
ATOM     12  C   UNL     1       6.223  -1.264  -1.313  0.00  0.00    +0.007 C 
ATOM     13  C   UNL     1       6.141  -0.393  -0.059  0.00  0.00    -0.010 C 
ATOM     14  C   UNL     1       4.804   0.352  -0.042  0.00  0.00    +0.018 C 
ATOM     15  C   UNL     1       6.247  -1.278   1.185  0.00  0.00    +0.007 C 
ATOM     16  C   UNL     1       5.100  -2.290   1.190  0.00  0.00    -0.010 C 
ATOM     17  C   UNL     1       5.183  -3.161  -0.064  0.00  0.00    +0.007 C 
ATOM     18  C   UNL     1       3.763  -1.546   1.207  0.00  0.00    +0.018 C 
ENDBRANCH   4   9
BRANCH   2  19
ATOM     19  N   UNL     1       1.216   3.453   0.009  0.00  0.00    -0.343 N 
ATOM     20  H   UNL     1       0.385   3.953   0.019  0.00  0.00    +0.144 HD
ATOM     21  H   UNL     1       2.065   3.923   0.003  0.00  0.00    +0.144 HD
ENDBRANCH   2  19
TORSDOF 2
