REMARK  Name = ZINC32643312
REMARK  8 active torsions:
REMARK  status: ('A' for Active; 'I' for Inactive)
REMARK    1  A    between atoms: C_1  and  N_2
REMARK    2  A    between atoms: C_6  and  C_8
REMARK    3  A    between atoms: C_8  and  C_9
REMARK    4  A    between atoms: C_9  and  N_10
REMARK    5  A    between atoms: C_11  and  C_13
REMARK    6  A    between atoms: N_23  and  S_24
REMARK    7  A    between atoms: S_24  and  C_27
REMARK    8  A    between atoms: C_30  and  C_33
REMARK                            x       y       z     vdW  Elec       q    Type
REMARK                         _______ _______ _______ _____ _____    ______ ____
ROOT
ATOM      1  C   UNL     1      -0.048   5.905   1.825  0.00  0.00    +0.170 C 
ATOM      2  C   UNL     1       1.451   5.672   2.011  0.00  0.00    +0.065 C 
ATOM      3  C   UNL     1       1.808   4.234   1.744  0.00  0.00    -0.041 A 
ATOM      4  C   UNL     1       3.011   3.763   2.256  0.00  0.00    +0.004 A 
ATOM      5  C   UNL     1       3.409   2.462   2.028  0.00  0.00    +0.000 A 
ATOM      6  C   UNL     1       2.606   1.617   1.284  0.00  0.00    +0.000 A 
ATOM      7  C   UNL     1       1.412   2.083   0.774  0.00  0.00    +0.005 A 
ATOM      8  C   UNL     1       1.005   3.389   1.011  0.00  0.00    -0.028 A 
ATOM      9  C   UNL     1      -0.321   3.827   0.442  0.00  0.00    +0.145 C 
ATOM     10  N   UNL     1      -0.448   5.284   0.551  0.00  0.00    -0.160 NA
ENDROOT
BRANCH   1  12
ATOM     11  N   UNL     1      -1.340   7.896   2.519  0.00  0.00    -0.314 N 
ATOM     12  C   UNL     1      -0.334   7.384   1.784  0.00  0.00    +0.232 C 
ATOM     13  O   UNL     1       0.341   8.113   1.088  0.00  0.00    -0.274 OA
ATOM     14  H   UNL     1      -1.952   7.234   3.150  0.00  0.00    +0.149 HD
BRANCH  11  15
ATOM     15  C   UNL     1      -1.619   9.334   2.479  0.00  0.00    +0.102 C 
BRANCH  15  16
ATOM     16  C   UNL     1      -2.801   9.650   3.398  0.00  0.00    +0.003 C 
BRANCH  16  22
ATOM     17  C   UNL     1      -4.806  10.239   4.813  0.00  0.00    -0.096 C 
ATOM     18  N   UNL     1      -4.269  11.457   4.192  0.00  0.00    +0.380 N 
ATOM     19  C   UNL     1      -3.820  12.422   5.218  0.00  0.00    -0.079 C 
ATOM     20  C   UNL     1      -2.600  13.135   4.583  0.00  0.00    -0.020 C 
ATOM     21  C   UNL     1      -1.924  11.973   3.804  0.00  0.00    -0.017 C 
ATOM     22  C   UNL     1      -3.128  11.142   3.312  0.00  0.00    -0.068 C 
ATOM     23  H   UNL     1      -5.083  11.896   3.597  0.00  0.00    -0.082 HD
ENDBRANCH  16  22
ENDBRANCH  15  16
ENDBRANCH  11  15
ENDBRANCH   1  12
BRANCH  10  24
ATOM     24  S   UNL     1      -1.017   6.195  -0.710  0.00  0.00    +0.062 S 
ATOM     25  O   UNL     1      -1.822   5.334  -1.503  0.00  0.00    -0.153 OA
ATOM     26  O   UNL     1      -1.517   7.400  -0.146  0.00  0.00    -0.153 OA
BRANCH  24  27
ATOM     27  C   UNL     1       0.371   6.640  -1.699  0.00  0.00    +0.106 A 
ATOM     28  C   UNL     1       0.928   7.901  -1.583  0.00  0.00    +0.029 A 
ATOM     29  C   UNL     1       2.019   8.248  -2.357  0.00  0.00    +0.014 A 
ATOM     30  C   UNL     1       2.549   7.339  -3.253  0.00  0.00    +0.055 A 
ATOM     31  C   UNL     1       1.990   6.080  -3.373  0.00  0.00    +0.014 A 
ATOM     32  C   UNL     1       0.901   5.731  -2.596  0.00  0.00    +0.029 A 
BRANCH  30  33
ATOM     33  C   UNL     1       3.736   7.720  -4.100  0.00  0.00    +0.417 C 
ATOM     34  F   UNL     1       3.291   8.287  -5.298  0.00  0.00    -0.166 F 
ATOM     35  F   UNL     1       4.524   8.646  -3.409  0.00  0.00    -0.166 F 
ATOM     36  F   UNL     1       4.495   6.578  -4.378  0.00  0.00    -0.166 F 
ENDBRANCH  30  33
ENDBRANCH  24  27
ENDBRANCH  10  24
TORSDOF 7
