REMARK  Name = ZINC10134733
REMARK  10 active torsions:
REMARK  status: ('A' for Active; 'I' for Inactive)
REMARK    1  A    between atoms: C_1  and  C_2
REMARK    2  A    between atoms: C_2  and  C_3
REMARK    3  A    between atoms: N_11  and  C_15
REMARK    4  A    between atoms: C_15  and  C_16
REMARK    5  A    between atoms: C_16  and  O_18
REMARK    6  A    between atoms: O_18  and  C_19
REMARK    7  A    between atoms: C_19  and  C_21
REMARK    8  A    between atoms: C_19  and  C_22
REMARK    9  A    between atoms: N_24  and  C_25
REMARK   10  A    between atoms: C_25  and  C_31
REMARK                            x       y       z     vdW  Elec       q    Type
REMARK                         _______ _______ _______ _____ _____    ______ ____
ROOT
ATOM      1  C   UNL     1       5.237   2.618   2.678  0.00  0.00    +0.326 C 
ATOM      2  O   UNL     1       5.510   3.625   2.068  0.00  0.00    -0.249 OA
ENDROOT
BRANCH   1   3
ATOM      3  C   UNL     1       5.973   2.287   3.952  0.00  0.00    +0.238 C 
BRANCH   3  12
ATOM      4  C   UNL     1       7.347   7.568   6.582  0.00  0.00    -0.011 C 
ATOM      5  C   UNL     1       6.815   7.405   5.157  0.00  0.00    +0.006 C 
ATOM      6  C   UNL     1       7.810   6.582   4.334  0.00  0.00    +0.035 C 
ATOM      7  C   UNL     1       8.001   5.216   4.983  0.00  0.00    +0.113 C 
ATOM      8  C   UNL     1       8.511   5.364   6.413  0.00  0.00    +0.035 C 
ATOM      9  C   UNL     1       7.514   6.191   7.228  0.00  0.00    +0.006 C 
ATOM     10  C   UNL     1       6.705   4.438   4.965  0.00  0.00    +0.247 C 
ATOM     11  O   UNL     1       5.659   4.742   5.495  0.00  0.00    -0.273 OA
ATOM     12  N   UNL     1       6.959   3.333   4.232  0.00  0.00    -0.213 N 
ATOM     13  C   UNL     1       8.225   3.310   3.798  0.00  0.00    +0.310 C 
ATOM     14  O   UNL     1       8.691   2.413   3.123  0.00  0.00    -0.252 OA
ATOM     15  N   UNL     1       8.923   4.393   4.190  0.00  0.00    -0.285 N 
ATOM     16  H   UNL     1       9.852   4.588   3.992  0.00  0.00    +0.151 HD
BRANCH   4  18
ATOM     17  C   UNL     1       6.946   8.669   8.789  0.00  0.00    +0.004 C 
ATOM     18  C   UNL     1       6.358   8.399   7.402  0.00  0.00    -0.000 C 
ENDBRANCH   4  18
ENDBRANCH   3  12
ENDBRANCH   1   3
BRANCH   1  19
ATOM     19  O   UNL     1       4.280   1.795   2.223  0.00  0.00    -0.451 OA
BRANCH  19  20
ATOM     20  C   UNL     1       3.614   2.177   0.990  0.00  0.00    +0.259 C 
ATOM     21  C   UNL     1       4.368   1.583  -0.202  0.00  0.00    +0.062 C 
BRANCH  20  22
ATOM     22  C   UNL     1       2.200   1.655   1.001  0.00  0.00    +0.255 C 
ATOM     23  O   UNL     1       1.822   0.948   1.910  0.00  0.00    -0.272 OA
ATOM     24  N   UNL     1       1.357   1.975  -0.000  0.00  0.00    -0.294 N 
ATOM     25  H   UNL     1       1.659   2.541  -0.728  0.00  0.00    +0.150 HD
BRANCH  24  26
ATOM     26  C   UNL     1      -0.018   1.468   0.010  0.00  0.00    +0.121 C 
ATOM     27  C   UNL     1      -0.734   1.961   1.269  0.00  0.00    +0.041 C 
ATOM     28  C   UNL     1      -2.169   1.432   1.280  0.00  0.00    +0.003 C 
ATOM     29  C   UNL     1      -2.909   1.938   0.040  0.00  0.00    +0.000 C 
ATOM     30  C   UNL     1      -2.193   1.445  -1.219  0.00  0.00    +0.003 C 
ATOM     31  C   UNL     1      -0.758   1.975  -1.229  0.00  0.00    +0.041 C 
BRANCH  26  32
ATOM     32  C   UNL     1       0.002  -0.004   0.002  0.00  0.00    +0.088 C 
ATOM     33  N   UNL     1       0.018  -1.140  -0.004  0.00  0.00    -0.194 NA
ENDBRANCH  26  32
ENDBRANCH  24  26
ENDBRANCH  20  22
ENDBRANCH  19  20
ENDBRANCH   1  19
TORSDOF 8
