REMARK  Name = ZINC40375719
REMARK  5 active torsions:
REMARK  status: ('A' for Active; 'I' for Inactive)
REMARK    1  A    between atoms: C_1  and  C_2
REMARK    2  A    between atoms: C_5  and  C_8
REMARK    3  A    between atoms: C_5  and  N_12
REMARK    4  A    between atoms: N_9  and  O_10
REMARK    5  A    between atoms: N_15  and  C_16
REMARK                            x       y       z     vdW  Elec       q    Type
REMARK                         _______ _______ _______ _____ _____    ______ ____
ROOT
ATOM      1  C   UNL     1       0.107   1.842   0.024  0.00  0.00    +0.007 C 
ATOM      2  C   UNL     1       0.015   0.315  -0.010  0.00  0.00    -0.014 C 
ATOM      3  C   UNL     1       0.734  -0.211  -1.253  0.00  0.00    +0.006 C 
ATOM      4  C   UNL     1       2.204   0.211  -1.209  0.00  0.00    +0.034 C 
ATOM      5  C   UNL     1       2.864  -0.367   0.044  0.00  0.00    +0.094 C 
ATOM      6  C   UNL     1       2.144   0.159   1.288  0.00  0.00    +0.034 C 
ATOM      7  C   UNL     1       0.674  -0.263   1.244  0.00  0.00    +0.006 C 
ENDROOT
BRANCH   5   8
ATOM      8  N   UNL     1       2.776  -1.830   0.012  0.00  0.00    -0.287 N 
ATOM      9  C   UNL     1       3.428  -2.523  -0.942  0.00  0.00    +0.305 C 
ATOM     10  O   UNL     1       4.014  -1.933  -1.829  0.00  0.00    -0.252 OA
ATOM     11  N   UNL     1       3.430  -3.870  -0.913  0.00  0.00    -0.269 N 
ATOM     12  H   UNL     1       2.249  -2.299   0.677  0.00  0.00    +0.151 HD
ATOM     13  H   UNL     1       2.899  -4.342  -0.254  0.00  0.00    +0.156 HD
BRANCH  11  14
ATOM     14  C   UNL     1       4.200  -4.588  -1.836  0.00  0.00    +0.035 A 
ATOM     15  C   UNL     1       3.739  -5.801  -2.332  0.00  0.00    +0.023 A 
ATOM     16  C   UNL     1       4.500  -6.507  -3.243  0.00  0.00    +0.002 A 
ATOM     17  C   UNL     1       5.721  -6.008  -3.660  0.00  0.00    +0.000 A 
ATOM     18  C   UNL     1       6.183  -4.801  -3.167  0.00  0.00    +0.002 A 
ATOM     19  C   UNL     1       5.423  -4.088  -2.261  0.00  0.00    +0.023 A 
ENDBRANCH  11  14
ENDBRANCH   5   8
BRANCH   5  20
ATOM     20  C   UNL     1       4.311   0.048   0.088  0.00  0.00    +0.155 C 
ATOM     21  N   UNL     1       4.800   0.787  -0.852  0.00  0.00    -0.075 NA
ATOM     22  N   UNL     1       5.114  -0.360   1.130  0.00  0.00    -0.342 N 
ATOM     23  H   UNL     1       4.768  -0.974   1.797  0.00  0.00    +0.144 HD
ATOM     24  H   UNL     1       6.025  -0.034   1.197  0.00  0.00    +0.144 HD
BRANCH  21  25
ATOM     25  O   UNL     1       6.160   1.178  -0.812  0.00  0.00    -0.408 OA
ATOM     26  H   UNL     1       6.434   1.729  -1.557  0.00  0.00    +0.328 HD
ENDBRANCH  21  25
ENDBRANCH   5  20
TORSDOF 4
