REMARK  Name = ZINC36652273
REMARK  9 active torsions:
REMARK  status: ('A' for Active; 'I' for Inactive)
REMARK    1  A    between atoms: C_1  and  C_2
REMARK    2  A    between atoms: C_2  and  O_3
REMARK    3  A    between atoms: O_3  and  C_4
REMARK    4  A    between atoms: C_7  and  N_10
REMARK    5  A    between atoms: C_12  and  C_17
REMARK    6  A    between atoms: C_17  and  N_19
REMARK    7  A    between atoms: C_22  and  C_25
REMARK    8  A    between atoms: C_25  and  N_26
REMARK    9  A    between atoms: C_29  and  C_32
REMARK                            x       y       z     vdW  Elec       q    Type
REMARK                         _______ _______ _______ _____ _____    ______ ____
ROOT
ATOM      1  C   UNL     1       3.403  -8.159  -2.099  0.00  0.00    +0.243 C 
ATOM      2  O   UNL     1       4.128  -7.183  -2.086  0.00  0.00    -0.273 OA
ENDROOT
BRANCH   1   3
ATOM      3  N   UNL     1       3.861  -9.333  -1.683  0.00  0.00    -0.156 NA
ATOM      4  C   UNL     1       5.119  -9.442  -1.248  0.00  0.00    +0.163 A 
ATOM      5  N   UNL     1       5.762 -10.550  -0.792  0.00  0.00    -0.341 N 
ATOM      6  C   UNL     1       7.058 -10.439  -0.395  0.00  0.00    +0.008 A 
ATOM      7  C   UNL     1       7.625  -9.231  -0.480  0.00  0.00    +0.067 A 
ATOM      8  S   UNL     1       6.294  -8.244  -1.140  0.00  0.00    -0.061 S 
ATOM      9  H   UNL     1       5.304 -11.404  -0.751  0.00  0.00    +0.167 HD
BRANCH   6  10
ATOM     10  C   UNL     1       7.824 -11.630   0.120  0.00  0.00    -0.024 C 
BRANCH  10  11
ATOM     11  N   UNL     1       7.222 -12.094   1.376  0.00  0.00    +0.383 N 
ATOM     12  C   UNL     1       7.370 -11.054   2.401  0.00  0.00    -0.078 C 
ATOM     13  C   UNL     1       6.673 -11.499   3.689  0.00  0.00    -0.016 C 
ATOM     14  C   UNL     1       7.310 -12.800   4.185  0.00  0.00    -0.018 C 
ATOM     15  C   UNL     1       7.216 -13.856   3.080  0.00  0.00    -0.016 C 
ATOM     16  C   UNL     1       7.893 -13.324   1.815  0.00  0.00    -0.078 C 
ATOM     17  C   UNL     1       6.566 -13.293   5.428  0.00  0.00    +0.007 C 
ATOM     18  H   UNL     1       6.241 -12.282   1.229  0.00  0.00    -0.081 HD
ENDBRANCH  10  11
ENDBRANCH   6  10
ENDBRANCH   1   3
BRANCH   1  21
ATOM     19  N   UNL     1       1.102  -5.938  -1.834  0.00  0.00    -0.271 N 
ATOM     20  C   UNL     1       1.671  -6.586  -3.022  0.00  0.00    +0.127 C 
ATOM     21  C   UNL     1       1.983  -8.036  -2.589  0.00  0.00    +0.103 C 
ATOM     22  C   UNL     1       0.978  -8.244  -1.433  0.00  0.00    +0.110 C 
ATOM     23  C   UNL     1       0.704  -6.845  -0.926  0.00  0.00    +0.221 C 
ATOM     24  O   UNL     1       0.198  -6.581   0.144  0.00  0.00    -0.275 OA
BRANCH  19  28
ATOM     25  C   UNL     1       0.777  -1.811  -1.336  0.00  0.00    +0.121 A 
ATOM     26  C   UNL     1       0.230  -2.668  -0.393  0.00  0.00    +0.047 A 
ATOM     27  C   UNL     1       0.337  -4.035  -0.557  0.00  0.00    +0.027 A 
ATOM     28  C   UNL     1       0.992  -4.551  -1.667  0.00  0.00    +0.036 A 
ATOM     29  C   UNL     1       1.540  -3.692  -2.611  0.00  0.00    +0.027 A 
ATOM     30  C   UNL     1       1.427  -2.326  -2.448  0.00  0.00    +0.047 A 
BRANCH  25  31
ATOM     31  O   UNL     1       0.671  -0.465  -1.174  0.00  0.00    -0.492 OA
BRANCH  31  33
ATOM     32  C   UNL     1      -0.030   1.526   0.004  0.00  0.00    +0.048 C 
ATOM     33  C   UNL     1      -0.011  -0.004  -0.005  0.00  0.00    +0.225 C 
ENDBRANCH  31  33
ENDBRANCH  25  31
ENDBRANCH  19  28
ENDBRANCH   1  21
TORSDOF 7
