REMARK  Name = ZINC15675837
REMARK  7 active torsions:
REMARK  status: ('A' for Active; 'I' for Inactive)
REMARK    1  A    between atoms: C_1  and  C_2
REMARK    2  A    between atoms: C_2  and  C_3
REMARK    3  A    between atoms: C_2  and  N_4
REMARK    4  A    between atoms: C_16  and  C_18
REMARK    5  A    between atoms: C_20  and  C_23
REMARK    6  A    between atoms: C_26  and  O_29
REMARK    7  A    between atoms: O_29  and  C_30
REMARK                            x       y       z     vdW  Elec       q    Type
REMARK                         _______ _______ _______ _____ _____    ______ ____
ROOT
ATOM      1  N   UNL     1      -1.373  -0.510   0.011  0.00  0.00    -0.297 N 
ATOM      2  C   UNL     1      -1.643  -1.734  -0.485  0.00  0.00    +0.303 C 
ATOM      3  O   UNL     1      -0.765  -2.380  -1.023  0.00  0.00    -0.253 OA
ATOM      4  N   UNL     1      -2.888  -2.242  -0.385  0.00  0.00    -0.268 N 
ATOM      5  C   UNL     1      -3.992  -1.432   0.161  0.00  0.00    +0.165 C 
ATOM      6  C   UNL     1      -4.765  -2.312   1.115  0.00  0.00    +0.054 A 
ATOM      7  C   UNL     1      -4.590  -3.647   1.212  0.00  0.00    +0.040 A 
ATOM      8  N   UNL     1      -5.456  -4.093   2.164  0.00  0.00    -0.349 N 
ATOM      9  H   UNL     1      -5.567  -5.010   2.458  0.00  0.00    +0.166 HD
ATOM     10  C   UNL     1      -6.132  -3.014   2.622  0.00  0.00    +0.171 A 
ATOM     11  N   UNL     1      -5.709  -1.952   1.986  0.00  0.00    -0.348 N 
ATOM     12  C   UNL     1      -3.604  -4.447   0.402  0.00  0.00    +0.087 C 
ATOM     13  C   UNL     1      -3.178  -3.616  -0.822  0.00  0.00    +0.172 C 
ATOM     14  H   UNL     1      -2.088   0.035   0.373  0.00  0.00    +0.150 HD
ATOM     15  H   UNL     1      -6.031  -1.047   2.127  0.00  0.00    +0.166 HD
ENDROOT
BRANCH  13  16
ATOM     16  C   UNL     1      -4.293  -3.597  -1.835  0.00  0.00    +0.249 A 
ATOM     17  N   UNL     1      -4.317  -4.266  -2.952  0.00  0.00    -0.190 NA
ATOM     18  C   UNL     1      -5.462  -4.017  -3.614  0.00  0.00    +0.202 A 
ATOM     19  N   UNL     1      -6.178  -3.175  -2.909  0.00  0.00    -0.056 NA
ATOM     20  O   UNL     1      -5.428  -2.893  -1.737  0.00  0.00    -0.336 OA
BRANCH  18  21
ATOM     21  C   UNL     1      -5.848  -4.596  -4.924  0.00  0.00    +0.023 A 
ATOM     22  C   UNL     1      -4.995  -5.488  -5.572  0.00  0.00    +0.015 A 
ATOM     23  C   UNL     1      -5.357  -6.025  -6.789  0.00  0.00    +0.046 A 
ATOM     24  C   UNL     1      -6.570  -5.678  -7.369  0.00  0.00    +0.130 A 
ATOM     25  C   UNL     1      -7.422  -4.790  -6.726  0.00  0.00    +0.046 A 
ATOM     26  C   UNL     1      -7.068  -4.255  -5.506  0.00  0.00    +0.015 A 
BRANCH  24  27
ATOM     27  O   UNL     1      -6.924  -6.209  -8.568  0.00  0.00    -0.406 OA
BRANCH  27  28
ATOM     28  C   UNL     1      -8.185  -5.810  -9.108  0.00  0.00    +0.575 C 
ATOM     29  F   UNL     1      -8.195  -4.423  -9.293  0.00  0.00    -0.133 F 
ATOM     30  F   UNL     1      -8.390  -6.446 -10.337  0.00  0.00    -0.133 F 
ATOM     31  F   UNL     1      -9.207  -6.169  -8.222  0.00  0.00    -0.133 F 
ENDBRANCH  27  28
ENDBRANCH  24  27
ENDBRANCH  18  21
ENDBRANCH  13  16
BRANCH   1  33
ATOM     32  C   UNL     1      -0.018   1.526   0.009  0.00  0.00    +0.027 C 
ATOM     33  C   UNL     1       0.002  -0.004   0.003  0.00  0.00    +0.068 C 
ATOM     34  C   UNL     1       0.739  -0.509   1.245  0.00  0.00    +0.027 C 
ENDBRANCH   1  33
TORSDOF 5
