REMARK  Name = ZINC03275816
REMARK  7 active torsions:
REMARK  status: ('A' for Active; 'I' for Inactive)
REMARK    1  A    between atoms: C_1  and  C_2
REMARK    2  A    between atoms: C_2  and  C_3
REMARK    3  A    between atoms: C_3  and  N_7
REMARK    4  A    between atoms: C_4  and  C_5
REMARK    5  A    between atoms: C_4  and  C_6
REMARK    6  A    between atoms: N_7  and  N_8
REMARK    7  A    between atoms: C_9  and  C_11
REMARK                            x       y       z     vdW  Elec       q    Type
REMARK                         _______ _______ _______ _____ _____    ______ ____
ROOT
ATOM      1  N   UNL     1      -0.298  -0.016   0.602  0.00  0.00    -0.234 N 
ATOM      2  C   UNL     1       0.774  -0.829   0.683  0.00  0.00    +0.273 C 
ATOM      3  O   UNL     1       1.887  -0.385   0.492  0.00  0.00    -0.270 OA
ATOM      4  H   UNL     1      -1.188  -0.371   0.754  0.00  0.00    +0.173 HD
ENDROOT
BRANCH   2   5
ATOM      5  C   UNL     1       0.591  -2.288   1.010  0.00  0.00    +0.297 C 
ATOM      6  C   UNL     1       0.062  -2.435   2.443  0.00  0.00    +0.283 C 
ATOM      7  O   UNL     1      -0.087  -3.830   2.725  0.00  0.00    -0.484 OA
ATOM      8  C   UNL     1       0.949  -4.640   2.375  0.00  0.00    +0.162 A 
ATOM      9  C   UNL     1       1.038  -5.910   2.925  0.00  0.00    +0.049 A 
ATOM     10  C   UNL     1       2.083  -6.744   2.577  0.00  0.00    +0.004 A 
ATOM     11  C   UNL     1       3.043  -6.316   1.679  0.00  0.00    +0.004 A 
ATOM     12  C   UNL     1       2.961  -5.051   1.127  0.00  0.00    +0.049 A 
ATOM     13  C   UNL     1       1.915  -4.208   1.474  0.00  0.00    +0.163 A 
ATOM     14  O   UNL     1       1.850  -2.964   0.925  0.00  0.00    -0.472 OA
ENDBRANCH   2   5
BRANCH   1  15
ATOM     15  N   UNL     1      -0.128   1.341   0.297  0.00  0.00    -0.269 N 
ATOM     16  H   UNL     1       0.765   1.710   0.212  0.00  0.00    +0.170 HD
BRANCH  15  17
ATOM     17  C   UNL     1      -1.237   2.156   0.113  0.00  0.00    +0.020 C 
ATOM     18  C   UNL     1      -1.080   3.404  -0.285  0.00  0.00    -0.058 C 
ATOM     19  C   UNL     1      -2.285   4.250  -0.608  0.00  0.00    +0.040 C 
ATOM     20  C   UNL     1       0.305   3.985  -0.416  0.00  0.00    +0.040 C 
BRANCH  17  22
ATOM     21  C   UNL     1      -3.175   1.006  -0.923  0.00  0.00    +0.010 C 
ATOM     22  C   UNL     1      -2.620   1.614   0.367  0.00  0.00    +0.048 C 
ENDBRANCH  17  22
ENDBRANCH  15  17
ENDBRANCH   1  15
TORSDOF 4
