REMARK  Name = ZINC31732111
REMARK  4 active torsions:
REMARK  status: ('A' for Active; 'I' for Inactive)
REMARK    1  A    between atoms: C_1  and  C_2
REMARK    2  A    between atoms: N_10  and  C_11
REMARK    3  A    between atoms: C_11  and  C_13
REMARK    4  A    between atoms: C_11  and  C_14
REMARK                            x       y       z     vdW  Elec       q    Type
REMARK                         _______ _______ _______ _____ _____    ______ ____
ROOT
ATOM      1  C   UNL     1      -5.012  -4.123   0.004  0.00  0.00    +0.102 C 
ATOM      2  C   UNL     1      -5.500  -3.959   1.445  0.00  0.00    +0.033 C 
ENDROOT
BRANCH   1  12
ATOM      3  C   UNL     1      -0.018   1.503   0.010  0.00  0.00    +0.089 C 
ATOM      4  C   UNL     1       0.002  -0.004   0.002  0.00  0.00    +0.136 A 
ATOM      5  C   UNL     1      -1.076  -0.807   0.003  0.00  0.00    +0.091 A 
ATOM      6  C   UNL     1      -0.625  -2.147  -0.008  0.00  0.00    +0.169 A 
ATOM      7  N   UNL     1       0.683  -2.130  -0.014  0.00  0.00    -0.063 NA
ATOM      8  O   UNL     1       1.100  -0.776  -0.013  0.00  0.00    -0.358 OA
ATOM      9  N   UNL     1      -1.432  -3.285  -0.010  0.00  0.00    -0.252 N 
ATOM     10  C   UNL     1      -2.774  -3.159  -0.002  0.00  0.00    +0.305 C 
ATOM     11  O   UNL     1      -3.281  -2.055   0.007  0.00  0.00    -0.252 OA
ATOM     12  N   UNL     1      -3.553  -4.259  -0.004  0.00  0.00    -0.293 N 
ATOM     13  H   UNL     1      -1.027  -4.166  -0.017  0.00  0.00    +0.158 HD
ATOM     14  H   UNL     1      -3.148  -5.140  -0.012  0.00  0.00    +0.151 HD
ENDBRANCH   1  12
BRANCH   1  15
ATOM     15  C   UNL     1      -5.635  -5.355  -0.600  0.00  0.00    -0.025 A 
ATOM     16  C   UNL     1      -5.114  -6.603  -0.311  0.00  0.00    +0.009 A 
ATOM     17  C   UNL     1      -5.681  -7.739  -0.861  0.00  0.00    +0.048 A 
ATOM     18  C   UNL     1      -6.773  -7.625  -1.704  0.00  0.00    +0.142 A 
ATOM     19  C   UNL     1      -7.297  -6.367  -1.996  0.00  0.00    +0.076 A 
ATOM     20  C   UNL     1      -6.729  -5.234  -1.437  0.00  0.00    +0.032 A 
ATOM     21  N   UNL     1      -8.402  -6.266  -2.853  0.00  0.00    -0.280 N 
ATOM     22  C   UNL     1      -9.124  -7.376  -3.123  0.00  0.00    +0.255 C 
ATOM     23  O   UNL     1     -10.065  -7.319  -3.886  0.00  0.00    -0.272 OA
ATOM     24  C   UNL     1      -8.756  -8.684  -2.472  0.00  0.00    +0.325 C 
ATOM     25  O   UNL     1      -7.344  -8.731  -2.252  0.00  0.00    -0.481 OA
ATOM     26  H   UNL     1      -8.644  -5.413  -3.246  0.00  0.00    +0.155 HD
ENDBRANCH   1  15
TORSDOF 2
