REMARK  Name = ZINC44453213
REMARK  5 active torsions:
REMARK  status: ('A' for Active; 'I' for Inactive)
REMARK    1  A    between atoms: C_1  and  C_2
REMARK    2  A    between atoms: N_4  and  N_5
REMARK    3  A    between atoms: C_6  and  C_8
REMARK    4  A    between atoms: C_12  and  N_13
REMARK    5  A    between atoms: C_14  and  C_16
REMARK                            x       y       z     vdW  Elec       q    Type
REMARK                         _______ _______ _______ _____ _____    ______ ____
ROOT
ATOM      1  C   UNL     1      -2.275  -4.250   0.001  0.00  0.00    +0.067 A 
ATOM      2  C   UNL     1      -1.036  -4.993  -0.009  0.00  0.00    +0.022 A 
ATOM      3  C   UNL     1      -1.155  -6.334  -0.016  0.00  0.00    +0.048 A 
ATOM      4  S   UNL     1      -2.916  -6.588  -0.009  0.00  0.00    -0.081 S 
ATOM      5  C   UNL     1      -3.445  -4.996   0.008  0.00  0.00    +0.084 A 
ENDROOT
BRANCH   1   7
ATOM      6  N   UNL     1      -1.137  -2.095   0.002  0.00  0.00    -0.230 N 
ATOM      7  C   UNL     1      -2.295  -2.784   0.009  0.00  0.00    +0.262 C 
ATOM      8  O   UNL     1      -3.357  -2.190   0.022  0.00  0.00    -0.269 OA
ATOM      9  H   UNL     1      -0.290  -2.568  -0.009  0.00  0.00    +0.173 HD
BRANCH   6  13
ATOM     10  C   UNL     1      -0.018   1.503   0.010  0.00  0.00    +0.110 C 
ATOM     11  C   UNL     1       0.002  -0.004   0.002  0.00  0.00    +0.226 C 
ATOM     12  O   UNL     1       1.060  -0.596  -0.011  0.00  0.00    -0.275 OA
ATOM     13  N   UNL     1      -1.156  -0.694   0.009  0.00  0.00    -0.234 N 
ATOM     14  H   UNL     1      -2.002  -0.220   0.020  0.00  0.00    +0.173 HD
ENDBRANCH   6  13
ENDBRANCH   1   7
BRANCH   5  15
ATOM     15  N   UNL     1      -4.750  -4.532   0.023  0.00  0.00    -0.273 N 
ATOM     16  C   UNL     1      -5.776  -5.406   0.028  0.00  0.00    +0.284 C 
ATOM     17  O   UNL     1      -5.555  -6.603   0.020  0.00  0.00    -0.266 OA
ATOM     18  H   UNL     1      -4.926  -3.578   0.030  0.00  0.00    +0.156 HD
BRANCH  16  19
ATOM     19  C   UNL     1      -7.157  -4.916   0.044  0.00  0.00    +0.189 A 
ATOM     20  C   UNL     1      -8.283  -5.689   0.056  0.00  0.00    +0.054 A 
ATOM     21  C   UNL     1      -9.377  -4.808   0.070  0.00  0.00    +0.042 A 
ATOM     22  C   UNL     1      -8.876  -3.553   0.065  0.00  0.00    +0.196 A 
ATOM     23  O   UNL     1      -7.539  -3.622   0.055  0.00  0.00    -0.458 OA
ENDBRANCH  16  19
ENDBRANCH   5  15
TORSDOF 4
