REMARK  Name = ZINC40296837
REMARK  4 active torsions:
REMARK  status: ('A' for Active; 'I' for Inactive)
REMARK    1  A    between atoms: C_1  and  C_2
REMARK    2  A    between atoms: C_3  and  N_19
REMARK    3  A    between atoms: C_5  and  C_7
REMARK    4  A    between atoms: N_9  and  C_10
REMARK                            x       y       z     vdW  Elec       q    Type
REMARK                         _______ _______ _______ _____ _____    ______ ____
ROOT
ATOM      1  C   UNL     1       1.047  -4.020  -0.030  0.00  0.00    +0.255 C 
ATOM      2  O   UNL     1       0.284  -4.968  -0.027  0.00  0.00    -0.269 OA
ATOM      3  N   UNL     1       2.379  -4.228  -0.031  0.00  0.00    -0.280 N 
ATOM      4  H   UNL     1       2.987  -3.475  -0.099  0.00  0.00    +0.155 HD
ENDROOT
BRANCH   3   5
ATOM      5  C   UNL     1       2.885  -5.529   0.066  0.00  0.00    +0.054 A 
ATOM      6  C   UNL     1       2.206  -6.585  -0.528  0.00  0.00    +0.046 A 
ATOM      7  C   UNL     1       2.707  -7.869  -0.430  0.00  0.00    +0.061 A 
ATOM      8  C   UNL     1       3.886  -8.103   0.258  0.00  0.00    +0.061 A 
ATOM      9  C   UNL     1       4.564  -7.053   0.851  0.00  0.00    +0.043 A 
ATOM     10  C   UNL     1       4.070  -5.766   0.752  0.00  0.00    +0.064 A 
ATOM     11 CL   UNL     1       4.925  -4.448   1.489  0.00  0.00    -0.082 Cl
ATOM     12 CL   UNL     1       4.513  -9.717   0.379  0.00  0.00    -0.082 Cl
ATOM     13 CL   UNL     1       1.859  -9.190  -1.172  0.00  0.00    -0.082 Cl
ENDBRANCH   3   5
BRANCH   1  18
ATOM     14  C   UNL     1      -0.021   1.502  -0.037  0.00  0.00    +0.053 C 
ATOM     15  C   UNL     1       0.000  -0.005  -0.035  0.00  0.00    +0.008 A 
ATOM     16  C   UNL     1      -1.051  -0.876  -0.033  0.00  0.00    +0.035 A 
ATOM     17  C   UNL     1      -0.801  -2.228  -0.031  0.00  0.00    +0.043 A 
ATOM     18  C   UNL     1       0.519  -2.654  -0.032  0.00  0.00    +0.076 A 
ATOM     19  S   UNL     1       1.406  -1.105  -0.043  0.00  0.00    -0.087 S 
BRANCH  16  20
ATOM     20  N   UNL     1      -2.374  -0.396  -0.032  0.00  0.00    -0.357 N 
ATOM     21  H   UNL     1      -2.544   0.559  -0.033  0.00  0.00    +0.142 HD
ATOM     22  H   UNL     1      -3.116  -1.020  -0.030  0.00  0.00    +0.142 HD
ENDBRANCH  16  20
ENDBRANCH   1  18
TORSDOF 3
