REMARK  Name = ZINC58438175
REMARK  3 active torsions:
REMARK  status: ('A' for Active; 'I' for Inactive)
REMARK    1  A    between atoms: C_1  and  C_2
REMARK    2  A    between atoms: C_13  and  C_15
REMARK    3  A    between atoms: C_18  and  C_20
REMARK                            x       y       z     vdW  Elec       q    Type
REMARK                         _______ _______ _______ _____ _____    ______ ____
ROOT
ATOM      1  C   UNL     1       0.942   1.989  -0.085  0.00  0.00    +0.012 C 
ATOM      2  C   UNL     1       0.671   0.488  -0.199  0.00  0.00    +0.019 C 
ATOM      3  C   UNL     1       1.464  -0.080  -1.375  0.00  0.00    +0.027 C 
ATOM      4  C   UNL     1       1.355  -1.611  -1.354  0.00  0.00    +0.114 C 
ATOM      5  N   UNL     1       1.983  -2.088  -0.115  0.00  0.00    -0.267 N 
ATOM      6  C   UNL     1       1.699  -1.426   1.086  0.00  0.00    +0.040 A 
ATOM      7  C   UNL     1       1.074  -0.189   1.085  0.00  0.00    -0.023 A 
ATOM      8  C   UNL     1       0.811   0.444   2.288  0.00  0.00    +0.006 A 
ATOM      9  C   UNL     1       1.167  -0.152   3.482  0.00  0.00    +0.000 A 
ATOM     10  C   UNL     1       1.788  -1.388   3.484  0.00  0.00    +0.002 A 
ATOM     11  C   UNL     1       2.054  -2.025   2.290  0.00  0.00    +0.024 A 
ATOM     12  C   UNL     1       2.817  -3.147  -0.133  0.00  0.00    +0.257 C 
ATOM     13  O   UNL     1       3.437  -3.450   0.868  0.00  0.00    -0.269 OA
ENDROOT
BRANCH  12  14
ATOM     14  C   UNL     1       2.979  -3.935  -1.365  0.00  0.00    +0.075 A 
ATOM     15  C   UNL     1       3.885  -4.949  -1.638  0.00  0.00    +0.021 A 
ATOM     16  C   UNL     1       3.851  -5.547  -2.866  0.00  0.00    +0.021 A 
ATOM     17  C   UNL     1       2.911  -5.116  -3.791  0.00  0.00    +0.074 A 
ATOM     18  S   UNL     1       2.053  -3.837  -2.889  0.00  0.00    -0.079 S 
BRANCH  17  19
ATOM     19  C   UNL     1       2.677  -5.595  -5.163  0.00  0.00    +0.248 C 
ATOM     20  O   UNL     1       3.363  -6.490  -5.620  0.00  0.00    -0.270 OA
ATOM     21  N   UNL     1       1.704  -5.042  -5.913  0.00  0.00    -0.325 N 
ATOM     22  H   UNL     1       1.157  -4.328  -5.549  0.00  0.00    +0.145 HD
ATOM     23  H   UNL     1       1.550  -5.358  -6.817  0.00  0.00    +0.145 HD
ENDBRANCH  17  19
ENDBRANCH  12  14
TORSDOF 2
