REMARK  Name = ZINC16718125
REMARK  10 active torsions:
REMARK  status: ('A' for Active; 'I' for Inactive)
REMARK    1  A    between atoms: C_1  and  C_2
REMARK    2  A    between atoms: C_2  and  C_4
REMARK    3  A    between atoms: C_2  and  S_16
REMARK    4  A    between atoms: N_6  and  C_7
REMARK    5  A    between atoms: N_6  and  C_8
REMARK    6  A    between atoms: S_16  and  C_17
REMARK    7  A    between atoms: N_27  and  C_28
REMARK    8  A    between atoms: C_33  and  C_34
REMARK    9  A    between atoms: C_34  and  C_35
REMARK   10  A    between atoms: C_34  and  C_36
REMARK                            x       y       z     vdW  Elec       q    Type
REMARK                         _______ _______ _______ _____ _____    ______ ____
ROOT
ATOM      1  C   UNL     1      -0.189  -0.057  -2.809  0.00  0.00    +0.177 A 
ATOM      2  N   UNL     1      -1.281   0.606  -2.515  0.00  0.00    -0.223 NA
ATOM      3  C   UNL     1      -2.123   1.044  -3.479  0.00  0.00    +0.079 A 
ATOM      4  C   UNL     1      -3.288   1.752  -3.168  0.00  0.00    +0.028 A 
ATOM      5  C   UNL     1      -4.110   2.176  -4.174  0.00  0.00    +0.002 A 
ATOM      6  C   UNL     1      -3.807   1.915  -5.504  0.00  0.00    +0.001 A 
ATOM      7  C   UNL     1      -2.675   1.224  -5.840  0.00  0.00    +0.015 A 
ATOM      8  C   UNL     1      -1.818   0.780  -4.834  0.00  0.00    +0.065 A 
ATOM      9  C   UNL     1      -0.588   0.035  -5.136  0.00  0.00    +0.267 A 
ATOM     10  O   UNL     1      -0.272  -0.223  -6.283  0.00  0.00    -0.267 OA
ATOM     11  N   UNL     1       0.182  -0.350  -4.092  0.00  0.00    -0.255 N 
ENDROOT
BRANCH  11  12
ATOM     12  C   UNL     1       1.368  -1.058  -4.328  0.00  0.00    +0.055 A 
ATOM     13  C   UNL     1       1.349  -2.445  -4.390  0.00  0.00    +0.026 A 
ATOM     14  C   UNL     1       2.519  -3.141  -4.623  0.00  0.00    +0.002 A 
ATOM     15  C   UNL     1       3.709  -2.457  -4.794  0.00  0.00    +0.000 A 
ATOM     16  C   UNL     1       3.731  -1.076  -4.732  0.00  0.00    +0.006 A 
ATOM     17  C   UNL     1       2.563  -0.375  -4.505  0.00  0.00    -0.021 A 
BRANCH  17  18
ATOM     18  C   UNL     1       2.587   1.131  -4.445  0.00  0.00    +0.015 C 
ATOM     19  C   UNL     1       3.519   1.581  -3.318  0.00  0.00    +0.012 C 
ATOM     20  C   UNL     1       3.093   1.687  -5.777  0.00  0.00    +0.012 C 
ENDBRANCH  17  18
ENDBRANCH  11  12
BRANCH   1  21
ATOM     21  S   UNL     1       0.851  -0.589  -1.490  0.00  0.00    -0.075 S 
BRANCH  21  23
ATOM     22  C   UNL     1      -0.019   1.526   0.010  0.00  0.00    +0.029 C 
ATOM     23  C   UNL     1       0.002  -0.004   0.002  0.00  0.00    +0.137 C 
BRANCH  23  24
ATOM     24  C   UNL     1       0.731  -0.503   1.223  0.00  0.00    +0.229 C 
ATOM     25  O   UNL     1       1.911  -0.775   1.156  0.00  0.00    -0.274 OA
ATOM     26  N   UNL     1       0.071  -0.647   2.389  0.00  0.00    -0.299 N 
ATOM     27  C   UNL     1      -1.354  -0.319   2.471  0.00  0.00    +0.132 C 
BRANCH  26  28
ATOM     28  C   UNL     1       0.780  -1.133   3.576  0.00  0.00    +0.098 C 
ATOM     29  C   UNL     1       0.694  -0.076   4.690  0.00  0.00    +0.046 C 
ATOM     30  C   UNL     1       1.170  -0.731   6.018  0.00  0.00    +0.168 C 
ATOM     31  S   UNL     1       0.382  -2.391   5.876  0.00  0.00    -0.029 S 
ATOM     32  O   UNL     1       1.325  -3.385   6.251  0.00  0.00    -0.174 OA
ATOM     33  O   UNL     1      -0.888  -2.356   6.514  0.00  0.00    -0.174 OA
ATOM     34  C   UNL     1       0.135  -2.455   4.055  0.00  0.00    +0.188 C 
ENDBRANCH  26  28
ENDBRANCH  23  24
ENDBRANCH  21  23
ENDBRANCH   1  21
TORSDOF 6
