REMARK  Name = ZINC06352701
REMARK  10 active torsions:
REMARK  status: ('A' for Active; 'I' for Inactive)
REMARK    1  A    between atoms: C_1  and  C_2
REMARK    2  A    between atoms: C_2  and  O_3
REMARK    3  A    between atoms: O_3  and  C_4
REMARK    4  A    between atoms: C_4  and  C_5
REMARK    5  A    between atoms: C_5  and  N_6
REMARK    6  A    between atoms: C_10  and  S_25
REMARK    7  A    between atoms: N_15  and  C_16
REMARK    8  A    between atoms: C_16  and  C_18
REMARK    9  A    between atoms: C_23  and  C_24
REMARK   10  A    between atoms: S_25  and  N_28
REMARK                            x       y       z     vdW  Elec       q    Type
REMARK                         _______ _______ _______ _____ _____    ______ ____
ROOT
ATOM      1  N   UNL     1      -2.206   2.802  -1.135  0.00  0.00    -0.319 N 
ATOM      2  C   UNL     1      -1.435   1.660  -1.244  0.00  0.00    +0.058 A 
ATOM      3  C   UNL     1      -1.861   0.337  -1.443  0.00  0.00    +0.029 A 
ATOM      4  C   UNL     1      -0.951  -0.689  -1.534  0.00  0.00    +0.030 A 
ATOM      5  C   UNL     1       0.410  -0.452  -1.432  0.00  0.00    +0.106 A 
ATOM      6  C   UNL     1       0.858   0.843  -1.236  0.00  0.00    +0.045 A 
ATOM      7  C   UNL     1      -0.052   1.869  -1.144  0.00  0.00    +0.041 A 
ATOM      8  S   UNL     1       0.078   3.623  -0.902  0.00  0.00    -0.052 S 
ATOM      9  C   UNL     1      -1.612   4.009  -0.938  0.00  0.00    +0.167 A 
ATOM     10  N   UNL     1      -2.188   5.200  -0.808  0.00  0.00    -0.152 NA
ENDROOT
BRANCH   5  11
ATOM     11  S   UNL     1       1.558  -1.783  -1.552  0.00  0.00    +0.056 S 
ATOM     12  O   UNL     1       2.737  -1.365  -0.879  0.00  0.00    -0.153 OA
ATOM     13  O   UNL     1       0.852  -2.962  -1.189  0.00  0.00    -0.153 OA
BRANCH  11  14
ATOM     14  N   UNL     1       1.957  -1.944  -3.151  0.00  0.00    -0.204 NA
ATOM     15  H   UNL     1       2.834  -2.275  -3.401  0.00  0.00    +0.144 HD
ATOM     16  H   UNL     1       1.314  -1.706  -3.837  0.00  0.00    +0.144 HD
ENDBRANCH  11  14
ENDBRANCH   5  11
BRANCH  10  17
ATOM     17  C   UNL     1      -1.436   6.290  -0.624  0.00  0.00    +0.270 C 
ATOM     18  O   UNL     1      -0.222   6.191  -0.574  0.00  0.00    -0.268 OA
BRANCH  17  19
ATOM     19  C   UNL     1      -2.078   7.617  -0.479  0.00  0.00    +0.042 A 
ATOM     20  C   UNL     1      -3.454   7.752  -0.659  0.00  0.00    +0.013 A 
ATOM     21  C   UNL     1      -4.046   8.991  -0.524  0.00  0.00    +0.001 A 
ATOM     22  C   UNL     1      -3.278  10.097  -0.210  0.00  0.00    +0.000 A 
ATOM     23  C   UNL     1      -1.912   9.970  -0.031  0.00  0.00    +0.004 A 
ATOM     24  C   UNL     1      -1.309   8.735  -0.158  0.00  0.00    -0.038 A 
ATOM     25  C   UNL     1       0.178   8.596   0.044  0.00  0.00    +0.044 C 
ENDBRANCH  17  19
ENDBRANCH  10  17
BRANCH   1  26
ATOM     26  C   UNL     1      -3.665   2.711  -1.230  0.00  0.00    +0.152 C 
BRANCH  26  27
ATOM     27  C   UNL     1      -4.302   3.717  -0.268  0.00  0.00    +0.181 C 
BRANCH  27  28
ATOM     28  O   UNL     1      -5.719   3.530  -0.253  0.00  0.00    -0.378 OA
BRANCH  28  30
ATOM     29  C   UNL     1      -7.915   4.136   0.554  0.00  0.00    +0.034 C 
ATOM     30  C   UNL     1      -6.414   4.425   0.618  0.00  0.00    +0.156 C 
ENDBRANCH  28  30
ENDBRANCH  27  28
ENDBRANCH  26  27
ENDBRANCH   1  26
TORSDOF 8
