REMARK  Name = ZINC59404108
REMARK  9 active torsions:
REMARK  status: ('A' for Active; 'I' for Inactive)
REMARK    1  A    between atoms: C_1  and  C_2
REMARK    2  A    between atoms: C_2  and  C_4
REMARK    3  A    between atoms: C_2  and  N_16
REMARK    4  A    between atoms: N_6  and  C_7
REMARK    5  A    between atoms: C_11  and  N_13
REMARK    6  A    between atoms: N_19  and  C_22
REMARK    7  A    between atoms: C_22  and  C_24
REMARK    8  A    between atoms: C_22  and  C_25
REMARK    9  A    between atoms: N_27  and  C_28
REMARK                            x       y       z     vdW  Elec       q    Type
REMARK                         _______ _______ _______ _____ _____    ______ ____
ROOT
ATOM      1  N   UNL     1      -2.885  -1.687  -1.257  0.00  0.00    -0.289 NA
ATOM      2  C   UNL     1      -3.317  -0.913  -2.429  0.00  0.00    +0.100 C 
ATOM      3  C   UNL     1      -4.803  -1.170  -2.689  0.00  0.00    +0.100 C 
ATOM      4  N   UNL     1      -5.578  -0.794  -1.498  0.00  0.00    -0.289 NA
ATOM      5  C   UNL     1      -5.146  -1.568  -0.326  0.00  0.00    +0.100 C 
ATOM      6  C   UNL     1      -3.660  -1.310  -0.067  0.00  0.00    +0.100 C 
ENDROOT
BRANCH   1   8
ATOM      7  C   UNL     1      -1.126  -0.044  -0.805  0.00  0.00    +0.034 C 
ATOM      8  C   UNL     1      -1.445  -1.525  -1.020  0.00  0.00    +0.140 C 
BRANCH   8   9
ATOM      9  C   UNL     1      -0.679  -2.035  -2.214  0.00  0.00    +0.234 C 
ATOM     10  O   UNL     1      -1.275  -2.489  -3.168  0.00  0.00    -0.274 OA
ATOM     11  N   UNL     1       0.668  -1.987  -2.222  0.00  0.00    -0.284 N 
ATOM     12  H   UNL     1       1.142  -1.557  -1.493  0.00  0.00    +0.155 HD
BRANCH  11  13
ATOM     13  C   UNL     1       1.382  -2.557  -3.281  0.00  0.00    +0.036 A 
ATOM     14  C   UNL     1       2.583  -1.994  -3.693  0.00  0.00    +0.023 A 
ATOM     15  C   UNL     1       3.286  -2.559  -4.739  0.00  0.00    +0.004 A 
ATOM     16  C   UNL     1       2.795  -3.684  -5.376  0.00  0.00    +0.033 A 
ATOM     17  C   UNL     1       1.600  -4.247  -4.968  0.00  0.00    +0.128 A 
ATOM     18  C   UNL     1       0.895  -3.690  -3.919  0.00  0.00    +0.056 A 
BRANCH  17  19
ATOM     19  N   UNL     1       1.077  -5.450  -5.653  0.00  0.00    +0.056 N 
ATOM     20  O   UNL     1       1.696  -5.941  -6.569  0.00  0.00    -0.126 OA
ATOM     21  O   UNL     1       0.032  -5.943  -5.298  0.00  0.00    -0.126 OA
ENDBRANCH  17  19
ENDBRANCH  11  13
ENDBRANCH   8   9
ENDBRANCH   1   8
BRANCH   4  22
ATOM     22  C   UNL     1      -7.019  -0.955  -1.735  0.00  0.00    +0.140 C 
ATOM     23  C   UNL     1      -7.356  -2.445  -1.826  0.00  0.00    +0.034 C 
BRANCH  22  24
ATOM     24  C   UNL     1      -7.787  -0.335  -0.597  0.00  0.00    +0.234 C 
ATOM     25  O   UNL     1      -7.194   0.191   0.321  0.00  0.00    -0.274 OA
ATOM     26  N   UNL     1      -9.135  -0.364  -0.599  0.00  0.00    -0.284 N 
ATOM     27  H   UNL     1      -9.608  -0.848  -1.294  0.00  0.00    +0.155 HD
BRANCH  26  28
ATOM     28  C   UNL     1      -9.851   0.305   0.400  0.00  0.00    +0.036 A 
ATOM     29  C   UNL     1      -9.353   1.483   0.943  0.00  0.00    +0.023 A 
ATOM     30  C   UNL     1     -10.061   2.141   1.929  0.00  0.00    +0.005 A 
ATOM     31  C   UNL     1     -11.264   1.629   2.378  0.00  0.00    +0.038 A 
ATOM     32  C   UNL     1     -11.764   0.455   1.840  0.00  0.00    +0.125 A 
ATOM     33  C   UNL     1     -11.062  -0.205   0.848  0.00  0.00    +0.061 A 
ATOM     34  F   UNL     1     -12.940  -0.043   2.281  0.00  0.00    -0.205 F 
ENDBRANCH  26  28
ENDBRANCH  22  24
ENDBRANCH   4  22
TORSDOF 7
