REMARK  Name = ZINC06818729
REMARK  10 active torsions:
REMARK  status: ('A' for Active; 'I' for Inactive)
REMARK    1  A    between atoms: C_1  and  C_2
REMARK    2  A    between atoms: C_8  and  N_10
REMARK    3  A    between atoms: C_11  and  C_13
REMARK    4  A    between atoms: C_13  and  N_14
REMARK    5  A    between atoms: N_14  and  C_15
REMARK    6  A    between atoms: N_14  and  S_16
REMARK    7  A    between atoms: S_16  and  C_19
REMARK    8  A    between atoms: C_25  and  C_30
REMARK    9  A    between atoms: C_25  and  C_31
REMARK   10  A    between atoms: N_28  and  C_29
REMARK                            x       y       z     vdW  Elec       q    Type
REMARK                         _______ _______ _______ _____ _____    ______ ____
ROOT
ATOM      1  S   UNL     1       0.661   6.401   3.990  0.00  0.00    +0.061 S 
ATOM      2  O   UNL     1       1.581   7.484   3.952  0.00  0.00    -0.153 OA
ATOM      3  O   UNL     1      -0.075   5.987   2.847  0.00  0.00    -0.153 OA
ENDROOT
BRANCH   1   4
ATOM      4  C   UNL     1      -0.521   6.788   5.237  0.00  0.00    +0.106 A 
ATOM      5  C   UNL     1      -0.191   7.660   6.259  0.00  0.00    +0.030 A 
ATOM      6  C   UNL     1      -1.112   7.967   7.239  0.00  0.00    +0.026 A 
ATOM      7  C   UNL     1      -2.385   7.401   7.205  0.00  0.00    +0.040 A 
ATOM      8  C   UNL     1      -2.705   6.527   6.173  0.00  0.00    -0.010 A 
ATOM      9  C   UNL     1      -1.785   6.226   5.194  0.00  0.00    +0.035 A 
ATOM     10  C   UNL     1      -4.132   6.091   6.413  0.00  0.00    +0.068 C 
ATOM     11  C   UNL     1      -4.533   6.822   7.676  0.00  0.00    +0.230 C 
ATOM     12  O   UNL     1      -5.609   6.761   8.233  0.00  0.00    -0.274 OA
ATOM     13  N   UNL     1      -3.474   7.551   8.064  0.00  0.00    -0.273 N 
ATOM     14  C   UNL     1      -3.463   8.406   9.254  0.00  0.00    +0.138 C 
ATOM     15  C   UNL     1      -4.200   4.577   6.625  0.00  0.00    +0.025 C 
ATOM     16  C   UNL     1      -5.027   6.508   5.244  0.00  0.00    +0.025 C 
ENDBRANCH   1   4
BRANCH   1  17
ATOM     17  N   UNL     1       1.508   5.078   4.512  0.00  0.00    -0.171 NA
ATOM     18  C   UNL     1       2.727   5.255   5.306  0.00  0.00    +0.132 C 
BRANCH  17  19
ATOM     19  C   UNL     1       1.040   3.730   4.180  0.00  0.00    +0.204 C 
BRANCH  19  21
ATOM     20  N   UNL     1       1.471   2.021   2.444  0.00  0.00    -0.311 N 
ATOM     21  C   UNL     1       1.745   3.244   2.940  0.00  0.00    +0.229 C 
ATOM     22  O   UNL     1       2.559   3.954   2.388  0.00  0.00    -0.274 OA
ATOM     23  H   UNL     1       0.820   1.454   2.886  0.00  0.00    +0.149 HD
BRANCH  20  30
ATOM     24  C   UNL     1       2.917  -0.488   2.470  0.00  0.00    +0.009 C 
ATOM     25  C   UNL     1       2.178   0.019   1.231  0.00  0.00    +0.006 C 
ATOM     26  C   UNL     1       0.742  -0.511   1.242  0.00  0.00    +0.005 C 
ATOM     27  C   UNL     1       0.002  -0.004   0.002  0.00  0.00    +0.000 C 
ATOM     28  C   UNL     1      -0.019   1.526   0.010  0.00  0.00    +0.002 C 
ATOM     29  C   UNL     1       1.417   2.055  -0.000  0.00  0.00    +0.022 C 
ATOM     30  C   UNL     1       2.157   1.548   1.239  0.00  0.00    +0.076 C 
ENDBRANCH  20  30
ENDBRANCH  19  21
ENDBRANCH  17  19
ENDBRANCH   1  17
TORSDOF 5
