REMARK  Name = ZINC66103092
REMARK  8 active torsions:
REMARK  status: ('A' for Active; 'I' for Inactive)
REMARK    1  A    between atoms: C_1  and  C_2
REMARK    2  A    between atoms: C_4  and  S_8
REMARK    3  A    between atoms: N_6  and  C_7
REMARK    4  A    between atoms: S_8  and  N_11
REMARK    5  A    between atoms: N_11  and  C_12
REMARK    6  A    between atoms: C_12  and  C_14
REMARK    7  A    between atoms: C_12  and  C_15
REMARK    8  A    between atoms: C_22  and  C_24
REMARK                            x       y       z     vdW  Elec       q    Type
REMARK                         _______ _______ _______ _____ _____    ______ ____
ROOT
ATOM      1  N   UNL     1      -0.486  -3.001  -3.171  0.00  0.00    -0.177 NA
ATOM      2  H   UNL     1      -1.310  -3.465  -3.388  0.00  0.00    +0.149 HD
ENDROOT
BRANCH   1   3
ATOM      3  S   UNL     1       0.467  -3.544  -1.930  0.00  0.00    +0.078 S 
ATOM      4  O   UNL     1      -0.159  -4.712  -1.418  0.00  0.00    -0.152 OA
ATOM      5  O   UNL     1       0.756  -2.416  -1.116  0.00  0.00    -0.152 OA
BRANCH   3   9
ATOM      6  C   UNL     1       4.036  -5.374  -5.322  0.00  0.00    +0.086 C 
ATOM      7  C   UNL     1       3.433  -4.817  -4.059  0.00  0.00    +0.109 A 
ATOM      8  N   UNL     1       2.171  -4.535  -3.878  0.00  0.00    -0.213 NA
ATOM      9  C   UNL     1       1.997  -4.060  -2.636  0.00  0.00    +0.211 A 
ATOM     10  C   UNL     1       3.196  -4.046  -2.023  0.00  0.00    +0.135 A 
ATOM     11  N   UNL     1       4.106  -4.532  -2.923  0.00  0.00    -0.336 N 
ATOM     12  C   UNL     1       5.543  -4.706  -2.698  0.00  0.00    +0.150 C 
ENDBRANCH   3   9
ENDBRANCH   1   3
BRANCH   1  13
ATOM     13  C   UNL     1      -0.086  -1.820  -3.939  0.00  0.00    +0.159 C 
ATOM     14  C   UNL     1      -0.783  -0.582  -3.372  0.00  0.00    +0.035 C 
BRANCH  13  15
ATOM     15  C   UNL     1      -0.481  -2.002  -5.382  0.00  0.00    +0.234 C 
ATOM     16  O   UNL     1      -1.306  -2.837  -5.684  0.00  0.00    -0.274 OA
ATOM     17  N   UNL     1       0.084  -1.236  -6.337  0.00  0.00    -0.297 N 
ATOM     18  C   UNL     1       1.168  -0.302  -6.004  0.00  0.00    +0.108 C 
ATOM     19  C   UNL     1       2.360  -0.583  -6.924  0.00  0.00    +0.019 C 
ATOM     20  C   UNL     1       1.901  -0.518  -8.382  0.00  0.00    +0.003 C 
ATOM     21  C   UNL     1       0.837  -1.590  -8.631  0.00  0.00    +0.022 C 
ATOM     22  C   UNL     1      -0.369  -1.325  -7.732  0.00  0.00    +0.073 C 
ATOM     23  C   UNL     1      -1.373  -2.471  -7.874  0.00  0.00    +0.028 C 
ENDBRANCH  13  15
ENDBRANCH   1  13
TORSDOF 4
