REMARK  Name = ZINC12341467
REMARK  1 active torsions:
REMARK  status: ('A' for Active; 'I' for Inactive)
REMARK    1  A    between atoms: N_13  and  O_14
REMARK                            x       y       z     vdW  Elec       q    Type
REMARK                         _______ _______ _______ _____ _____    ______ ____
ROOT
ATOM      1  C   UNL     1      -0.019   1.530   0.011  0.00  0.00    +0.005 C 
ATOM      2  C   UNL     1       1.419   2.057  -0.000  0.00  0.00    +0.008 C 
ATOM      3  C   UNL     1       2.083   1.761   1.349  0.00  0.00    +0.075 C 
ATOM      4  C   UNL     1       1.872   0.303   1.678  0.00  0.00    +0.109 A 
ATOM      5  C   UNL     1       0.947  -0.475   1.075  0.00  0.00    +0.003 A 
ATOM      6  C   UNL     1       1.077  -1.784   1.674  0.00  0.00    +0.044 A 
ATOM      7  C   UNL     1       2.082  -1.686   2.602  0.00  0.00    +0.114 A 
ATOM      8  O   UNL     1       2.538  -0.432   2.583  0.00  0.00    -0.464 OA
ATOM      9  C   UNL     1       2.526  -2.847   3.453  0.00  0.00    +0.075 C 
ATOM     10  C   UNL     1       1.414  -3.898   3.503  0.00  0.00    +0.014 C 
ATOM     11  C   UNL     1       0.967  -4.279   2.087  0.00  0.00    +0.060 C 
ATOM     12  C   UNL     1       0.352  -3.049   1.435  0.00  0.00    +0.091 C 
ATOM     13  N   UNL     1      -0.727  -3.107   0.723  0.00  0.00    -0.091 NA
ATOM     14  C   UNL     1       0.002  -0.004   0.002  0.00  0.00    +0.039 C 
ENDROOT
BRANCH  13  15
ATOM     15  O   UNL     1      -1.380  -4.348   0.526  0.00  0.00    -0.409 OA
ATOM     16  H   UNL     1      -2.176  -4.291  -0.019  0.00  0.00    +0.328 HD
ENDBRANCH  13  15
TORSDOF 1
