REMARK  Name = ZINC00876521
REMARK  9 active torsions:
REMARK  status: ('A' for Active; 'I' for Inactive)
REMARK    1  A    between atoms: C_1  and  C_2
REMARK    2  A    between atoms: C_5  and  C_29
REMARK    3  A    between atoms: C_9  and  C_14
REMARK    4  A    between atoms: C_16  and  C_27
REMARK    5  A    between atoms: C_17  and  N_26
REMARK    6  A    between atoms: C_19  and  C_25
REMARK    7  A    between atoms: C_20  and  C_21
REMARK    8  A    between atoms: C_21  and  O_23
REMARK    9  A    between atoms: O_23  and  C_24
REMARK                            x       y       z     vdW  Elec       q    Type
REMARK                         _______ _______ _______ _____ _____    ______ ____
ROOT
ATOM      1  C   UNL     1      -0.081   0.129   0.031  0.00  0.00    +0.110 C 
ATOM      2  C   UNL     1       1.235  -0.508   0.387  0.00  0.00    +0.098 C 
ATOM      3  C   UNL     1       2.386   0.205   0.332  0.00  0.00    +0.198 C 
ATOM      4  O   UNL     1       2.403   1.497  -0.041  0.00  0.00    -0.445 OA
ATOM      5  C   UNL     1       1.266   2.207  -0.001  0.00  0.00    +0.115 C 
ATOM      6  C   UNL     1       0.060   1.627   0.034  0.00  0.00    +0.087 C 
ATOM      7  C   UNL     1       1.349   3.712   0.004  0.00  0.00    +0.087 C 
ENDROOT
BRANCH   1  16
ATOM      8  C   UNL     1      -4.167  -2.453  -1.908  0.00  0.00    +0.044 C 
ATOM      9  C   UNL     1      -3.250  -2.135  -3.061  0.00  0.00    -0.041 A 
ATOM     10  C   UNL     1      -3.580  -2.526  -4.328  0.00  0.00    +0.004 A 
ATOM     11  C   UNL     1      -2.742  -2.238  -5.396  0.00  0.00    +0.005 A 
ATOM     12  C   UNL     1      -1.562  -1.552  -5.201  0.00  0.00    -0.026 A 
ATOM     13  C   UNL     1      -1.206  -1.144  -3.920  0.00  0.00    +0.052 A 
ATOM     14  C   UNL     1      -2.058  -1.438  -2.838  0.00  0.00    +0.002 A 
ATOM     15  C   UNL     1      -1.674  -1.004  -1.494  0.00  0.00    +0.020 A 
ATOM     16  C   UNL     1      -0.506  -0.332  -1.339  0.00  0.00    +0.030 A 
ATOM     17  C   UNL     1       0.310  -0.058  -2.458  0.00  0.00    +0.253 A 
ATOM     18  O   UNL     1       1.353   0.552  -2.297  0.00  0.00    -0.268 OA
ATOM     19  N   UNL     1      -0.032  -0.458  -3.695  0.00  0.00    -0.322 N 
ATOM     20  H   UNL     1       0.575  -0.254  -4.464  0.00  0.00    +0.169 HD
ATOM     21  C   UNL     1      -0.662  -1.247  -6.370  0.00  0.00    +0.046 C 
ENDBRANCH   1  16
BRANCH   3  22
ATOM     22  N   UNL     1       3.568  -0.408   0.665  0.00  0.00    -0.328 N 
ATOM     23  H   UNL     1       3.571  -1.340   0.936  0.00  0.00    +0.145 HD
ATOM     24  H   UNL     1       4.400   0.089   0.630  0.00  0.00    +0.145 HD
ENDBRANCH   3  22
BRANCH   6  25
ATOM     25  C   UNL     1      -1.102   2.436   0.068  0.00  0.00    +0.339 C 
ATOM     26  O   UNL     1      -0.999   3.643   0.174  0.00  0.00    -0.245 OA
BRANCH  25  27
ATOM     27  O   UNL     1      -2.322   1.867  -0.017  0.00  0.00    -0.465 OA
ATOM     28  C   UNL     1      -3.450   2.744   0.024  0.00  0.00    +0.280 C 
ENDBRANCH  25  27
ENDBRANCH   6  25
BRANCH   2  29
ATOM     29  C   UNL     1       1.272  -1.881   0.789  0.00  0.00    +0.101 C 
ATOM     30  N   UNL     1       1.301  -2.971   1.109  0.00  0.00    -0.191 NA
ENDBRANCH   2  29
TORSDOF 5
