REMARK  Name = ZINC17722877
REMARK  5 active torsions:
REMARK  status: ('A' for Active; 'I' for Inactive)
REMARK    1  A    between atoms: C_1  and  C_2
REMARK    2  A    between atoms: C_4  and  N_33
REMARK    3  A    between atoms: C_7  and  N_8
REMARK    4  A    between atoms: N_17  and  C_27
REMARK    5  A    between atoms: C_19  and  C_20
REMARK                            x       y       z     vdW  Elec       q    Type
REMARK                         _______ _______ _______ _____ _____    ______ ____
ROOT
ATOM      1  N   UNL     1      -0.618  -0.772   3.113  0.00  0.00    -0.204 N 
ATOM      2  C   UNL     1      -1.558  -0.095   3.795  0.00  0.00    +0.257 C 
ATOM      3  O   UNL     1      -2.758  -0.189   3.606  0.00  0.00    -0.269 OA
ATOM      4  C   UNL     1      -0.964   0.731   4.750  0.00  0.00    +0.069 C 
ATOM      5  H   UNL     1       0.621   2.394   6.923  0.00  0.00    +0.170 HD
ATOM      6  C   UNL     1       0.478   0.876   4.239  0.00  0.00    +0.217 C 
ATOM      7  C   UNL     1       0.636  -0.357   3.400  0.00  0.00    +0.253 C 
ATOM      8  O   UNL     1       1.676  -0.874   3.050  0.00  0.00    -0.272 OA
ATOM      9  N   UNL     1       1.197   0.866   5.523  0.00  0.00    -0.237 N 
ATOM     10  N   UNL     1       0.343   1.723   6.281  0.00  0.00    -0.262 N 
ATOM     11  C   UNL     1      -0.961   1.414   5.925  0.00  0.00    +0.062 C 
ENDROOT
BRANCH   1  18
ATOM     12  C   UNL     1      -1.022  -0.085   0.381  0.00  0.00    +0.046 C 
ATOM     13  C   UNL     1      -1.111  -1.510   0.865  0.00  0.00    -0.026 A 
ATOM     14  C   UNL     1      -1.389  -2.527  -0.027  0.00  0.00    +0.038 A 
ATOM     15  C   UNL     1      -1.470  -3.834   0.416  0.00  0.00    +0.127 A 
ATOM     16  C   UNL     1      -1.272  -4.127   1.753  0.00  0.00    +0.034 A 
ATOM     17  C   UNL     1      -0.993  -3.115   2.650  0.00  0.00    +0.026 A 
ATOM     18  C   UNL     1      -0.906  -1.802   2.207  0.00  0.00    +0.047 A 
BRANCH  15  19
ATOM     19  N   UNL     1      -1.770  -4.922  -0.542  0.00  0.00    +0.056 N 
ATOM     20  O   UNL     1      -1.943  -4.667  -1.711  0.00  0.00    -0.126 OA
ATOM     21  O   UNL     1      -1.841  -6.065  -0.155  0.00  0.00    -0.126 OA
ENDBRANCH  15  19
ENDBRANCH   1  18
BRANCH  11  22
ATOM     22  C   UNL     1      -2.163   1.773   6.704  0.00  0.00    -0.002 A 
ATOM     23  C   UNL     1      -3.430   1.402   6.248  0.00  0.00    +0.011 A 
ATOM     24  C   UNL     1      -4.549   1.740   6.979  0.00  0.00    +0.016 A 
ATOM     25  C   UNL     1      -4.418   2.446   8.164  0.00  0.00    +0.018 A 
ATOM     26  C   UNL     1      -3.165   2.816   8.621  0.00  0.00    +0.016 A 
ATOM     27  C   UNL     1      -2.038   2.479   7.902  0.00  0.00    +0.011 A 
ATOM     28 BR   UNL     1      -5.958   2.906   9.160  0.00  0.00    -0.050 Br
ENDBRANCH  11  22
BRANCH   9  29
ATOM     29  C   UNL     1       2.373   0.208   5.893  0.00  0.00    +0.049 A 
ATOM     30  C   UNL     1       3.492   0.269   5.072  0.00  0.00    +0.025 A 
ATOM     31  C   UNL     1       4.653  -0.382   5.441  0.00  0.00    +0.002 A 
ATOM     32  C   UNL     1       4.703  -1.093   6.625  0.00  0.00    +0.000 A 
ATOM     33  C   UNL     1       3.591  -1.155   7.445  0.00  0.00    +0.002 A 
ATOM     34  C   UNL     1       2.428  -0.502   7.085  0.00  0.00    +0.025 A 
ENDBRANCH   9  29
TORSDOF 4
