REMARK  Name = ZINC33470078
REMARK  11 active torsions:
REMARK  status: ('A' for Active; 'I' for Inactive)
REMARK    1  A    between atoms: C_1  and  C_2
REMARK    2  A    between atoms: C_2  and  N_3
REMARK    3  A    between atoms: C_4  and  N_31
REMARK    4  A    between atoms: C_5  and  C_13
REMARK    5  A    between atoms: C_6  and  C_12
REMARK    6  A    between atoms: C_7  and  C_10
REMARK    7  A    between atoms: N_17  and  C_21
REMARK    8  A    between atoms: C_21  and  C_22
REMARK    9  A    between atoms: C_22  and  C_23
REMARK   10  A    between atoms: C_26  and  O_29
REMARK   11  A    between atoms: O_29  and  C_30
REMARK                            x       y       z     vdW  Elec       q    Type
REMARK                         _______ _______ _______ _____ _____    ______ ____
ROOT
ATOM      1  N   UNL     1       1.853  -4.941   0.065  0.00  0.00    -0.295 N 
ATOM      2  C   UNL     1       2.428  -3.711   0.084  0.00  0.00    +0.112 A 
ATOM      3  C   UNL     1       1.634  -2.552   0.112  0.00  0.00    +0.019 A 
ATOM      4  C   UNL     1       0.234  -2.674   0.107  0.00  0.00    -0.017 A 
ATOM      5  C   UNL     1      -0.331  -3.946   0.081  0.00  0.00    +0.120 A 
ATOM      6  C   UNL     1       0.515  -5.084   0.059  0.00  0.00    +0.270 A 
ATOM      7  O   UNL     1       0.027  -6.200   0.036  0.00  0.00    -0.266 OA
ATOM      8  C   UNL     1      -0.641  -1.447   0.130  0.00  0.00    +0.046 C 
ENDROOT
BRANCH   3   9
ATOM      9  C   UNL     1       2.260  -1.229   0.139  0.00  0.00    +0.032 C 
ATOM     10  C   UNL     1       2.133  -0.394  -0.927  0.00  0.00    +0.077 C 
ATOM     11  C   UNL     1       2.541   0.967  -1.069  0.00  0.00    +0.258 C 
ATOM     12  O   UNL     1       3.094   1.555  -0.157  0.00  0.00    -0.269 OA
ATOM     13  N   UNL     1       2.301   1.570  -2.221  0.00  0.00    -0.255 N 
ATOM     14  C   UNL     1       1.688   0.918  -3.233  0.00  0.00    +0.121 C 
ATOM     15  S   UNL     1       1.287   1.495  -4.794  0.00  0.00    -0.027 S 
ATOM     16  S   UNL     1       1.408  -0.701  -2.532  0.00  0.00    -0.061 S 
BRANCH  13  17
ATOM     17  C   UNL     1       2.706   2.966  -2.402  0.00  0.00    +0.119 C 
BRANCH  17  18
ATOM     18  C   UNL     1       1.565   3.889  -1.970  0.00  0.00    +0.054 C 
BRANCH  18  19
ATOM     19  C   UNL     1       1.982   5.325  -2.157  0.00  0.00    -0.046 A 
ATOM     20  C   UNL     1       2.606   6.003  -1.125  0.00  0.00    +0.007 A 
ATOM     21  C   UNL     1       2.994   7.317  -1.296  0.00  0.00    +0.046 A 
ATOM     22  C   UNL     1       2.747   7.962  -2.500  0.00  0.00    +0.120 A 
ATOM     23  C   UNL     1       2.116   7.281  -3.531  0.00  0.00    +0.046 A 
ATOM     24  C   UNL     1       1.736   5.965  -3.357  0.00  0.00    +0.007 A 
BRANCH  22  25
ATOM     25  O   UNL     1       3.123   9.257  -2.668  0.00  0.00    -0.495 OA
ATOM     26  C   UNL     1       3.767   9.894  -1.563  0.00  0.00    +0.277 C 
ENDBRANCH  22  25
ENDBRANCH  18  19
ENDBRANCH  17  18
ENDBRANCH  13  17
ENDBRANCH   3   9
BRANCH   2  27
ATOM     27  N   UNL     1       3.788  -3.600   0.083  0.00  0.00    -0.316 N 
ATOM     28  C   UNL     1       4.269  -3.018   1.342  0.00  0.00    +0.106 C 
ATOM     29  C   UNL     1       5.800  -3.043   1.365  0.00  0.00    +0.019 C 
ATOM     30  C   UNL     1       6.336  -2.244   0.174  0.00  0.00    +0.003 C 
ATOM     31  C   UNL     1       5.780  -2.840  -1.122  0.00  0.00    +0.019 C 
ATOM     32  C   UNL     1       4.251  -2.821  -1.073  0.00  0.00    +0.106 C 
ENDBRANCH   2  27
BRANCH   1  34
ATOM     33  C   UNL     1       2.907  -6.587  -1.405  0.00  0.00    +0.027 C 
ATOM     34  C   UNL     1       2.704  -6.133   0.042  0.00  0.00    +0.123 C 
ENDBRANCH   1  34
BRANCH   5  35
ATOM     35  C   UNL     1      -1.754  -4.103   0.076  0.00  0.00    +0.105 C 
ATOM     36  N   UNL     1      -2.883  -4.229   0.072  0.00  0.00    -0.191 NA
ENDBRANCH   5  35
TORSDOF 8
