REMARK  Name = ZINC63478522
REMARK  8 active torsions:
REMARK  status: ('A' for Active; 'I' for Inactive)
REMARK    1  A    between atoms: C_1  and  O_2
REMARK    2  A    between atoms: O_2  and  C_3
REMARK    3  A    between atoms: C_8  and  N_9
REMARK    4  A    between atoms: C_10  and  C_12
REMARK    5  A    between atoms: C_17  and  O_24
REMARK    6  A    between atoms: C_18  and  O_22
REMARK    7  A    between atoms: O_22  and  C_23
REMARK    8  A    between atoms: O_24  and  C_25
REMARK                            x       y       z     vdW  Elec       q    Type
REMARK                         _______ _______ _______ _____ _____    ______ ____
ROOT
ATOM      1  C   UNL     1      -0.648  -4.951   0.806  0.00  0.00    +0.190 C 
ATOM      2  C   UNL     1       0.015  -4.779   2.153  0.00  0.00    +0.016 C 
ATOM      3  C   UNL     1       0.451  -6.006   2.517  0.00  0.00    +0.000 A 
ATOM      4  C   UNL     1       1.166  -6.481   3.709  0.00  0.00    +0.059 A 
ATOM      5  C   UNL     1       1.483  -7.794   3.809  0.00  0.00    +0.162 A 
ATOM      6  C   UNL     1       1.125  -8.734   2.754  0.00  0.00    +0.163 A 
ATOM      7  C   UNL     1       0.466  -8.338   1.637  0.00  0.00    +0.075 A 
ATOM      8  C   UNL     1       0.099  -6.980   1.460  0.00  0.00    +0.047 A 
ATOM      9  N   UNL     1      -0.533  -6.375   0.477  0.00  0.00    -0.370 N 
ATOM     10  H   UNL     1      -0.866  -6.800  -0.329  0.00  0.00    +0.161 HD
ENDROOT
BRANCH   1  12
ATOM     11  N   UNL     1       0.095  -2.777  -0.112  0.00  0.00    -0.281 N 
ATOM     12  C   UNL     1       0.060  -4.119  -0.233  0.00  0.00    +0.244 C 
ATOM     13  O   UNL     1       0.599  -4.658  -1.176  0.00  0.00    -0.273 OA
ATOM     14  H   UNL     1      -0.265  -2.352   0.681  0.00  0.00    +0.155 HD
BRANCH  11  20
ATOM     15  C   UNL     1       1.159  -0.731  -0.849  0.00  0.00    +0.141 A 
ATOM     16  C   UNL     1       1.713   0.034  -1.862  0.00  0.00    +0.047 A 
ATOM     17  C   UNL     1       1.756  -0.456  -3.154  0.00  0.00    +0.004 A 
ATOM     18  C   UNL     1       1.248  -1.710  -3.439  0.00  0.00    +0.002 A 
ATOM     19  C   UNL     1       0.694  -2.480  -2.434  0.00  0.00    +0.027 A 
ATOM     20  C   UNL     1       0.652  -1.997  -1.134  0.00  0.00    +0.076 A 
BRANCH  15  22
ATOM     21  C   UNL     1       1.655   1.055   0.641  0.00  0.00    +0.277 C 
ATOM     22  O   UNL     1       1.116  -0.251   0.423  0.00  0.00    -0.493 OA
ENDBRANCH  15  22
ENDBRANCH  11  20
ENDBRANCH   1  12
BRANCH   6  23
ATOM     23  O   UNL     1       1.461 -10.040   2.893  0.00  0.00    -0.491 OA
ATOM     24  C   UNL     1       1.089 -10.922   1.833  0.00  0.00    +0.277 C 
ENDBRANCH   6  23
BRANCH   5  25
ATOM     25  O   UNL     1       2.144  -8.241   4.909  0.00  0.00    -0.491 OA
ATOM     26  C   UNL     1       2.469  -7.273   5.910  0.00  0.00    +0.277 C 
ENDBRANCH   5  25
TORSDOF 5
