REMARK  Name = ZINC58942644
REMARK  6 active torsions:
REMARK  status: ('A' for Active; 'I' for Inactive)
REMARK    1  A    between atoms: C_5  and  N_7
REMARK    2  A    between atoms: C_8  and  C_10
REMARK    3  A    between atoms: N_15  and  C_26
REMARK    4  A    between atoms: N_17  and  C_18
REMARK    5  A    between atoms: C_26  and  C_27
REMARK    6  A    between atoms: C_27  and  C_28
REMARK                            x       y       z     vdW  Elec       q    Type
REMARK                         _______ _______ _______ _____ _____    ______ ____
ROOT
ATOM      1  C   UNL     1       0.117  -4.277   0.192  0.00  0.00    +0.149 C 
ATOM      2  C   UNL     1      -1.089  -4.766   0.996  0.00  0.00    +0.120 C 
ATOM      3  C   UNL     1      -1.234  -6.248   0.960  0.00  0.00    +0.223 C 
ATOM      4  O   UNL     1      -1.778  -6.746   1.923  0.00  0.00    -0.275 OA
ATOM      5  N   UNL     1      -0.849  -7.094   0.017  0.00  0.00    -0.250 N 
ATOM      6  C   UNL     1      -0.091  -6.739  -1.085  0.00  0.00    +0.164 C 
ATOM      7  N   UNL     1       0.523  -7.642  -1.812  0.00  0.00    -0.226 NA
ATOM      8  S   UNL     1       0.018  -5.013  -1.474  0.00  0.00    -0.077 S 
ENDROOT
BRANCH   7   9
ATOM      9  C   UNL     1       1.266  -7.258  -2.897  0.00  0.00    +0.067 A 
ATOM     10  C   UNL     1       0.765  -6.310  -3.790  0.00  0.00    +0.030 A 
ATOM     11  C   UNL     1       1.518  -5.928  -4.881  0.00  0.00    +0.040 A 
ATOM     12  C   UNL     1       2.769  -6.483  -5.091  0.00  0.00    +0.124 A 
ATOM     13  C   UNL     1       3.272  -7.425  -4.208  0.00  0.00    +0.040 A 
ATOM     14  C   UNL     1       2.530  -7.810  -3.111  0.00  0.00    +0.030 A 
ATOM     15  F   UNL     1       3.502  -6.105  -6.162  0.00  0.00    -0.205 F 
ENDBRANCH   7   9
BRANCH   1  17
ATOM     16  N   UNL     1       1.236  -2.081  -0.022  0.00  0.00    -0.282 N 
ATOM     17  C   UNL     1       0.085  -2.774   0.087  0.00  0.00    +0.231 C 
ATOM     18  O   UNL     1      -0.977  -2.187   0.102  0.00  0.00    -0.274 OA
ATOM     19  H   UNL     1       2.079  -2.552  -0.115  0.00  0.00    +0.155 HD
BRANCH  16  24
ATOM     20  C   UNL     1       0.153   1.372   0.637  0.00  0.00    +0.002 A 
ATOM     21  C   UNL     1       1.173   2.087   0.036  0.00  0.00    +0.003 A 
ATOM     22  C   UNL     1       2.214   1.423  -0.585  0.00  0.00    +0.040 A 
ATOM     23  C   UNL     1       2.239   0.040  -0.607  0.00  0.00    +0.144 A 
ATOM     24  C   UNL     1       1.215  -0.681  -0.002  0.00  0.00    +0.069 A 
ATOM     25  C   UNL     1       0.172  -0.009   0.620  0.00  0.00    +0.026 A 
ATOM     26  F   UNL     1       3.256  -0.609  -1.214  0.00  0.00    -0.204 F 
ENDBRANCH  16  24
ENDBRANCH   1  17
BRANCH   5  27
ATOM     27  C   UNL     1      -1.251  -8.496   0.148  0.00  0.00    +0.120 C 
BRANCH  27  28
ATOM     28  C   UNL     1      -2.597  -8.708  -0.547  0.00  0.00    +0.054 C 
BRANCH  28  29
ATOM     29  C   UNL     1      -3.011 -10.151  -0.411  0.00  0.00    -0.042 A 
ATOM     30  C   UNL     1      -2.627 -11.071  -1.369  0.00  0.00    +0.007 A 
ATOM     31  C   UNL     1      -3.003 -12.396  -1.249  0.00  0.00    +0.050 A 
ATOM     32  C   UNL     1      -3.767 -12.805  -0.168  0.00  0.00    +0.166 A 
ATOM     33  C   UNL     1      -4.154 -11.878   0.796  0.00  0.00    +0.166 A 
ATOM     34  C   UNL     1      -3.768 -10.553   0.673  0.00  0.00    +0.053 A 
ATOM     35  O   UNL     1      -4.891 -12.521   1.748  0.00  0.00    -0.453 OA
ATOM     36  C   UNL     1      -5.296 -13.764   1.146  0.00  0.00    +0.466 C 
ATOM     37  O   UNL     1      -4.262 -14.028   0.179  0.00  0.00    -0.453 OA
ENDBRANCH  28  29
ENDBRANCH  27  28
ENDBRANCH   5  27
TORSDOF 6
