REMARK  Name = ZINC64721136
REMARK  10 active torsions:
REMARK  status: ('A' for Active; 'I' for Inactive)
REMARK    1  A    between atoms: C_1  and  N_2
REMARK    2  A    between atoms: N_2  and  C_3
REMARK    3  A    between atoms: N_2  and  C_4
REMARK    4  A    between atoms: C_7  and  C_10
REMARK    5  A    between atoms: C_10  and  C_12
REMARK    6  A    between atoms: C_10  and  C_29
REMARK    7  A    between atoms: C_12  and  N_13
REMARK    8  A    between atoms: C_14  and  C_16
REMARK    9  A    between atoms: C_16  and  N_17
REMARK   10  A    between atoms: C_18  and  C_20
REMARK                            x       y       z     vdW  Elec       q    Type
REMARK                         _______ _______ _______ _____ _____    ______ ____
ROOT
ATOM      1  C   UNL     1      -4.870  -2.906   0.033  0.00  0.00    +0.064 C 
ENDROOT
BRANCH   1   2
ATOM      2  C   UNL     1      -5.656  -2.555   1.269  0.00  0.00    -0.033 C 
ATOM      3  C   UNL     1      -6.051  -3.399   2.250  0.00  0.00    -0.000 A 
ATOM      4  C   UNL     1      -5.873  -4.842   2.450  0.00  0.00    +0.010 A 
ATOM      5  C   UNL     1      -6.395  -5.420   3.555  0.00  0.00    +0.001 A 
ATOM      6  C   UNL     1      -7.100  -4.678   4.512  0.00  0.00    +0.002 A 
ATOM      7  C   UNL     1      -7.304  -3.348   4.398  0.00  0.00    +0.026 A 
ATOM      8  C   UNL     1      -6.799  -2.637   3.275  0.00  0.00    +0.043 A 
ATOM      9  N   UNL     1      -6.864  -1.371   2.942  0.00  0.00    -0.380 N 
ATOM     10  C   UNL     1      -6.159  -1.185   1.669  0.00  0.00    +0.145 C 
ATOM     11  H   UNL     1      -7.302  -0.673   3.454  0.00  0.00    +0.160 HD
ENDBRANCH   1   2
BRANCH   1  15
ATOM     12  C   UNL     1      -1.198  -0.719   0.010  0.00  0.00    +0.029 A 
ATOM     13  C   UNL     1      -1.181  -2.108   0.008  0.00  0.00    +0.023 A 
ATOM     14  C   UNL     1      -2.369  -2.812   0.016  0.00  0.00    +0.006 A 
ATOM     15  C   UNL     1      -3.575  -2.135   0.025  0.00  0.00    -0.039 A 
ATOM     16  C   UNL     1      -3.596  -0.752   0.027  0.00  0.00    +0.006 A 
ATOM     17  C   UNL     1      -2.411  -0.042   0.025  0.00  0.00    +0.023 A 
BRANCH  12  19
ATOM     18  C   UNL     1      -0.018   1.461   0.010  0.00  0.00    +0.129 C 
ATOM     19  N   UNL     1       0.002  -0.004   0.002  0.00  0.00    -0.336 N 
ATOM     20  C   UNL     1       1.281  -0.719  -0.014  0.00  0.00    +0.129 C 
ENDBRANCH  12  19
ENDBRANCH   1  15
BRANCH   1  21
ATOM     21  C   UNL     1      -5.686  -2.545  -1.210  0.00  0.00    +0.116 C 
BRANCH  21  22
ATOM     22  N   UNL     1      -6.888  -3.381  -1.265  0.00  0.00    -0.313 N 
ATOM     23  C   UNL     1      -7.762  -3.239  -2.280  0.00  0.00    +0.230 C 
ATOM     24  O   UNL     1      -7.554  -2.418  -3.149  0.00  0.00    -0.274 OA
ATOM     25  H   UNL     1      -7.054  -4.037  -0.570  0.00  0.00    +0.149 HD
BRANCH  23  26
ATOM     26  C   UNL     1      -8.998  -4.098  -2.337  0.00  0.00    +0.200 C 
BRANCH  26  27
ATOM     27  N   UNL     1      -9.780  -3.753  -3.527  0.00  0.00    -0.303 N 
ATOM     28  C   UNL     1     -10.934  -4.398  -3.785  0.00  0.00    +0.245 C 
ATOM     29  O   UNL     1     -11.328  -5.266  -3.031  0.00  0.00    -0.270 OA
ATOM     30  H   UNL     1      -9.466  -3.060  -4.129  0.00  0.00    +0.150 HD
BRANCH  28  31
ATOM     31  C   UNL     1     -11.722  -4.050  -4.985  0.00  0.00    +0.040 A 
ATOM     32  C   UNL     1     -11.268  -3.057  -5.856  0.00  0.00    +0.017 A 
ATOM     33  C   UNL     1     -12.004  -2.734  -6.975  0.00  0.00    +0.050 A 
ATOM     34  C   UNL     1     -13.196  -3.393  -7.242  0.00  0.00    +0.166 A 
ATOM     35  C   UNL     1     -13.655  -4.386  -6.375  0.00  0.00    +0.167 A 
ATOM     36  C   UNL     1     -12.919  -4.717  -5.254  0.00  0.00    +0.062 A 
ATOM     37  O   UNL     1     -14.837  -4.872  -6.857  0.00  0.00    -0.453 OA
ATOM     38  C   UNL     1     -15.300  -3.889  -7.801  0.00  0.00    +0.466 C 
ATOM     39  O   UNL     1     -14.090  -3.260  -8.263  0.00  0.00    -0.453 OA
ENDBRANCH  28  31
ENDBRANCH  26  27
ENDBRANCH  23  26
ENDBRANCH  21  22
ENDBRANCH   1  21
TORSDOF 8
