REMARK  Name = ZINC59420104
REMARK  6 active torsions:
REMARK  status: ('A' for Active; 'I' for Inactive)
REMARK    1  A    between atoms: C_1  and  C_2
REMARK    2  A    between atoms: C_3  and  C_15
REMARK    3  A    between atoms: C_4  and  C_14
REMARK    4  A    between atoms: N_5  and  C_7
REMARK    5  A    between atoms: C_20  and  C_23
REMARK    6  A    between atoms: C_23  and  C_24
REMARK                            x       y       z     vdW  Elec       q    Type
REMARK                         _______ _______ _______ _____ _____    ______ ____
ROOT
ATOM      1  C   UNL     1      -0.371  -0.396  -2.525  0.00  0.00    +0.253 C 
ATOM      2  O   UNL     1       0.575  -0.062  -3.212  0.00  0.00    -0.270 OA
ATOM      3  N   UNL     1      -1.619  -0.362  -3.035  0.00  0.00    -0.261 N 
ATOM      4  C   UNL     1      -1.823   0.054  -4.344  0.00  0.00    +0.165 A 
ATOM      5  N   UNL     1      -2.958   0.155  -5.002  0.00  0.00    -0.229 NA
ATOM      6  C   UNL     1      -2.986   0.571  -6.255  0.00  0.00    +0.059 A 
ATOM      7  C   UNL     1      -1.797   0.886  -6.826  0.00  0.00    +0.072 A 
ATOM      8  S   UNL     1      -0.680   0.558  -5.472  0.00  0.00    -0.060 S 
ATOM      9  H   UNL     1      -2.374  -0.629  -2.487  0.00  0.00    +0.157 HD
ENDROOT
BRANCH   1  12
ATOM     10  C   UNL     1      -0.366   1.475   0.038  0.00  0.00    +0.068 C 
ATOM     11  C   UNL     1      -0.149  -0.016   0.014  0.00  0.00    +0.073 A 
ATOM     12  C   UNL     1      -0.154  -0.838  -1.136  0.00  0.00    +0.081 A 
ATOM     13  C   UNL     1       0.082  -2.131  -0.715  0.00  0.00    +0.054 A 
ATOM     14  N   UNL     1       0.224  -2.099   0.623  0.00  0.00    -0.236 N 
ATOM     15  N   UNL     1       0.081  -0.774   1.051  0.00  0.00    -0.171 NA
ATOM     16  C   UNL     1       0.165  -3.354  -1.591  0.00  0.00    +0.066 C 
BRANCH  14  17
ATOM     17  C   UNL     1       0.476  -3.204   1.447  0.00  0.00    +0.066 A 
ATOM     18  C   UNL     1       1.398  -4.166   1.058  0.00  0.00    +0.029 A 
ATOM     19  C   UNL     1       1.645  -5.253   1.873  0.00  0.00    +0.017 A 
ATOM     20  C   UNL     1       0.974  -5.385   3.075  0.00  0.00    +0.018 A 
ATOM     21  C   UNL     1       0.054  -4.428   3.465  0.00  0.00    +0.017 A 
ATOM     22  C   UNL     1      -0.193  -3.335   2.657  0.00  0.00    +0.029 A 
ATOM     23 BR   UNL     1       1.314  -6.876   4.188  0.00  0.00    -0.050 Br
ENDBRANCH  14  17
ENDBRANCH   1  12
BRANCH   6  24
ATOM     24  C   UNL     1      -4.281   0.690  -7.016  0.00  0.00    +0.151 C 
BRANCH  24  25
ATOM     25  C   UNL     1      -5.006  -0.630  -6.982  0.00  0.00    +0.216 C 
ATOM     26  O   UNL     1      -4.520  -1.575  -6.397  0.00  0.00    -0.276 OA
ATOM     27  N   UNL     1      -6.196  -0.762  -7.602  0.00  0.00    -0.329 N 
ATOM     28  H   UNL     1      -6.585  -0.006  -8.070  0.00  0.00    +0.145 HD
ATOM     29  H   UNL     1      -6.663  -1.611  -7.580  0.00  0.00    +0.145 HD
ENDBRANCH  24  25
ENDBRANCH   6  24
TORSDOF 4
