REMARK  Name = ZINC11744402
REMARK  10 active torsions:
REMARK  status: ('A' for Active; 'I' for Inactive)
REMARK    1  A    between atoms: C_1  and  C_2
REMARK    2  A    between atoms: C_5  and  C_8
REMARK    3  A    between atoms: C_8  and  C_10
REMARK    4  A    between atoms: C_8  and  N_29
REMARK    5  A    between atoms: C_10  and  C_11
REMARK    6  A    between atoms: C_16  and  C_19
REMARK    7  A    between atoms: C_22  and  C_24
REMARK    8  A    between atoms: C_24  and  N_25
REMARK    9  A    between atoms: C_26  and  C_28
REMARK   10  A    between atoms: C_30  and  C_32
REMARK                            x       y       z     vdW  Elec       q    Type
REMARK                         _______ _______ _______ _____ _____    ______ ____
ROOT
ATOM      1  C   UNL     1      -2.493   1.324   2.587  0.00  0.00    +0.221 C 
ATOM      2  O   UNL     1      -2.446   2.521   2.395  0.00  0.00    -0.275 OA
ATOM      3  N   UNL     1      -2.522   0.844   3.846  0.00  0.00    -0.265 N 
ATOM      4  C   UNL     1      -2.499   1.720   4.924  0.00  0.00    +0.165 A 
ATOM      5  N   UNL     1      -2.520   1.453   6.217  0.00  0.00    -0.224 NA
ATOM      6  C   UNL     1      -2.490   2.428   7.122  0.00  0.00    +0.087 A 
ATOM      7  C   UNL     1      -2.437   3.729   6.702  0.00  0.00    +0.077 A 
ATOM      8  S   UNL     1      -2.423   3.506   4.928  0.00  0.00    -0.060 S 
ATOM      9  H   UNL     1      -2.560  -0.113   3.999  0.00  0.00    +0.157 HD
ENDROOT
BRANCH   6  10
ATOM     10  C   UNL     1      -2.515   2.108   8.566  0.00  0.00    +0.038 A 
ATOM     11  C   UNL     1      -2.573   0.885   9.178  0.00  0.00    +0.018 A 
ATOM     12  C   UNL     1      -2.582   0.834  10.556  0.00  0.00    +0.013 A 
ATOM     13  C   UNL     1      -2.543   1.993  11.261  0.00  0.00    +0.007 A 
ATOM     14  S   UNL     1      -2.484   3.218   9.964  0.00  0.00    -0.090 S 
BRANCH  13  15
ATOM     15  C   UNL     1      -2.549   2.193  12.754  0.00  0.00    +0.146 C 
BRANCH  15  16
ATOM     16  N   UNL     1      -1.171   2.205  13.251  0.00  0.00    -0.311 N 
ATOM     17  C   UNL     1      -0.930   2.372  14.567  0.00  0.00    +0.210 C 
ATOM     18  O   UNL     1      -1.854   2.513  15.339  0.00  0.00    -0.276 OA
ATOM     19  C   UNL     1       0.487   2.383  15.077  0.00  0.00    +0.109 C 
ATOM     20  H   UNL     1      -0.432   2.092  12.633  0.00  0.00    +0.149 HD
ENDBRANCH  15  16
ENDBRANCH  13  15
ENDBRANCH   6  10
BRANCH   1  21
ATOM     21  C   UNL     1      -2.519   0.374   1.417  0.00  0.00    +0.123 C 
BRANCH  21  22
ATOM     22  C   UNL     1      -2.477   1.171   0.112  0.00  0.00    +0.112 C 
BRANCH  22  27
ATOM     23  C   UNL     1      -3.049  -2.434  -4.367  0.00  0.00    +0.044 C 
ATOM     24  C   UNL     1      -2.900  -1.494  -3.199  0.00  0.00    -0.050 A 
ATOM     25  C   UNL     1      -3.956  -0.686  -2.823  0.00  0.00    +0.004 A 
ATOM     26  C   UNL     1      -3.819   0.176  -1.751  0.00  0.00    +0.006 A 
ATOM     27  C   UNL     1      -2.626   0.231  -1.056  0.00  0.00    -0.027 A 
ATOM     28  C   UNL     1      -1.568  -0.574  -1.435  0.00  0.00    +0.006 A 
ATOM     29  C   UNL     1      -1.706  -1.440  -2.503  0.00  0.00    +0.004 A 
ENDBRANCH  22  27
BRANCH  22  30
ATOM     30  N   UNL     1      -1.196   1.876   0.011  0.00  0.00    -0.308 N 
ATOM     31  C   UNL     1      -1.105   3.006  -0.717  0.00  0.00    +0.210 C 
ATOM     32  O   UNL     1      -2.057   3.391  -1.362  0.00  0.00    -0.276 OA
ATOM     33  C   UNL     1       0.179   3.796  -0.725  0.00  0.00    +0.109 C 
ATOM     34  H   UNL     1      -0.414   1.529   0.468  0.00  0.00    +0.149 HD
ENDBRANCH  22  30
ENDBRANCH  21  22
ENDBRANCH   1  21
TORSDOF 7
