REMARK  Name = ZINC37304027
REMARK  6 active torsions:
REMARK  status: ('A' for Active; 'I' for Inactive)
REMARK    1  A    between atoms: C_1  and  S_2
REMARK    2  A    between atoms: S_2  and  C_5
REMARK    3  A    between atoms: C_10  and  N_11
REMARK    4  A    between atoms: N_11  and  C_12
REMARK    5  A    between atoms: C_12  and  C_13
REMARK    6  A    between atoms: C_16  and  N_18
REMARK                            x       y       z     vdW  Elec       q    Type
REMARK                         _______ _______ _______ _____ _____    ______ ____
ROOT
ATOM      1  N   UNL     1      -0.944   0.531  -2.781  0.00  0.00    -0.335 N 
ATOM      2  H   UNL     1      -1.409   0.771  -1.964  0.00  0.00    +0.147 HD
ENDROOT
BRANCH   1   8
ATOM      3  C   UNL     1       0.845  -0.437  -1.483  0.00  0.00    +0.109 A 
ATOM      4  C   UNL     1       2.060  -1.092  -1.423  0.00  0.00    +0.029 A 
ATOM      5  C   UNL     1       2.723  -1.432  -2.588  0.00  0.00    +0.002 A 
ATOM      6  C   UNL     1       2.172  -1.118  -3.817  0.00  0.00    +0.002 A 
ATOM      7  C   UNL     1       0.958  -0.464  -3.885  0.00  0.00    +0.025 A 
ATOM      8  C   UNL     1       0.287  -0.126  -2.716  0.00  0.00    +0.053 A 
BRANCH   3  10
ATOM      9  C   UNL     1      -0.022   1.810   0.012  0.00  0.00    +0.200 C 
ATOM     10  S   UNL     1       0.002  -0.004   0.002  0.00  0.00    -0.004 S 
ATOM     11  O   UNL     1       0.835  -0.488   1.046  0.00  0.00    -0.170 OA
ATOM     12  O   UNL     1      -1.315  -0.510  -0.168  0.00  0.00    -0.170 OA
ENDBRANCH   3  10
ENDBRANCH   1   8
BRANCH   1  13
ATOM     13  C   UNL     1      -1.531   0.860  -4.082  0.00  0.00    +0.176 C 
BRANCH  13  14
ATOM     14  C   UNL     1      -2.849   1.560  -3.876  0.00  0.00    +0.125 A 
ATOM     15  C   UNL     1      -3.025   2.889  -3.763  0.00  0.00    +0.049 A 
ATOM     16  C   UNL     1      -4.410   3.106  -3.582  0.00  0.00    +0.076 A 
ATOM     17  C   UNL     1      -4.999   1.896  -3.596  0.00  0.00    +0.280 A 
ATOM     18  O   UNL     1      -4.049   0.964  -3.780  0.00  0.00    -0.437 OA
BRANCH  17  19
ATOM     19  N   UNL     1      -6.448   1.637  -3.440  0.00  0.00    +0.093 N 
ATOM     20  O   UNL     1      -7.214   2.559  -3.285  0.00  0.00    -0.123 OA
ATOM     21  O   UNL     1      -6.865   0.503  -3.469  0.00  0.00    -0.123 OA
ENDBRANCH  17  19
ENDBRANCH  13  14
ENDBRANCH   1  13
TORSDOF 5
