REMARK  Name = ZINC64186361
REMARK  6 active torsions:
REMARK  status: ('A' for Active; 'I' for Inactive)
REMARK    1  A    between atoms: C_7  and  C_10
REMARK    2  A    between atoms: C_16  and  C_18
REMARK    3  A    between atoms: C_18  and  C_19
REMARK    4  A    between atoms: C_19  and  N_20
REMARK    5  A    between atoms: N_20  and  C_21
REMARK    6  A    between atoms: C_26  and  N_27
REMARK                            x       y       z     vdW  Elec       q    Type
REMARK                         _______ _______ _______ _____ _____    ______ ____
ROOT
ATOM      1  C   UNL     1       2.698  -3.188  -0.399  0.00  0.00    +0.020 C 
ATOM      2  C   UNL     1       2.901  -4.043   0.854  0.00  0.00    +0.027 C 
ATOM      3  C   UNL     1       1.726  -5.016   0.999  0.00  0.00    +0.108 C 
ATOM      4  N   UNL     1       1.595  -5.788  -0.244  0.00  0.00    -0.301 N 
ATOM      5  C   UNL     1       1.485  -5.064  -1.518  0.00  0.00    +0.108 C 
ATOM      6  C   UNL     1       2.663  -4.091  -1.635  0.00  0.00    +0.027 C 
ATOM      7  C   UNL     1       1.576  -7.135  -0.216  0.00  0.00    +0.217 C 
ATOM      8  O   UNL     1       1.667  -7.721   0.841  0.00  0.00    -0.276 OA
ENDROOT
BRANCH   1  15
ATOM      9  C   UNL     1       2.840   1.397  -0.500  0.00  0.00    +0.001 A 
ATOM     10  C   UNL     1       4.135   1.916  -0.635  0.00  0.00    +0.002 A 
ATOM     11  C   UNL     1       5.230   1.132  -0.725  0.00  0.00    +0.026 A 
ATOM     12  C   UNL     1       5.104  -0.284  -0.686  0.00  0.00    +0.043 A 
ATOM     13  N   UNL     1       5.997  -1.242  -0.754  0.00  0.00    -0.380 N 
ATOM     14  C   UNL     1       5.306  -2.533  -0.663  0.00  0.00    +0.145 C 
ATOM     15  C   UNL     1       3.835  -2.208  -0.527  0.00  0.00    -0.038 C 
ATOM     16  C   UNL     1       3.747  -0.858  -0.544  0.00  0.00    -0.001 A 
ATOM     17  C   UNL     1       2.610   0.065  -0.452  0.00  0.00    +0.010 A 
ATOM     18  H   UNL     1       6.954  -1.118  -0.849  0.00  0.00    +0.160 HD
ENDBRANCH   1  15
BRANCH   7  19
ATOM     19  C   UNL     1       1.441  -7.913  -1.500  0.00  0.00    +0.114 C 
BRANCH  19  20
ATOM     20  C   UNL     1       1.446  -9.412  -1.191  0.00  0.00    +0.111 C 
BRANCH  20  21
ATOM     21  N   UNL     1       1.315 -10.168  -2.438  0.00  0.00    -0.342 N 
ATOM     22  H   UNL     1       1.242  -9.700  -3.284  0.00  0.00    +0.146 HD
BRANCH  21  23
ATOM     23  C   UNL     1       1.295 -11.565  -2.410  0.00  0.00    +0.058 A 
ATOM     24  C   UNL     1       1.522 -12.240  -1.217  0.00  0.00    +0.025 A 
ATOM     25  C   UNL     1       1.501 -13.620  -1.192  0.00  0.00    +0.002 A 
ATOM     26  C   UNL     1       1.255 -14.331  -2.353  0.00  0.00    +0.002 A 
ATOM     27  C   UNL     1       1.030 -13.662  -3.542  0.00  0.00    +0.034 A 
ATOM     28  C   UNL     1       1.043 -12.281  -3.573  0.00  0.00    +0.147 A 
BRANCH  28  29
ATOM     29  N   UNL     1       0.796 -11.566  -4.845  0.00  0.00    +0.058 N 
ATOM     30  O   UNL     1       0.161 -10.537  -4.846  0.00  0.00    -0.126 OA
ATOM     31  O   UNL     1       1.228 -12.011  -5.882  0.00  0.00    -0.126 OA
ENDBRANCH  28  29
ENDBRANCH  21  23
ENDBRANCH  20  21
ENDBRANCH  19  20
ENDBRANCH   7  19
TORSDOF 6
