REMARK  Name = ZINC13249918
REMARK  6 active torsions:
REMARK  status: ('A' for Active; 'I' for Inactive)
REMARK    1  A    between atoms: C_3  and  S_19
REMARK    2  A    between atoms: C_6  and  N_7
REMARK    3  A    between atoms: C_8  and  C_10
REMARK    4  A    between atoms: C_10  and  C_11
REMARK    5  A    between atoms: C_11  and  C_17
REMARK    6  A    between atoms: S_19  and  N_22
REMARK                            x       y       z     vdW  Elec       q    Type
REMARK                         _______ _______ _______ _____ _____    ______ ____
ROOT
ATOM      1  C   UNL     1      -5.784   3.833   5.035  0.00  0.00    +0.025 A 
ATOM      2  C   UNL     1      -4.526   3.778   4.469  0.00  0.00    +0.031 A 
ATOM      3  C   UNL     1      -4.386   3.757   3.094  0.00  0.00    +0.113 A 
ATOM      4  C   UNL     1      -5.504   3.796   2.281  0.00  0.00    +0.031 A 
ATOM      5  C   UNL     1      -6.765   3.847   2.841  0.00  0.00    +0.025 A 
ATOM      6  C   UNL     1      -6.910   3.868   4.222  0.00  0.00    +0.033 A 
ENDROOT
BRANCH   6   7
ATOM      7  N   UNL     1      -8.186   3.925   4.793  0.00  0.00    -0.285 N 
ATOM      8  C   UNL     1      -8.378   4.590   5.949  0.00  0.00    +0.218 C 
ATOM      9  O   UNL     1      -7.466   5.214   6.449  0.00  0.00    -0.275 OA
ATOM     10  H   UNL     1      -8.932   3.485   4.356  0.00  0.00    +0.155 HD
BRANCH   8  11
ATOM     11  C   UNL     1      -9.727   4.559   6.621  0.00  0.00    +0.114 C 
BRANCH  11  12
ATOM     12  C   UNL     1      -9.712   5.487   7.837  0.00  0.00    +0.080 C 
ATOM     13  C   UNL     1     -11.058   5.403   8.559  0.00  0.00    +0.019 C 
ATOM     14  C   UNL     1     -12.175   5.831   7.606  0.00  0.00    +0.001 C 
ATOM     15  C   UNL     1     -11.931   7.270   7.147  0.00  0.00    +0.000 C 
ATOM     16  C   UNL     1     -10.585   7.354   6.425  0.00  0.00    +0.001 C 
ATOM     17  C   UNL     1      -9.468   6.926   7.379  0.00  0.00    +0.019 C 
BRANCH  12  18
ATOM     18  C   UNL     1      -8.611   5.065   8.777  0.00  0.00    +0.362 C 
ATOM     19  O   UNL     1      -7.782   5.868   9.135  0.00  0.00    -0.246 OA
ATOM     20  O   UNL     1      -8.551   3.798   9.215  0.00  0.00    -0.246 OA
ENDBRANCH  12  18
ENDBRANCH  11  12
ENDBRANCH   8  11
ENDBRANCH   6   7
BRANCH   3  21
ATOM     21  S   UNL     1      -2.778   3.687   2.375  0.00  0.00    +0.100 S 
ATOM     22  O   UNL     1      -1.879   4.214   3.340  0.00  0.00    -0.146 OA
ATOM     23  O   UNL     1      -2.895   4.228   1.066  0.00  0.00    -0.146 OA
BRANCH  21  24
ATOM     24  N   UNL     1      -2.393   2.086   2.193  0.00  0.00    -0.118 NA
ATOM     25  C   UNL     1      -1.254   1.750   1.682  0.00  0.00    +0.117 C 
ATOM     26  C   UNL     1      -0.304   2.818   1.264  0.00  0.00    +0.073 C 
ATOM     27  C   UNL     1      -0.484   3.130  -0.237  0.00  0.00    +0.008 C 
ATOM     28  C   UNL     1      -0.001   2.001  -1.062  0.00  0.00    +0.002 C 
ATOM     29  C   UNL     1      -0.776   0.706  -0.873  0.00  0.00    +0.019 C 
ATOM     30  C   UNL     1      -0.248  -0.056   0.318  0.00  0.00    +0.102 C 
ATOM     31  N   UNL     1      -0.949   0.404   1.540  0.00  0.00    -0.331 N 
ATOM     32  H   UNL     1      -1.194  -0.230   2.232  0.00  0.00    +0.147 HD
ENDBRANCH  21  24
ENDBRANCH   3  21
TORSDOF 6
