REMARK  Name = ZINC64040666
REMARK  8 active torsions:
REMARK  status: ('A' for Active; 'I' for Inactive)
REMARK    1  A    between atoms: C_1  and  O_2
REMARK    2  A    between atoms: O_2  and  C_3
REMARK    3  A    between atoms: C_6  and  C_9
REMARK    4  A    between atoms: C_9  and  C_21
REMARK    5  A    between atoms: N_13  and  C_16
REMARK    6  A    between atoms: C_21  and  C_22
REMARK    7  A    between atoms: N_24  and  C_25
REMARK    8  A    between atoms: C_25  and  C_26
REMARK                            x       y       z     vdW  Elec       q    Type
REMARK                         _______ _______ _______ _____ _____    ______ ____
ROOT
ATOM      1  C   UNL     1       2.594  -2.518  -4.444  0.00  0.00    +0.089 C 
ATOM      2  C   UNL     1       2.531  -4.012  -4.064  0.00  0.00    +0.117 C 
ATOM      3  C   UNL     1       3.964  -4.475  -4.210  0.00  0.00    +0.223 C 
ATOM      4  O   UNL     1       4.362  -5.602  -4.005  0.00  0.00    -0.275 OA
ATOM      5  N   UNL     1       4.723  -3.444  -4.601  0.00  0.00    -0.238 N 
ATOM      6  C   UNL     1       4.056  -2.295  -4.763  0.00  0.00    +0.233 C 
ATOM      7  O   UNL     1       4.546  -1.242  -5.112  0.00  0.00    -0.274 OA
ENDROOT
BRANCH   1  11
ATOM      8  C   UNL     1       1.385  -0.077  -1.151  0.00  0.00    +0.120 A 
ATOM      9  C   UNL     1       2.720  -0.126  -1.527  0.00  0.00    +0.046 A 
ATOM     10  C   UNL     1       3.108  -0.916  -2.591  0.00  0.00    +0.008 A 
ATOM     11  C   UNL     1       2.168  -1.658  -3.282  0.00  0.00    -0.031 A 
ATOM     12  C   UNL     1       0.837  -1.611  -2.910  0.00  0.00    +0.008 A 
ATOM     13  C   UNL     1       0.445  -0.827  -1.842  0.00  0.00    +0.046 A 
BRANCH   8  15
ATOM     14  C   UNL     1       2.023   1.443   0.562  0.00  0.00    +0.277 C 
ATOM     15  O   UNL     1       1.001   0.699  -0.103  0.00  0.00    -0.495 OA
ENDBRANCH   8  15
ENDBRANCH   1  11
BRANCH   5  16
ATOM     16  C   UNL     1       6.165  -3.564  -4.832  0.00  0.00    +0.084 C 
ATOM     17  C   UNL     1       6.442  -4.655  -5.888  0.00  0.00    +0.023 C 
ATOM     18  C   UNL     1       7.740  -5.340  -5.393  0.00  0.00    +0.002 C 
ATOM     19  C   UNL     1       7.552  -5.360  -3.856  0.00  0.00    +0.002 C 
ATOM     20  C   UNL     1       6.870  -4.012  -3.541  0.00  0.00    +0.023 C 
ENDBRANCH   5  16
BRANCH   1  21
ATOM     21  C   UNL     1       1.725  -2.234  -5.670  0.00  0.00    +0.117 C 
BRANCH  21  22
ATOM     22  C   UNL     1       1.757  -0.759  -5.978  0.00  0.00    +0.214 C 
ATOM     23  O   UNL     1       2.421  -0.011  -5.291  0.00  0.00    -0.276 OA
ATOM     24  N   UNL     1       1.050  -0.271  -7.016  0.00  0.00    -0.312 N 
ATOM     25  H   UNL     1       0.519  -0.869  -7.565  0.00  0.00    +0.149 HD
BRANCH  24  26
ATOM     26  C   UNL     1       1.081   1.163  -7.314  0.00  0.00    +0.150 C 
BRANCH  26  27
ATOM     27  C   UNL     1       0.199   1.450  -8.531  0.00  0.00    +0.191 C 
ATOM     28  N   UNL     1      -1.174   0.997  -8.277  0.00  0.00    -0.362 N 
ATOM     29  C   UNL     1      -1.459   0.092  -9.168  0.00  0.00    +0.060 A 
ATOM     30  C   UNL     1      -2.662  -0.714  -9.422  0.00  0.00    +0.030 A 
ATOM     31  C   UNL     1      -2.669  -1.594 -10.442  0.00  0.00    +0.040 A 
ATOM     32  C   UNL     1      -1.559  -1.780 -11.291  0.00  0.00    +0.125 A 
ATOM     33  C   UNL     1      -0.407  -1.090 -11.144  0.00  0.00    +0.065 A 
ATOM     34  C   UNL     1      -0.287  -0.104 -10.064  0.00  0.00    +0.063 A 
ATOM     35  N   UNL     1       0.679   0.689  -9.692  0.00  0.00    -0.362 N 
ATOM     36  F   UNL     1      -1.651  -2.684 -12.291  0.00  0.00    -0.205 F 
ATOM     37  H   UNL     1      -1.761   1.314  -7.573  0.00  0.00    +0.162 HD
ATOM     38  H   UNL     1       1.554   0.762 -10.105  0.00  0.00    +0.162 HD
ENDBRANCH  26  27
ENDBRANCH  24  26
ENDBRANCH  21  22
ENDBRANCH   1  21
TORSDOF 7
