REMARK  Name = ZINC14752170
REMARK  12 active torsions:
REMARK  status: ('A' for Active; 'I' for Inactive)
REMARK    1  A    between atoms: C_1  and  C_2
REMARK    2  A    between atoms: C_2  and  N_65
REMARK    3  A    between atoms: C_6  and  C_8
REMARK    4  A    between atoms: C_8  and  N_9
REMARK    5  A    between atoms: C_10  and  C_12
REMARK    6  A    between atoms: N_15  and  C_17
REMARK    7  A    between atoms: C_17  and  C_18
REMARK    8  A    between atoms: C_18  and  O_19
REMARK    9  A    between atoms: O_19  and  C_20
REMARK   10  A    between atoms: C_25  and  C_27
REMARK   11  A    between atoms: C_30  and  S_32
REMARK   12  A    between atoms: S_32  and  C_33
REMARK                            x       y       z     vdW  Elec       q    Type
REMARK                         _______ _______ _______ _____ _____    ______ ____
ROOT
ATOM      1  C   UNL     1       1.559  -2.193  -4.206  0.00  0.00    +0.152 A 
ATOM      2  C   UNL     1       2.800  -2.484  -3.619  0.00  0.00    +0.023 A 
ATOM      3  C   UNL     1       2.772  -1.925  -2.384  0.00  0.00    +0.046 A 
ATOM      4  N   UNL     1       1.572  -1.336  -2.245  0.00  0.00    -0.265 N 
ATOM      5  N   UNL     1       0.871  -1.502  -3.313  0.00  0.00    -0.166 NA
ATOM      6  C   UNL     1       3.912  -1.984  -1.400  0.00  0.00    +0.074 C 
ATOM      7  C   UNL     1       4.865  -3.112  -1.816  0.00  0.00    +0.114 C 
ATOM      8  N   UNL     1       5.107  -3.034  -3.264  0.00  0.00    -0.291 N 
ATOM      9  C   UNL     1       3.969  -3.252  -4.177  0.00  0.00    +0.147 C 
ATOM     10  C   UNL     1       6.338  -2.772  -3.746  0.00  0.00    +0.266 C 
ATOM     11  O   UNL     1       7.234  -2.457  -2.986  0.00  0.00    -0.268 OA
ENDROOT
BRANCH  10  12
ATOM     12  C   UNL     1       6.598  -2.867  -5.191  0.00  0.00    +0.134 A 
ATOM     13  C   UNL     1       7.802  -2.461  -5.710  0.00  0.00    +0.080 A 
ATOM     14  S   UNL     1       7.550  -2.801  -7.447  0.00  0.00    -0.069 S 
ATOM     15  C   UNL     1       5.884  -3.434  -7.315  0.00  0.00    +0.135 A 
ATOM     16  N   UNL     1       5.665  -3.343  -6.018  0.00  0.00    -0.228 NA
BRANCH  15  17
ATOM     17  S   UNL     1       4.814  -4.024  -8.585  0.00  0.00    -0.102 S 
ATOM     18  C   UNL     1       5.886  -3.801 -10.027  0.00  0.00    +0.092 C 
ENDBRANCH  15  17
ENDBRANCH  10  12
BRANCH   1  20
ATOM     19  N   UNL     1      -0.121  -2.233  -5.986  0.00  0.00    -0.312 N 
ATOM     20  C   UNL     1       1.107  -2.587  -5.556  0.00  0.00    +0.264 C 
ATOM     21  O   UNL     1       1.842  -3.230  -6.280  0.00  0.00    -0.268 OA
ATOM     22  H   UNL     1      -0.708  -1.720  -5.408  0.00  0.00    +0.149 HD
BRANCH  19  23
ATOM     23  C   UNL     1      -0.569  -2.623  -7.325  0.00  0.00    +0.089 C 
BRANCH  23  27
ATOM     24  C   UNL     1      -3.876  -2.184  -8.912  0.00  0.00    -0.078 C 
ATOM     25  C   UNL     1      -4.280  -2.712  -7.519  0.00  0.00    -0.020 C 
ATOM     26  C   UNL     1      -3.004  -2.591  -6.660  0.00  0.00    -0.016 C 
ATOM     27  C   UNL     1      -1.938  -1.999  -7.606  0.00  0.00    -0.051 C 
ATOM     28  N   UNL     1      -2.425  -2.361  -8.942  0.00  0.00    +0.382 N 
ATOM     29  H   UNL     1      -2.196  -3.340  -9.147  0.00  0.00    -0.081 HD
BRANCH  28  31
ATOM     30  C   UNL     1      -1.981  -2.102 -11.369  0.00  0.00    -0.017 C 
ATOM     31  C   UNL     1      -1.802  -1.482  -9.982  0.00  0.00    -0.082 C 
ENDBRANCH  28  31
ENDBRANCH  23  27
ENDBRANCH  19  23
ENDBRANCH   1  20
BRANCH   4  32
ATOM     32  C   UNL     1       1.124  -0.615  -1.050  0.00  0.00    +0.171 C 
BRANCH  32  33
ATOM     33  C   UNL     1       1.507   0.861  -1.172  0.00  0.00    +0.182 C 
BRANCH  33  34
ATOM     34  O   UNL     1       1.070   1.564  -0.007  0.00  0.00    -0.381 OA
ATOM     35  C   UNL     1       1.380   2.959  -0.019  0.00  0.00    +0.194 C 
ENDBRANCH  33  34
ENDBRANCH  32  33
ENDBRANCH   4  32
TORSDOF 9
