REMARK  Name = ZINC09560454
REMARK  8 active torsions:
REMARK  status: ('A' for Active; 'I' for Inactive)
REMARK    1  A    between atoms: C_1  and  C_2
REMARK    2  A    between atoms: C_2  and  O_3
REMARK    3  A    between atoms: O_3  and  C_4
REMARK    4  A    between atoms: C_9  and  O_10
REMARK    5  A    between atoms: O_10  and  C_11
REMARK    6  A    between atoms: C_11  and  C_12
REMARK    7  A    between atoms: C_15  and  C_28
REMARK    8  A    between atoms: N_33  and  C_36
REMARK                            x       y       z     vdW  Elec       q    Type
REMARK                         _______ _______ _______ _____ _____    ______ ____
ROOT
ATOM      1  C   UNL     1       3.332   0.202   3.563  0.00  0.00    +0.162 A 
ATOM      2  C   UNL     1       3.277   1.560   3.308  0.00  0.00    +0.053 A 
ATOM      3  C   UNL     1       2.659   2.038   2.160  0.00  0.00    -0.037 A 
ATOM      4  C   UNL     1       2.100   1.156   1.263  0.00  0.00    -0.019 A 
ATOM      5  C   UNL     1       2.152  -0.209   1.516  0.00  0.00    +0.055 A 
ATOM      6  C   UNL     1       2.763  -0.690   2.659  0.00  0.00    +0.162 A 
ATOM      7  C   UNL     1       1.424   1.605  -0.003  0.00  0.00    +0.123 C 
ATOM      8  C   UNL     1      -0.016   1.089   0.005  0.00  0.00    +0.131 C 
ATOM      9  C   UNL     1      -0.757   1.597  -1.202  0.00  0.00    -0.021 A 
ATOM     10  C   UNL     1      -1.728   0.833  -1.812  0.00  0.00    +0.005 A 
ATOM     11  C   UNL     1      -2.412   1.331  -2.907  0.00  0.00    +0.000 A 
ATOM     12  C   UNL     1      -2.131   2.597  -3.391  0.00  0.00    +0.001 A 
ATOM     13  C   UNL     1      -1.155   3.368  -2.792  0.00  0.00    +0.013 A 
ATOM     14  C   UNL     1      -0.449   2.863  -1.704  0.00  0.00    +0.041 A 
ATOM     15  C   UNL     1       0.609   3.652  -1.043  0.00  0.00    +0.247 C 
ATOM     16  O   UNL     1       0.705   4.844  -1.261  0.00  0.00    -0.270 OA
ATOM     17  N   UNL     1       1.472   3.045  -0.191  0.00  0.00    -0.289 N 
ATOM     18  C   UNL     1       2.456   3.885   0.484  0.00  0.00    +0.113 C 
ATOM     19  C   UNL     1       2.622   3.523   1.944  0.00  0.00    +0.054 C 
ENDROOT
BRANCH   8  20
ATOM     20  C   UNL     1      -0.712   1.569   1.252  0.00  0.00    +0.225 C 
ATOM     21  O   UNL     1      -0.333   2.578   1.808  0.00  0.00    -0.275 OA
ATOM     22  N   UNL     1      -1.755   0.876   1.751  0.00  0.00    -0.298 N 
ATOM     23  C   UNL     1      -2.163  -0.406   1.158  0.00  0.00    +0.126 C 
ATOM     24  C   UNL     1      -2.266  -1.447   2.284  0.00  0.00    +0.124 C 
ATOM     25  N   UNL     1      -3.159  -0.938   3.334  0.00  0.00    -0.327 N 
ATOM     26  C   UNL     1      -2.614   0.278   3.953  0.00  0.00    +0.124 C 
ATOM     27  C   UNL     1      -2.521   1.386   2.899  0.00  0.00    +0.126 C 
BRANCH  25  28
ATOM     28  C   UNL     1      -3.412  -1.919   4.295  0.00  0.00    +0.030 A 
ATOM     29  C   UNL     1      -3.138  -1.669   5.634  0.00  0.00    +0.023 A 
ATOM     30  C   UNL     1      -3.394  -2.639   6.582  0.00  0.00    +0.002 A 
ATOM     31  C   UNL     1      -3.912  -3.863   6.199  0.00  0.00    +0.000 A 
ATOM     32  C   UNL     1      -4.180  -4.117   4.867  0.00  0.00    +0.002 A 
ATOM     33  C   UNL     1      -3.932  -3.149   3.914  0.00  0.00    +0.023 A 
ENDBRANCH  25  28
ENDBRANCH   8  20
BRANCH   1  34
ATOM     34  O   UNL     1       3.939  -0.259   4.690  0.00  0.00    -0.489 OA
BRANCH  34  36
ATOM     35  C   UNL     1       5.135   0.015   6.772  0.00  0.00    +0.048 C 
ATOM     36  C   UNL     1       4.501   0.717   5.569  0.00  0.00    +0.226 C 
ENDBRANCH  34  36
ENDBRANCH   1  34
BRANCH   6  37
ATOM     37  O   UNL     1       2.807  -2.028   2.900  0.00  0.00    -0.489 OA
BRANCH  37  38
ATOM     38  C   UNL     1       2.202  -2.882   1.927  0.00  0.00    +0.226 C 
ATOM     39  C   UNL     1       2.350  -4.340   2.366  0.00  0.00    +0.048 C 
ENDBRANCH  37  38
ENDBRANCH   6  37
TORSDOF 6
