REMARK  Name = ZINC19433295
REMARK  4 active torsions:
REMARK  status: ('A' for Active; 'I' for Inactive)
REMARK    1  A    between atoms: C_3  and  O_9
REMARK    2  A    between atoms: O_9  and  C_10
REMARK    3  A    between atoms: C_13  and  C_16
REMARK    4  A    between atoms: N_17  and  O_18
REMARK                            x       y       z     vdW  Elec       q    Type
REMARK                         _______ _______ _______ _____ _____    ______ ____
ROOT
ATOM      1  C   UNL     1       3.554   3.525   0.073  0.00  0.00    +0.221 A 
ATOM      2  C   UNL     1       3.642   2.152   0.281  0.00  0.00    +0.068 A 
ATOM      3  C   UNL     1       2.482   1.409   0.378  0.00  0.00    +0.018 A 
ATOM      4  C   UNL     1       1.255   2.072   0.253  0.00  0.00    +0.036 A 
ATOM      5  C   UNL     1       1.248   3.450   0.045  0.00  0.00    +0.126 A 
ATOM      6  N   UNL     1       2.378   4.122  -0.036  0.00  0.00    -0.220 NA
ENDROOT
BRANCH   4   7
ATOM      7  C   UNL     1      -0.017   1.321   0.344  0.00  0.00    +0.164 C 
ATOM      8  N   UNL     1       0.000   0.034   0.538  0.00  0.00    -0.071 NA
ATOM      9  N   UNL     1      -1.224   1.986   0.219  0.00  0.00    -0.340 N 
ATOM     10  H   UNL     1      -2.170   1.428   0.287  0.00  0.00    +0.144 HD
ATOM     11  H   UNL     1      -1.239   3.073   0.051  0.00  0.00    +0.144 HD
BRANCH   8  12
ATOM     12  O   UNL     1      -1.217  -0.684   0.626  0.00  0.00    -0.408 OA
ATOM     13  H   UNL     1      -1.202  -1.772   0.789  0.00  0.00    +0.328 HD
ENDBRANCH   8  12
ENDBRANCH   4   7
BRANCH   1  14
ATOM     14  O   UNL     1       4.689   4.261  -0.018  0.00  0.00    -0.437 OA
BRANCH  14  17
ATOM     15  C   UNL     1       4.429   7.593  -1.455  0.00  0.00    +0.023 A 
ATOM     16  C   UNL     1       4.553   6.220  -1.359  0.00  0.00    +0.049 A 
ATOM     17  C   UNL     1       4.568   5.611  -0.113  0.00  0.00    +0.144 A 
ATOM     18  C   UNL     1       4.454   6.382   1.036  0.00  0.00    +0.062 A 
ATOM     19  C   UNL     1       4.336   7.755   0.936  0.00  0.00    +0.039 A 
ATOM     20  C   UNL     1       4.320   8.361  -0.309  0.00  0.00    +0.042 A 
ATOM     21 CL   UNL     1       4.165  10.085  -0.432  0.00  0.00    -0.084 Cl
ATOM     22 BR   UNL     1       4.466   5.554   2.736  0.00  0.00    -0.046 Br
ENDBRANCH  14  17
ENDBRANCH   1  14
TORSDOF 4
