REMARK  Name = ZINC35926387
REMARK  4 active torsions:
REMARK  status: ('A' for Active; 'I' for Inactive)
REMARK    1  A    between atoms: C_5  and  N_7
REMARK    2  A    between atoms: N_10  and  C_13
REMARK    3  A    between atoms: C_13  and  C_14
REMARK    4  A    between atoms: C_28  and  C_30
REMARK                            x       y       z     vdW  Elec       q    Type
REMARK                         _______ _______ _______ _____ _____    ______ ____
ROOT
ATOM      1  C   UNL     1       0.116  -6.420  -1.306  0.00  0.00    +0.034 A 
ATOM      2  C   UNL     1       0.614  -7.674  -1.101  0.00  0.00    +0.091 A 
ATOM      3  C   UNL     1       0.846  -8.503  -2.212  0.00  0.00    +0.253 A 
ATOM      4  O   UNL     1       1.291  -9.630  -2.065  0.00  0.00    -0.268 OA
ATOM      5  N   UNL     1       0.567  -8.029  -3.445  0.00  0.00    -0.295 N 
ATOM      6  H   UNL     1       0.719  -8.584  -4.226  0.00  0.00    +0.172 HD
ATOM      7  C   UNL     1       0.072  -6.770  -3.589  0.00  0.00    +0.198 A 
ATOM      8  N   UNL     1      -0.147  -6.000  -2.541  0.00  0.00    -0.223 NA
ATOM      9  N   UNL     1      -0.208  -6.296  -4.842  0.00  0.00    -0.298 N 
ATOM     10  C   UNL     1       0.131  -7.087  -6.034  0.00  0.00    +0.127 C 
ATOM     11  C   UNL     1      -1.139  -7.278  -6.873  0.00  0.00    +0.127 C 
ATOM     12  N   UNL     1      -1.785  -5.970  -7.051  0.00  0.00    -0.295 N 
ATOM     13  C   UNL     1      -2.124  -5.179  -5.859  0.00  0.00    +0.127 C 
ATOM     14  C   UNL     1      -0.859  -4.991  -5.020  0.00  0.00    +0.127 C 
ATOM     15  C   UNL     1      -2.061  -5.503  -8.285  0.00  0.00    +0.247 C 
ATOM     16  O   UNL     1      -2.504  -4.380  -8.425  0.00  0.00    -0.270 OA
ENDROOT
BRANCH  15  17
ATOM     17  C   UNL     1      -1.825  -6.357  -9.467  0.00  0.00    +0.037 A 
ATOM     18  C   UNL     1      -2.159  -7.712  -9.431  0.00  0.00    +0.016 A 
ATOM     19  C   UNL     1      -1.937  -8.505 -10.537  0.00  0.00    +0.039 A 
ATOM     20  C   UNL     1      -1.381  -7.958 -11.684  0.00  0.00    +0.123 A 
ATOM     21  C   UNL     1      -1.047  -6.613 -11.725  0.00  0.00    +0.039 A 
ATOM     22  C   UNL     1      -1.271  -5.811 -10.627  0.00  0.00    +0.016 A 
ATOM     23  F   UNL     1      -1.164  -8.739 -12.764  0.00  0.00    -0.205 F 
ENDBRANCH  15  17
BRANCH   1  24
ATOM     24  C   UNL     1      -0.142  -5.511  -0.132  0.00  0.00    -0.022 C 
BRANCH  24  28
ATOM     25  N   UNL     1       1.429  -1.636  -0.294  0.00  0.00    -0.332 N 
ATOM     26  C   UNL     1       1.591  -2.371   0.970  0.00  0.00    +0.086 C 
ATOM     27  C   UNL     1       0.582  -3.523   0.996  0.00  0.00    -0.059 C 
ATOM     28  N   UNL     1       0.749  -4.346  -0.209  0.00  0.00    +0.385 N 
ATOM     29  C   UNL     1       0.419  -3.558  -1.403  0.00  0.00    -0.059 C 
ATOM     30  C   UNL     1       1.414  -2.408  -1.547  0.00  0.00    +0.086 C 
ATOM     31  H   UNL     1       1.706  -4.661  -0.270  0.00  0.00    -0.081 HD
BRANCH  25  36
ATOM     32  C   UNL     1      -0.115   1.699  -0.234  0.00  0.00    +0.002 A 
ATOM     33  C   UNL     1       1.003   2.507  -0.327  0.00  0.00    +0.002 A 
ATOM     34  C   UNL     1       2.263   1.943  -0.409  0.00  0.00    +0.022 A 
ATOM     35  C   UNL     1       2.408   0.569  -0.399  0.00  0.00    +0.062 A 
ATOM     36  C   UNL     1       1.286  -0.246  -0.305  0.00  0.00    +0.048 A 
ATOM     37  C   UNL     1       0.022   0.324  -0.223  0.00  0.00    +0.024 A 
ATOM     38 CL   UNL     1       3.990  -0.139  -0.503  0.00  0.00    -0.082 Cl
ENDBRANCH  25  36
ENDBRANCH  24  28
ENDBRANCH   1  24
TORSDOF 4
