REMARK  Name = ZINC49554676
REMARK  3 active torsions:
REMARK  status: ('A' for Active; 'I' for Inactive)
REMARK    1  A    between atoms: C_4  and  S_8
REMARK    2  A    between atoms: C_5  and  N_7
REMARK    3  A    between atoms: S_8  and  N_11
REMARK                            x       y       z     vdW  Elec       q    Type
REMARK                         _______ _______ _______ _____ _____    ______ ____
ROOT
ATOM      1  S   UNL     1       3.947  -0.818  -0.042  0.00  0.00    +0.103 S 
ATOM      2  O   UNL     1       3.858  -1.793  -1.071  0.00  0.00    -0.146 OA
ATOM      3  O   UNL     1       4.962   0.176  -0.020  0.00  0.00    -0.146 OA
ENDROOT
BRANCH   1   4
ATOM      4  N   UNL     1       4.067  -1.648   1.387  0.00  0.00    -0.103 NA
ATOM      5  C   UNL     1       5.128  -2.375   1.635  0.00  0.00    +0.192 A 
ATOM      6  N   UNL     1       6.245  -2.581   0.861  0.00  0.00    -0.336 N 
ATOM      7  C   UNL     1       7.256  -3.396   1.323  0.00  0.00    +0.028 A 
ATOM      8  C   UNL     1       7.095  -3.957   2.528  0.00  0.00    +0.012 A 
ATOM      9  S   UNL     1       5.516  -3.361   3.075  0.00  0.00    -0.053 S 
ATOM     10  C   UNL     1       8.033  -4.871   3.249  0.00  0.00    +0.044 C 
ATOM     11  C   UNL     1       9.080  -5.382   2.248  0.00  0.00    +0.006 C 
ATOM     12  C   UNL     1       9.611  -4.188   1.448  0.00  0.00    +0.006 C 
ATOM     13  C   UNL     1       8.522  -3.665   0.512  0.00  0.00    +0.054 C 
ATOM     14  H   UNL     1       6.321  -2.155  -0.007  0.00  0.00    +0.168 HD
ENDBRANCH   1   4
BRANCH   1  18
ATOM     15  C   UNL     1      -0.017   1.377   0.010  0.00  0.00    +0.002 A 
ATOM     16  C   UNL     1       1.171   2.086   0.002  0.00  0.00    +0.002 A 
ATOM     17  C   UNL     1       2.380   1.416  -0.013  0.00  0.00    +0.031 A 
ATOM     18  C   UNL     1       2.406   0.035  -0.021  0.00  0.00    +0.133 A 
ATOM     19  C   UNL     1       1.215  -0.681  -0.013  0.00  0.00    +0.052 A 
ATOM     20  C   UNL     1       0.002  -0.004   0.002  0.00  0.00    +0.025 A 
BRANCH  19  21
ATOM     21  N   UNL     1       1.238  -2.077  -0.021  0.00  0.00    -0.356 N 
ATOM     22  H   UNL     1       2.086  -2.549  -0.032  0.00  0.00    +0.142 HD
ATOM     23  H   UNL     1       0.406  -2.576  -0.015  0.00  0.00    +0.142 HD
ENDBRANCH  19  21
ENDBRANCH   1  18
TORSDOF 3
