REMARK  Name = ZINC58428252
REMARK  6 active torsions:
REMARK  status: ('A' for Active; 'I' for Inactive)
REMARK    1  A    between atoms: C_1  and  C_2
REMARK    2  A    between atoms: C_2  and  O_3
REMARK    3  A    between atoms: O_3  and  C_4
REMARK    4  A    between atoms: C_11  and  C_14
REMARK    5  A    between atoms: N_16  and  C_17
REMARK    6  A    between atoms: C_19  and  C_22
REMARK                            x       y       z     vdW  Elec       q    Type
REMARK                         _______ _______ _______ _____ _____    ______ ____
ROOT
ATOM      1  C   UNL     1       0.777  -1.810  -1.336  0.00  0.00    +0.130 A 
ATOM      2  C   UNL     1       0.247  -2.669  -0.395  0.00  0.00    +0.053 A 
ATOM      3  C   UNL     1       0.350  -4.041  -0.558  0.00  0.00    +0.003 A 
ATOM      4  C   UNL     1       0.977  -4.588  -1.663  0.00  0.00    +0.148 A 
ATOM      5  C   UNL     1       1.526  -3.732  -2.626  0.00  0.00    +0.093 A 
ATOM      6  C   UNL     1       1.422  -2.339  -2.468  0.00  0.00    +0.046 A 
ATOM      7  C   UNL     1       2.053  -1.747  -3.587  0.00  0.00    +0.044 A 
ATOM      8  C   UNL     1       2.510  -2.749  -4.384  0.00  0.00    +0.103 A 
ATOM      9  N   UNL     1       2.201  -3.965  -3.803  0.00  0.00    -0.348 N 
ATOM     10  H   UNL     1       2.416  -4.837  -4.169  0.00  0.00    +0.166 HD
ATOM     11  O   UNL     1       0.940  -5.951  -1.629  0.00  0.00    -0.486 OA
ATOM     12  C   UNL     1       0.680  -6.383  -0.282  0.00  0.00    +0.175 C 
ATOM     13  C   UNL     1      -0.120  -5.197   0.305  0.00  0.00    +0.083 C 
ATOM     14  C   UNL     1      -0.157  -7.663  -0.275  0.00  0.00    +0.052 C 
ENDROOT
BRANCH   8  15
ATOM     15  C   UNL     1       3.229  -2.568  -5.653  0.00  0.00    +0.260 C 
ATOM     16  O   UNL     1       3.459  -1.448  -6.068  0.00  0.00    -0.269 OA
ATOM     17  N   UNL     1       3.634  -3.644  -6.357  0.00  0.00    -0.313 N 
ATOM     18  C   UNL     1       4.351  -3.464  -7.622  0.00  0.00    +0.128 C 
ATOM     19  H   UNL     1       3.451  -4.537  -6.026  0.00  0.00    +0.149 HD
ENDBRANCH   8  15
BRANCH   1  20
ATOM     20  O   UNL     1       0.671  -0.465  -1.174  0.00  0.00    -0.492 OA
BRANCH  20  22
ATOM     21  C   UNL     1      -0.019   1.526   0.010  0.00  0.00    +0.048 C 
ATOM     22  C   UNL     1       0.002  -0.004   0.002  0.00  0.00    +0.226 C 
ENDBRANCH  20  22
ENDBRANCH   1  20
TORSDOF 3
