REMARK  Name = ZINC36612555
REMARK  7 active torsions:
REMARK  status: ('A' for Active; 'I' for Inactive)
REMARK    1  A    between atoms: C_1  and  C_2
REMARK    2  A    between atoms: C_2  and  N_3
REMARK    3  A    between atoms: C_4  and  C_30
REMARK    4  A    between atoms: C_5  and  N_15
REMARK    5  A    between atoms: C_16  and  C_18
REMARK    6  A    between atoms: C_18  and  N_19
REMARK    7  A    between atoms: C_30  and  C_32
REMARK                            x       y       z     vdW  Elec       q    Type
REMARK                         _______ _______ _______ _____ _____    ______ ____
ROOT
ATOM      1  N   UNL     1       0.662  -1.278  -0.676  0.00  0.00    -0.198 N 
ATOM      2  C   UNL     1      -0.123  -1.645  -1.783  0.00  0.00    +0.120 C 
ATOM      3  C   UNL     1       0.386  -2.358  -2.832  0.00  0.00    +0.069 C 
ATOM      4  C   UNL     1       1.781  -2.807  -2.922  0.00  0.00    +0.025 A 
ATOM      5  C   UNL     1       2.309  -3.228  -4.147  0.00  0.00    +0.012 A 
ATOM      6  C   UNL     1       3.621  -3.646  -4.222  0.00  0.00    +0.001 A 
ATOM      7  C   UNL     1       4.421  -3.652  -3.093  0.00  0.00    +0.002 A 
ATOM      8  C   UNL     1       3.909  -3.237  -1.874  0.00  0.00    +0.029 A 
ATOM      9  C   UNL     1       2.603  -2.820  -1.789  0.00  0.00    +0.118 A 
ATOM     10  S   UNL     1       1.921  -2.286  -0.254  0.00  0.00    +0.075 S 
ATOM     11  O   UNL     1       2.904  -1.479   0.380  0.00  0.00    -0.150 OA
ATOM     12  O   UNL     1       1.349  -3.431   0.363  0.00  0.00    -0.150 OA
ENDROOT
BRANCH   3  13
ATOM     13  N   UNL     1      -0.468  -2.678  -3.875  0.00  0.00    -0.282 N 
ATOM     14  C   UNL     1      -0.179  -2.279  -5.130  0.00  0.00    +0.235 C 
ATOM     15  O   UNL     1       0.777  -1.560  -5.332  0.00  0.00    -0.274 OA
ATOM     16  H   UNL     1      -1.274  -3.189  -3.703  0.00  0.00    +0.155 HD
BRANCH  14  17
ATOM     17  C   UNL     1      -1.043  -2.725  -6.281  0.00  0.00    +0.213 C 
BRANCH  17  18
ATOM     18  N   UNL     1      -0.449  -2.275  -7.541  0.00  0.00    -0.225 N 
ATOM     19  C   UNL     1      -0.787  -1.140  -8.180  0.00  0.00    +0.254 C 
ATOM     20  O   UNL     1      -1.621  -0.339  -7.808  0.00  0.00    -0.270 OA
ATOM     21  C   UNL     1       0.027  -1.030  -9.409  0.00  0.00    +0.049 A 
ATOM     22  C   UNL     1       0.113  -0.101 -10.433  0.00  0.00    +0.014 A 
ATOM     23  C   UNL     1       1.009  -0.303 -11.471  0.00  0.00    +0.001 A 
ATOM     24  C   UNL     1       1.816  -1.425 -11.492  0.00  0.00    +0.001 A 
ATOM     25  C   UNL     1       1.740  -2.364 -10.474  0.00  0.00    +0.014 A 
ATOM     26  C   UNL     1       0.850  -2.174  -9.430  0.00  0.00    +0.049 A 
ATOM     27  C   UNL     1       0.512  -2.938  -8.210  0.00  0.00    +0.254 C 
ATOM     28  O   UNL     1       1.016  -3.989  -7.870  0.00  0.00    -0.270 OA
ENDBRANCH  17  18
ENDBRANCH  14  17
ENDBRANCH   3  13
BRANCH   1  30
ATOM     29  C   UNL     1       1.066   1.133  -0.614  0.00  0.00    +0.026 C 
ATOM     30  C   UNL     1       0.387  -0.052   0.076  0.00  0.00    +0.128 C 
ENDBRANCH   1  30
BRANCH   2  31
ATOM     31  C   UNL     1      -1.485  -1.263  -1.811  0.00  0.00    +0.210 C 
ATOM     32  O   UNL     1      -2.214  -1.536  -0.874  0.00  0.00    -0.285 OA
BRANCH  31  33
ATOM     33  C   UNL     1      -2.024  -0.534  -2.979  0.00  0.00    +0.024 A 
ATOM     34  C   UNL     1      -1.168  -0.111  -3.998  0.00  0.00    +0.012 A 
ATOM     35  C   UNL     1      -1.678   0.570  -5.084  0.00  0.00    +0.001 A 
ATOM     36  C   UNL     1      -3.034   0.833  -5.166  0.00  0.00    +0.000 A 
ATOM     37  C   UNL     1      -3.888   0.416  -4.160  0.00  0.00    +0.001 A 
ATOM     38  C   UNL     1      -3.392  -0.270  -3.071  0.00  0.00    +0.012 A 
ENDBRANCH  31  33
ENDBRANCH   2  31
TORSDOF 6
