REMARK  Name = ZINC05545278
REMARK  2 active torsions:
REMARK  status: ('A' for Active; 'I' for Inactive)
REMARK    1  A    between atoms: C_11  and  C_12
REMARK    2  A    between atoms: N_14  and  C_15
REMARK                            x       y       z     vdW  Elec       q    Type
REMARK                         _______ _______ _______ _____ _____    ______ ____
ROOT
ATOM      1  C   UNL     1      -0.063   1.145   0.224  0.00  0.00    +0.002 A 
ATOM      2  C   UNL     1       1.140   1.828   0.160  0.00  0.00    +0.001 A 
ATOM      3  C   UNL     1       1.145   3.207   0.107  0.00  0.00    +0.017 A 
ATOM      4  C   UNL     1      -0.054   3.911   0.116  0.00  0.00    +0.034 A 
ATOM      5  C   UNL     1      -1.269   3.229   0.177  0.00  0.00    +0.048 A 
ATOM      6  C   UNL     1      -1.256   1.834   0.227  0.00  0.00    +0.024 A 
ATOM      7  N   UNL     1      -2.499   3.872   0.182  0.00  0.00    -0.280 N 
ATOM      8  C   UNL     1      -2.721   5.106  -0.287  0.00  0.00    +0.257 C 
ATOM      9  O   UNL     1      -3.855   5.541  -0.342  0.00  0.00    -0.269 OA
ATOM     10  C   UNL     1      -1.580   5.942  -0.740  0.00  0.00    +0.098 C 
ATOM     11  C   UNL     1      -1.727   6.874  -1.722  0.00  0.00    +0.122 C 
ATOM     12 CL   UNL     1      -0.407   7.927  -2.125  0.00  0.00    -0.077 Cl
ATOM     13  S   UNL     1      -0.021   5.675   0.053  0.00  0.00    -0.081 S 
ATOM     14  H   UNL     1      -3.255   3.390   0.553  0.00  0.00    +0.155 HD
ENDROOT
BRANCH  11  15
ATOM     15  C   UNL     1      -2.957   6.984  -2.416  0.00  0.00    +0.261 C 
ATOM     16  O   UNL     1      -3.169   6.290  -3.394  0.00  0.00    -0.269 OA
ATOM     17  N   UNL     1      -3.894   7.856  -1.992  0.00  0.00    -0.281 N 
ATOM     18  H   UNL     1      -3.704   8.448  -1.248  0.00  0.00    +0.155 HD
BRANCH  17  19
ATOM     19  C   UNL     1      -5.139   7.907  -2.627  0.00  0.00    +0.034 A 
ATOM     20  C   UNL     1      -5.231   7.701  -3.997  0.00  0.00    +0.025 A 
ATOM     21  C   UNL     1      -6.463   7.747  -4.620  0.00  0.00    +0.022 A 
ATOM     22  C   UNL     1      -7.604   8.008  -3.881  0.00  0.00    +0.041 A 
ATOM     23  C   UNL     1      -7.514   8.219  -2.517  0.00  0.00    +0.022 A 
ATOM     24  C   UNL     1      -6.286   8.169  -1.888  0.00  0.00    +0.025 A 
ATOM     25 CL   UNL     1      -9.150   8.072  -4.669  0.00  0.00    -0.084 Cl
ENDBRANCH  17  19
ENDBRANCH  11  15
TORSDOF 2
