REMARK  Name = ZINC38607244
REMARK  8 active torsions:
REMARK  status: ('A' for Active; 'I' for Inactive)
REMARK    1  A    between atoms: C_1  and  C_2
REMARK    2  A    between atoms: C_3  and  C_34
REMARK    3  A    between atoms: N_6  and  C_27
REMARK    4  A    between atoms: C_10  and  C_11
REMARK    5  A    between atoms: C_14  and  O_17
REMARK    6  A    between atoms: O_17  and  C_18
REMARK    7  A    between atoms: C_18  and  C_19
REMARK    8  A    between atoms: C_27  and  C_28
REMARK                            x       y       z     vdW  Elec       q    Type
REMARK                         _______ _______ _______ _____ _____    ______ ____
ROOT
ATOM      1  C   UNL     1       0.692   1.334  -0.002  0.00  0.00    +0.046 C 
ATOM      2  C   UNL     1       0.087  -0.046   0.002  0.00  0.00    -0.016 C 
ATOM      3  C   UNL     1      -0.172  -0.707  -1.188  0.00  0.00    +0.117 C 
ATOM      4  C   UNL     1      -0.761  -2.048  -1.158  0.00  0.00    +0.264 C 
ATOM      5  O   UNL     1      -0.987  -2.628  -2.204  0.00  0.00    -0.269 OA
ATOM      6  N   UNL     1      -1.054  -2.647   0.009  0.00  0.00    -0.231 N 
ATOM      7  C   UNL     1      -0.819  -2.039   1.186  0.00  0.00    +0.253 C 
ATOM      8  O   UNL     1      -1.094  -2.607   2.226  0.00  0.00    -0.270 OA
ATOM      9  C   UNL     1      -0.224  -0.694   1.221  0.00  0.00    +0.042 C 
ATOM     10  C   UNL     1       0.026  -0.066   2.436  0.00  0.00    +0.021 C 
ENDROOT
BRANCH  10  11
ATOM     11  C   UNL     1      -0.059  -0.800   3.644  0.00  0.00    -0.024 A 
ATOM     12  C   UNL     1       0.561  -2.056   3.751  0.00  0.00    +0.011 A 
ATOM     13  C   UNL     1       0.475  -2.759   4.918  0.00  0.00    +0.046 A 
ATOM     14  C   UNL     1      -0.226  -2.234   6.001  0.00  0.00    +0.121 A 
ATOM     15  C   UNL     1      -0.843  -0.990   5.901  0.00  0.00    +0.046 A 
ATOM     16  C   UNL     1      -0.760  -0.274   4.742  0.00  0.00    +0.011 A 
BRANCH  14  17
ATOM     17  O   UNL     1      -0.307  -2.937   7.157  0.00  0.00    -0.487 OA
BRANCH  17  18
ATOM     18  C   UNL     1      -1.041  -2.341   8.229  0.00  0.00    +0.266 C 
BRANCH  18  19
ATOM     19  C   UNL     1      -1.023  -3.260   9.423  0.00  0.00    +0.008 A 
ATOM     20  C   UNL     1      -0.352  -4.467   9.355  0.00  0.00    +0.010 A 
ATOM     21  C   UNL     1      -0.335  -5.311  10.450  0.00  0.00    +0.020 A 
ATOM     22  C   UNL     1      -0.989  -4.947  11.614  0.00  0.00    +0.042 A 
ATOM     23  C   UNL     1      -1.660  -3.740  11.682  0.00  0.00    +0.040 A 
ATOM     24  C   UNL     1      -1.672  -2.893  10.588  0.00  0.00    +0.049 A 
ATOM     25 CL   UNL     1      -2.508  -1.374  10.675  0.00  0.00    -0.083 Cl
ATOM     26 CL   UNL     1      -0.968  -6.008  12.989  0.00  0.00    -0.083 Cl
ENDBRANCH  18  19
ENDBRANCH  17  18
ENDBRANCH  14  17
ENDBRANCH  10  11
BRANCH   3  27
ATOM     27  C   UNL     1       0.135  -0.082  -2.440  0.00  0.00    +0.105 C 
ATOM     28  N   UNL     1       0.378   0.413  -3.433  0.00  0.00    -0.191 NA
ENDBRANCH   3  27
BRANCH   6  29
ATOM     29  C   UNL     1      -1.641  -3.989  -0.001  0.00  0.00    +0.148 C 
BRANCH  29  30
ATOM     30  C   UNL     1      -0.525  -5.035   0.031  0.00  0.00    +0.136 C 
ATOM     31  C   UNL     1      -1.124  -6.463  -0.014  0.00  0.00    +0.035 C 
ATOM     32  C   UNL     1       0.065  -7.263  -0.613  0.00  0.00    +0.031 C 
ATOM     33  C   UNL     1       0.699  -6.236  -1.575  0.00  0.00    +0.160 C 
ATOM     34  O   UNL     1       0.290  -4.930  -1.148  0.00  0.00    -0.375 OA
ENDBRANCH  29  30
ENDBRANCH   6  29
TORSDOF 7
