REMARK  Name = ZINC14719060
REMARK  7 active torsions:
REMARK  status: ('A' for Active; 'I' for Inactive)
REMARK    1  A    between atoms: C_1  and  O_2
REMARK    2  A    between atoms: O_2  and  C_3
REMARK    3  A    between atoms: C_3  and  C_5
REMARK    4  A    between atoms: C_9  and  O_13
REMARK    5  A    between atoms: C_17  and  C_24
REMARK    6  A    between atoms: C_19  and  O_23
REMARK    7  A    between atoms: C_24  and  O_25
REMARK                            x       y       z     vdW  Elec       q    Type
REMARK                         _______ _______ _______ _____ _____    ______ ____
ROOT
ATOM      1  C   UNL     1       0.680  -2.092   1.091  0.00  0.00    +0.069 C 
ATOM      2  C   UNL     1       1.379  -2.703   2.069  0.00  0.00    +0.057 C 
ATOM      3  C   UNL     1       1.516  -4.191   2.197  0.00  0.00    +0.240 C 
ATOM      4  C   UNL     1       0.723  -4.996   1.203  0.00  0.00    +0.183 C 
ATOM      5  C   UNL     1      -0.007  -4.219   0.167  0.00  0.00    +0.009 C 
ATOM      6  C   UNL     1      -0.028  -2.899   0.087  0.00  0.00    +0.014 C 
ATOM      7  O   UNL     1       1.200  -4.577   3.534  0.00  0.00    -0.480 OA
ATOM      8  C   UNL     1       1.726  -3.881   4.570  0.00  0.00    +0.136 A 
ATOM      9  C   UNL     1       1.856  -4.504   5.805  0.00  0.00    +0.052 A 
ATOM     10  C   UNL     1       2.366  -3.813   6.887  0.00  0.00    -0.015 A 
ATOM     11  C   UNL     1       2.752  -2.490   6.765  0.00  0.00    +0.052 A 
ATOM     12  C   UNL     1       2.640  -1.847   5.542  0.00  0.00    +0.132 A 
ATOM     13  C   UNL     1       2.145  -2.549   4.437  0.00  0.00    +0.105 A 
ATOM     14  C   UNL     1       2.074  -1.899   3.107  0.00  0.00    +0.201 C 
ATOM     15  O   UNL     1       2.546  -0.799   2.884  0.00  0.00    -0.287 OA
ENDROOT
BRANCH   1  16
ATOM     16  C   UNL     1       0.620  -0.613   1.032  0.00  0.00    +0.339 C 
ATOM     17  O   UNL     1       1.315  -0.008   0.241  0.00  0.00    -0.245 OA
BRANCH  16  19
ATOM     18  C   UNL     1      -0.211   1.486   1.745  0.00  0.00    +0.280 C 
ATOM     19  O   UNL     1      -0.205   0.061   1.856  0.00  0.00    -0.464 OA
ENDBRANCH  16  19
ENDBRANCH   1  16
BRANCH   4  20
ATOM     20  O   UNL     1      -0.232  -5.778   1.923  0.00  0.00    -0.384 OA
ATOM     21  H   UNL     1      -0.791  -6.332   1.361  0.00  0.00    +0.210 HD
ENDBRANCH   4  20
BRANCH  12  22
ATOM     22  O   UNL     1       3.009  -0.547   5.417  0.00  0.00    -0.506 OA
ATOM     23  H   UNL     1       3.936  -0.423   5.172  0.00  0.00    +0.292 HD
ENDBRANCH  12  22
BRANCH  10  24
ATOM     24  C   UNL     1       2.503  -4.508   8.217  0.00  0.00    +0.191 C 
BRANCH  24  25
ATOM     25  O   UNL     1       3.791  -5.122   8.303  0.00  0.00    -0.390 OA
ATOM     26  H   UNL     1       3.949  -5.589   9.134  0.00  0.00    +0.210 HD
ENDBRANCH  24  25
ENDBRANCH  10  24
TORSDOF 6
