REMARK  Name = ZINC16186921
REMARK  8 active torsions:
REMARK  status: ('A' for Active; 'I' for Inactive)
REMARK    1  A    between atoms: C_1  and  N_2
REMARK    2  A    between atoms: N_2  and  C_3
REMARK    3  A    between atoms: N_2  and  S_17
REMARK    4  A    between atoms: C_3  and  C_4
REMARK    5  A    between atoms: N_6  and  N_7
REMARK    6  A    between atoms: C_8  and  C_9
REMARK    7  A    between atoms: C_12  and  C_15
REMARK    8  A    between atoms: S_17  and  C_20
REMARK                            x       y       z     vdW  Elec       q    Type
REMARK                         _______ _______ _______ _____ _____    ______ ____
ROOT
ATOM      1  C   UNL     1      -3.246   1.275  -1.331  0.00  0.00    +0.248 C 
ATOM      2  O   UNL     1      -3.382   2.166  -0.519  0.00  0.00    -0.273 OA
ATOM      3  N   UNL     1      -4.315   0.556  -1.728  0.00  0.00    -0.206 N 
ATOM      4  H   UNL     1      -4.207  -0.156  -2.377  0.00  0.00    +0.177 HD
ENDROOT
BRANCH   3   5
ATOM      5  N   UNL     1      -5.583   0.838  -1.201  0.00  0.00    -0.188 NA
ATOM      6  C   UNL     1      -6.612   0.145  -1.583  0.00  0.00    +0.138 C 
BRANCH   6   7
ATOM      7  C   UNL     1      -7.945   0.441  -1.030  0.00  0.00    -0.005 A 
ATOM      8  C   UNL     1      -8.101   1.464  -0.088  0.00  0.00    +0.010 A 
ATOM      9  C   UNL     1      -9.337   1.742   0.420  0.00  0.00    +0.016 A 
ATOM     10  C   UNL     1     -10.446   0.996   0.009  0.00  0.00    +0.063 A 
ATOM     11  C   UNL     1     -10.290  -0.031  -0.927  0.00  0.00    +0.016 A 
ATOM     12  C   UNL     1      -9.055  -0.305  -1.441  0.00  0.00    +0.010 A 
BRANCH  10  13
ATOM     13  C   UNL     1     -11.781   1.292   0.564  0.00  0.00    +0.387 C 
ATOM     14  O   UNL     1     -12.745   0.643   0.207  0.00  0.00    -0.241 OA
ATOM     15  O   UNL     1     -11.931   2.281   1.466  0.00  0.00    -0.241 OA
ENDBRANCH  10  13
ENDBRANCH   6   7
ENDBRANCH   3   5
BRANCH   1  16
ATOM     16  C   UNL     1      -1.883   0.973  -1.897  0.00  0.00    +0.206 C 
BRANCH  16  18
ATOM     17  C   UNL     1      -0.691   3.213  -1.897  0.00  0.00    +0.132 C 
ATOM     18  N   UNL     1      -0.897   1.885  -1.312  0.00  0.00    -0.171 NA
BRANCH  18  19
ATOM     19  S   UNL     1      -0.017   1.417   0.010  0.00  0.00    +0.061 S 
ATOM     20  O   UNL     1       0.002  -0.004   0.002  0.00  0.00    -0.153 OA
ATOM     21  O   UNL     1       1.172   2.195   0.003  0.00  0.00    -0.153 OA
BRANCH  19  22
ATOM     22  C   UNL     1      -0.927   1.900   1.439  0.00  0.00    +0.106 A 
ATOM     23  C   UNL     1      -0.717   3.145   2.004  0.00  0.00    +0.029 A 
ATOM     24  C   UNL     1      -1.434   3.526   3.122  0.00  0.00    +0.017 A 
ATOM     25  C   UNL     1      -2.353   2.659   3.683  0.00  0.00    +0.018 A 
ATOM     26  C   UNL     1      -2.559   1.411   3.121  0.00  0.00    +0.017 A 
ATOM     27  C   UNL     1      -1.846   1.033   2.000  0.00  0.00    +0.029 A 
ATOM     28 BR   UNL     1      -3.329   3.177   5.218  0.00  0.00    -0.050 Br
ENDBRANCH  19  22
ENDBRANCH  18  19
ENDBRANCH  16  18
ENDBRANCH   1  16
TORSDOF 7
