REMARK  Name = ZINC04714177
REMARK  2 active torsions:
REMARK  status: ('A' for Active; 'I' for Inactive)
REMARK    1  A    between atoms: C_6  and  C_11
REMARK    2  A    between atoms: N_17  and  C_18
REMARK                            x       y       z     vdW  Elec       q    Type
REMARK                         _______ _______ _______ _____ _____    ______ ____
ROOT
ATOM      1  C   UNL     1       4.989  -2.949  -1.309  0.00  0.00    +0.028 C 
ATOM      2  C   UNL     1       5.007  -4.253  -0.932  0.00  0.00    +0.078 C 
ATOM      3  C   UNL     1       6.149  -5.182  -0.828  0.00  0.00    +0.256 C 
ATOM      4  O   UNL     1       7.283  -4.830  -1.095  0.00  0.00    -0.269 OA
ATOM      5  N   UNL     1       5.884  -6.415  -0.429  0.00  0.00    -0.260 N 
ATOM      6  C   UNL     1       4.593  -6.795  -0.130  0.00  0.00    +0.166 C 
ATOM      7  N   UNL     1       4.160  -7.967   0.275  0.00  0.00    -0.224 NA
ATOM      8  S   UNL     1       3.655  -5.304  -0.420  0.00  0.00    -0.049 S 
ATOM      9  H   UNL     1       6.605  -7.059  -0.347  0.00  0.00    +0.157 HD
ENDROOT
BRANCH   1  15
ATOM     10  C   UNL     1      -0.011   1.032  -2.067  0.00  0.00    +0.001 A 
ATOM     11  C   UNL     1       1.146   1.787  -1.886  0.00  0.00    +0.001 A 
ATOM     12  C   UNL     1       2.353   1.185  -1.702  0.00  0.00    +0.008 A 
ATOM     13  C   UNL     1       2.437  -0.219  -1.694  0.00  0.00    -0.017 A 
ATOM     14  C   UNL     1       3.664  -0.870  -1.507  0.00  0.00    +0.016 A 
ATOM     15  C   UNL     1       3.707  -2.259  -1.504  0.00  0.00    -0.023 A 
ATOM     16  C   UNL     1       2.528  -3.009  -1.689  0.00  0.00    +0.008 A 
ATOM     17  C   UNL     1       1.334  -2.393  -1.871  0.00  0.00    +0.009 A 
ATOM     18  C   UNL     1       1.259  -0.988  -1.878  0.00  0.00    -0.018 A 
ATOM     19  C   UNL     1       0.032  -0.330  -2.065  0.00  0.00    +0.008 A 
ENDBRANCH   1  15
BRANCH   7  20
ATOM     20  C   UNL     1       5.046  -8.988   0.486  0.00  0.00    +0.085 A 
ATOM     21  C   UNL     1       6.159  -8.793   1.306  0.00  0.00    +0.029 A 
ATOM     22  C   UNL     1       7.048  -9.828   1.515  0.00  0.00    +0.002 A 
ATOM     23  C   UNL     1       6.839 -11.056   0.914  0.00  0.00    +0.002 A 
ATOM     24  C   UNL     1       5.738 -11.258   0.100  0.00  0.00    +0.022 A 
ATOM     25  C   UNL     1       4.837 -10.233  -0.114  0.00  0.00    +0.066 A 
ATOM     26 CL   UNL     1       3.453 -10.489  -1.130  0.00  0.00    -0.081 Cl
ENDBRANCH   7  20
TORSDOF 2
