REMARK  Name = ZINC63755400
REMARK  8 active torsions:
REMARK  status: ('A' for Active; 'I' for Inactive)
REMARK    1  A    between atoms: C_7  and  C_10
REMARK    2  A    between atoms: C_10  and  C_11
REMARK    3  A    between atoms: C_11  and  N_12
REMARK    4  A    between atoms: C_13  and  C_15
REMARK    5  A    between atoms: C_15  and  C_16
REMARK    6  A    between atoms: C_16  and  C_17
REMARK    7  A    between atoms: C_17  and  C_18
REMARK    8  A    between atoms: N_27  and  C_30
REMARK                            x       y       z     vdW  Elec       q    Type
REMARK                         _______ _______ _______ _____ _____    ______ ____
ROOT
ATOM      1  C   UNL     1      -2.951  -8.077  -4.266  0.00  0.00    +0.042 C 
ENDROOT
BRANCH   1   2
ATOM      2  C   UNL     1      -3.377  -8.482  -5.679  0.00  0.00    +0.165 C 
ATOM      3  N   UNL     1      -4.256  -7.439  -6.263  0.00  0.00    -0.233 NA
ATOM      4  N   UNL     1      -5.289  -8.194  -6.995  0.00  0.00    -0.225 NA
ATOM      5  C   UNL     1      -5.525  -9.363  -6.112  0.00  0.00    +0.254 C 
ATOM      6  N   UNL     1      -4.168  -9.713  -5.632  0.00  0.00    -0.338 N 
ATOM      7  C   UNL     1      -3.816 -10.886  -5.276  0.00  0.00    +0.076 C 
ATOM      8  C   UNL     1      -4.836 -11.998  -5.368  0.00  0.00    +0.158 C 
ATOM      9  N   UNL     1      -5.689 -11.784  -6.540  0.00  0.00    -0.263 N 
ATOM     10  C   UNL     1      -6.060 -10.524  -6.912  0.00  0.00    +0.259 C 
ATOM     11  O   UNL     1      -6.782 -10.335  -7.868  0.00  0.00    -0.271 OA
ATOM     12  H   UNL     1      -4.668  -6.868  -5.542  0.00  0.00    +0.143 HD
ATOM     13  H   UNL     1      -4.951  -8.487  -7.900  0.00  0.00    +0.143 HD
BRANCH   9  14
ATOM     14  C   UNL     1      -6.147 -12.883  -7.276  0.00  0.00    +0.037 A 
ATOM     15  C   UNL     1      -5.694 -13.089  -8.573  0.00  0.00    +0.025 A 
ATOM     16  C   UNL     1      -6.147 -14.174  -9.297  0.00  0.00    +0.022 A 
ATOM     17  C   UNL     1      -7.052 -15.056  -8.732  0.00  0.00    +0.041 A 
ATOM     18  C   UNL     1      -7.505 -14.852  -7.440  0.00  0.00    +0.022 A 
ATOM     19  C   UNL     1      -7.051 -13.772  -6.710  0.00  0.00    +0.025 A 
ATOM     20 CL   UNL     1      -7.620 -16.419  -9.645  0.00  0.00    -0.084 Cl
ENDBRANCH   9  14
ENDBRANCH   1   2
BRANCH   1  21
ATOM     21  C   UNL     1      -2.142  -6.779  -4.329  0.00  0.00    +0.013 C 
BRANCH  21  22
ATOM     22  C   UNL     1      -1.716  -6.375  -2.916  0.00  0.00    +0.096 C 
BRANCH  22  24
ATOM     23  N   UNL     1      -0.437  -4.548  -1.846  0.00  0.00    -0.315 N 
ATOM     24  C   UNL     1      -0.920  -5.097  -2.979  0.00  0.00    +0.213 C 
ATOM     25  O   UNL     1      -0.714  -4.562  -4.048  0.00  0.00    -0.276 OA
ATOM     26  H   UNL     1      -0.602  -4.975  -0.991  0.00  0.00    +0.149 HD
BRANCH  23  27
ATOM     27  C   UNL     1       0.337  -3.305  -1.907  0.00  0.00    +0.108 C 
BRANCH  27  28
ATOM     28  C   UNL     1       0.763  -2.901  -0.494  0.00  0.00    +0.052 C 
BRANCH  28  35
ATOM     29  C   UNL     1      -0.406   1.508   0.014  0.00  0.00    +0.001 A 
ATOM     30  C   UNL     1       0.671   2.394  -0.127  0.00  0.00    +0.002 A 
ATOM     31  C   UNL     1       1.929   1.978  -0.387  0.00  0.00    +0.026 A 
ATOM     32  C   UNL     1       2.212   0.592  -0.530  0.00  0.00    +0.043 A 
ATOM     33  N   UNL     1       3.328  -0.049  -0.780  0.00  0.00    -0.380 N 
ATOM     34  C   UNL     1       3.042  -1.487  -0.822  0.00  0.00    +0.144 C 
ATOM     35  C   UNL     1       1.559  -1.623  -0.556  0.00  0.00    -0.040 C 
ATOM     36  C   UNL     1       1.092  -0.365  -0.386  0.00  0.00    -0.001 A 
ATOM     37  C   UNL     1      -0.245   0.170  -0.104  0.00  0.00    +0.010 A 
ATOM     38  H   UNL     1       4.198   0.359  -0.914  0.00  0.00    +0.160 HD
ENDBRANCH  28  35
ENDBRANCH  27  28
ENDBRANCH  23  27
ENDBRANCH  22  24
ENDBRANCH  21  22
ENDBRANCH   1  21
TORSDOF 8
