REMARK  Name = ZINC09124438
REMARK  10 active torsions:
REMARK  status: ('A' for Active; 'I' for Inactive)
REMARK    1  A    between atoms: C_1  and  C_2
REMARK    2  A    between atoms: C_2  and  O_3
REMARK    3  A    between atoms: O_3  and  C_4
REMARK    4  A    between atoms: C_7  and  C_10
REMARK    5  A    between atoms: C_13  and  C_28
REMARK    6  A    between atoms: N_20  and  C_21
REMARK    7  A    between atoms: C_21  and  C_22
REMARK    8  A    between atoms: C_30  and  C_36
REMARK    9  A    between atoms: C_32  and  C_35
REMARK   10  A    between atoms: C_33  and  O_34
REMARK                            x       y       z     vdW  Elec       q    Type
REMARK                         _______ _______ _______ _____ _____    ______ ____
ROOT
ATOM      1  C   UNL     1      -2.019  -6.057  -0.017  0.00  0.00    +0.142 C 
ATOM      2  C   UNL     1      -2.461  -6.539  -1.372  0.00  0.00    +0.035 A 
ATOM      3  C   UNL     1      -2.176  -6.643  -2.737  0.00  0.00    +0.102 A 
ATOM      4  N   UNL     1      -3.185  -7.275  -3.304  0.00  0.00    -0.173 NA
ATOM      5  N   UNL     1      -4.079  -7.580  -2.432  0.00  0.00    -0.272 N 
ATOM      6  H   UNL     1      -4.906  -8.049  -2.622  0.00  0.00    +0.189 HD
ATOM      7  C   UNL     1      -3.689  -7.148  -1.196  0.00  0.00    +0.126 A 
ATOM      8  C   UNL     1      -4.048  -7.072   0.225  0.00  0.00    +0.266 C 
ATOM      9  O   UNL     1      -5.072  -7.517   0.707  0.00  0.00    -0.268 OA
ATOM     10  N   UNL     1      -3.083  -6.440   0.920  0.00  0.00    -0.281 N 
ENDROOT
BRANCH   3  11
ATOM     11  C   UNL     1      -0.961  -6.136  -3.423  0.00  0.00    +0.044 A 
ATOM     12  C   UNL     1       0.087  -5.597  -2.680  0.00  0.00    +0.017 A 
ATOM     13  C   UNL     1       1.214  -5.126  -3.322  0.00  0.00    -0.049 A 
ATOM     14  C   UNL     1       1.308  -5.187  -4.701  0.00  0.00    +0.010 A 
ATOM     15  C   UNL     1       0.273  -5.718  -5.447  0.00  0.00    -0.008 A 
ATOM     16  C   UNL     1      -0.862  -6.200  -4.815  0.00  0.00    +0.129 A 
ATOM     17  C   UNL     1       0.382  -5.780  -6.949  0.00  0.00    +0.047 C 
ATOM     18  C   UNL     1       2.348  -4.543  -2.518  0.00  0.00    +0.044 C 
BRANCH  16  19
ATOM     19  O   UNL     1      -1.877  -6.729  -5.547  0.00  0.00    -0.506 OA
ATOM     20  H   UNL     1      -2.542  -6.083  -5.822  0.00  0.00    +0.292 HD
ENDBRANCH  16  19
ENDBRANCH   3  11
BRANCH   1  24
ATOM     21  C   UNL     1      -1.546  -1.810  -0.049  0.00  0.00    +0.121 A 
ATOM     22  C   UNL     1      -2.802  -2.371  -0.233  0.00  0.00    +0.046 A 
ATOM     23  C   UNL     1      -2.952  -3.744  -0.223  0.00  0.00    +0.009 A 
ATOM     24  C   UNL     1      -1.852  -4.559  -0.029  0.00  0.00    -0.022 A 
ATOM     25  C   UNL     1      -0.600  -4.003   0.156  0.00  0.00    +0.009 A 
ATOM     26  C   UNL     1      -0.444  -2.630   0.140  0.00  0.00    +0.046 A 
BRANCH  21  27
ATOM     27  O   UNL     1      -1.396  -0.459  -0.059  0.00  0.00    -0.492 OA
BRANCH  27  29
ATOM     28  C   UNL     1      -2.210   1.809  -0.240  0.00  0.00    +0.048 C 
ATOM     29  C   UNL     1      -2.575   0.323  -0.259  0.00  0.00    +0.225 C 
ENDBRANCH  27  29
ENDBRANCH  21  27
ENDBRANCH   1  24
BRANCH  10  30
ATOM     30  C   UNL     1      -3.092  -6.179   2.361  0.00  0.00    +0.145 C 
BRANCH  30  31
ATOM     31  C   UNL     1      -3.745  -4.847   2.626  0.00  0.00    -0.012 A 
ATOM     32  C   UNL     1      -2.986  -3.686   2.653  0.00  0.00    +0.008 A 
ATOM     33  C   UNL     1      -3.629  -2.483   2.901  0.00  0.00    +0.020 A 
ATOM     34  C   UNL     1      -4.995  -2.480   3.111  0.00  0.00    +0.111 A 
ATOM     35  N   UNL     1      -5.685  -3.604   3.078  0.00  0.00    -0.263 NA
ATOM     36  C   UNL     1      -5.108  -4.765   2.840  0.00  0.00    +0.115 A 
ENDBRANCH  30  31
ENDBRANCH  10  30
TORSDOF 7
