REMARK  Name = ZINC35973159
REMARK  3 active torsions:
REMARK  status: ('A' for Active; 'I' for Inactive)
REMARK    1  A    between atoms: C_11  and  C_13
REMARK    2  A    between atoms: C_13  and  C_15
REMARK    3  A    between atoms: C_22  and  N_25
REMARK                            x       y       z     vdW  Elec       q    Type
REMARK                         _______ _______ _______ _____ _____    ______ ____
ROOT
ATOM      1  C   UNL     1       5.565  -2.062   1.638  0.00  0.00    +0.249 C 
ATOM      2  O   UNL     1       5.729  -0.875   1.436  0.00  0.00    -0.282 OA
ENDROOT
BRANCH   1  13
ATOM      3  C   UNL     1      -0.480   0.962   1.200  0.00  0.00    +0.000 A 
ATOM      4  C   UNL     1       0.629   1.786   1.243  0.00  0.00    +0.000 A 
ATOM      5  C   UNL     1       1.881   1.262   0.995  0.00  0.00    +0.005 A 
ATOM      6  C   UNL     1       2.036  -0.087   0.705  0.00  0.00    -0.027 A 
ATOM      7  C   UNL     1       0.933  -0.911   0.671  0.00  0.00    -0.041 A 
ATOM      8  C   UNL     1      -0.327  -0.379   0.914  0.00  0.00    +0.004 A 
ATOM      9  C   UNL     1       1.026  -2.388   0.394  0.00  0.00    +0.054 C 
ATOM     10  C   UNL     1       2.338  -2.729  -0.310  0.00  0.00    +0.113 C 
ATOM     11  N   UNL     1       3.430  -2.059   0.416  0.00  0.00    -0.290 N 
ATOM     12  C   UNL     1       3.430  -0.592   0.429  0.00  0.00    +0.143 C 
ATOM     13  C   UNL     1       4.391  -2.765   1.044  0.00  0.00    +0.287 C 
ATOM     14  O   UNL     1       4.301  -3.973   1.127  0.00  0.00    -0.266 OA
ENDBRANCH   1  13
BRANCH   1  15
ATOM     15  C   UNL     1       6.518  -2.802   2.464  0.00  0.00    +0.052 A 
ATOM     16  C   UNL     1       6.475  -4.147   2.780  0.00  0.00    +0.095 A 
ATOM     17  N   UNL     1       7.525  -4.460   3.561  0.00  0.00    -0.360 N 
ATOM     18  H   UNL     1       7.707  -5.347   3.909  0.00  0.00    +0.165 HD
ATOM     19  C   UNL     1       8.308  -3.348   3.798  0.00  0.00    +0.047 A 
ATOM     20  C   UNL     1       7.725  -2.264   3.123  0.00  0.00    +0.013 A 
ATOM     21  C   UNL     1       8.313  -1.004   3.182  0.00  0.00    +0.043 A 
ATOM     22  C   UNL     1       9.474  -0.827   3.905  0.00  0.00    +0.127 A 
ATOM     23  C   UNL     1      10.054  -1.897   4.570  0.00  0.00    +0.035 A 
ATOM     24  C   UNL     1       9.476  -3.148   4.525  0.00  0.00    +0.028 A 
BRANCH  22  25
ATOM     25  N   UNL     1      10.104   0.511   3.971  0.00  0.00    +0.056 N 
ATOM     26  O   UNL     1       9.600   1.446   3.392  0.00  0.00    -0.126 OA
ATOM     27  O   UNL     1      11.121   0.669   4.604  0.00  0.00    -0.126 OA
ENDBRANCH  22  25
ENDBRANCH   1  15
TORSDOF 3
