REMARK  Name = ZINC58536746
REMARK  6 active torsions:
REMARK  status: ('A' for Active; 'I' for Inactive)
REMARK    1  A    between atoms: C_1  and  N_2
REMARK    2  A    between atoms: C_3  and  C_5
REMARK    3  A    between atoms: C_5  and  N_6
REMARK    4  A    between atoms: C_8  and  N_11
REMARK    5  A    between atoms: C_12  and  C_14
REMARK    6  A    between atoms: C_15  and  C_16
REMARK                            x       y       z     vdW  Elec       q    Type
REMARK                         _______ _______ _______ _____ _____    ______ ____
ROOT
ATOM      1  N   UNL     1       3.730  -4.486  -4.053  0.00  0.00    -0.279 N 
ATOM      2  C   UNL     1       3.954  -4.579  -5.378  0.00  0.00    +0.241 C 
ATOM      3  O   UNL     1       3.251  -3.962  -6.160  0.00  0.00    -0.270 OA
ATOM      4  H   UNL     1       4.289  -4.977  -3.430  0.00  0.00    +0.155 HD
ENDROOT
BRANCH   1   7
ATOM      5  N   UNL     1       1.291  -2.644  -2.232  0.00  0.00    -0.261 N 
ATOM      6  C   UNL     1       2.350  -3.494  -2.268  0.00  0.00    +0.132 A 
ATOM      7  C   UNL     1       2.684  -3.677  -3.571  0.00  0.00    +0.072 A 
ATOM      8  C   UNL     1       1.802  -2.915  -4.351  0.00  0.00    +0.157 A 
ATOM      9  N   UNL     1       0.967  -2.304  -3.551  0.00  0.00    -0.177 NA
BRANCH   5  10
ATOM     10  C   UNL     1       0.606  -2.171  -1.026  0.00  0.00    +0.239 C 
BRANCH  10  13
ATOM     11  C   UNL     1      -0.018   1.461   0.010  0.00  0.00    +0.128 C 
ATOM     12  N   UNL     1       0.002  -0.004   0.002  0.00  0.00    -0.317 N 
ATOM     13  C   UNL     1       0.585  -0.664  -1.018  0.00  0.00    +0.234 C 
ATOM     14  O   UNL     1       1.093  -0.046  -1.929  0.00  0.00    -0.274 OA
ATOM     15  H   UNL     1      -0.404  -0.499   0.731  0.00  0.00    +0.148 HD
ENDBRANCH  10  13
ENDBRANCH   5  10
ENDBRANCH   1   7
BRANCH   2  16
ATOM     16  C   UNL     1       5.001  -5.389  -5.861  0.00  0.00    +0.070 C 
ATOM     17  C   UNL     1       5.227  -5.484  -7.201  0.00  0.00    +0.034 C 
BRANCH  17  18
ATOM     18  C   UNL     1       6.273  -6.293  -7.683  0.00  0.00    +0.085 A 
ATOM     19  C   UNL     1       7.588  -6.290  -7.246  0.00  0.00    +0.156 A 
ATOM     20  N   UNL     1       8.256  -7.196  -7.952  0.00  0.00    -0.209 NA
ATOM     21  C   UNL     1       7.447  -7.772  -8.805  0.00  0.00    +0.179 A 
ATOM     22  N   UNL     1       6.182  -7.265  -8.695  0.00  0.00    -0.292 N 
ATOM     23  C   UNL     1       5.223  -7.786  -9.532  0.00  0.00    +0.101 A 
ATOM     24  C   UNL     1       5.528  -8.746 -10.405  0.00  0.00    +0.067 A 
ATOM     25  S   UNL     1       7.271  -8.982 -10.097  0.00  0.00    -0.058 S 
ATOM     26 CL   UNL     1       8.247  -5.278  -5.999  0.00  0.00    -0.060 Cl
ENDBRANCH  17  18
ENDBRANCH   2  16
TORSDOF 5
