REMARK  Name = ZINC64040497
REMARK  5 active torsions:
REMARK  status: ('A' for Active; 'I' for Inactive)
REMARK    1  A    between atoms: C_1  and  C_2
REMARK    2  A    between atoms: N_11  and  C_16
REMARK    3  A    between atoms: C_16  and  C_17
REMARK    4  A    between atoms: N_19  and  C_32
REMARK    5  A    between atoms: C_21  and  C_22
REMARK                            x       y       z     vdW  Elec       q    Type
REMARK                         _______ _______ _______ _____ _____    ______ ____
ROOT
ATOM      1  C   UNL     1      -1.446  -4.194   4.937  0.00  0.00    -0.039 C 
ENDROOT
BRANCH   1  11
ATOM      2  C   UNL     1      -0.375   0.323  -1.347  0.00  0.00    +0.044 C 
ATOM      3  C   UNL     1      -0.558  -1.161  -1.155  0.00  0.00    -0.050 A 
ATOM      4  C   UNL     1      -0.862  -1.960  -2.266  0.00  0.00    +0.005 A 
ATOM      5  C   UNL     1      -1.036  -3.295  -2.176  0.00  0.00    +0.026 A 
ATOM      6  C   UNL     1      -0.915  -3.955  -0.923  0.00  0.00    +0.043 A 
ATOM      7  N   UNL     1      -1.061  -5.216  -0.583  0.00  0.00    -0.378 N 
ATOM      8  C   UNL     1      -0.725  -5.354   0.830  0.00  0.00    +0.103 C 
ATOM      9  C   UNL     1      -1.857  -5.984   1.648  0.00  0.00    +0.010 C 
ATOM     10  C   UNL     1      -1.549  -5.761   3.133  0.00  0.00    -0.076 C 
ATOM     11  N   UNL     1      -1.577  -4.339   3.481  0.00  0.00    +0.385 N 
ATOM     12  C   UNL     1      -0.471  -3.618   2.819  0.00  0.00    -0.044 C 
ATOM     13  C   UNL     1      -0.546  -3.934   1.342  0.00  0.00    -0.055 C 
ATOM     14  C   UNL     1      -0.602  -3.131   0.271  0.00  0.00    -0.002 A 
ATOM     15  C   UNL     1      -0.418  -1.687   0.082  0.00  0.00    +0.013 A 
ATOM     16  H   UNL     1      -1.345  -5.933  -1.171  0.00  0.00    +0.160 HD
ATOM     17  H   UNL     1      -2.457  -3.942   3.186  0.00  0.00    -0.081 HD
ENDBRANCH   1  11
BRANCH   1  18
ATOM     18  C   UNL     1      -2.659  -4.781   5.612  0.00  0.00    -0.019 A 
ATOM     19  C   UNL     1      -2.707  -5.953   6.283  0.00  0.00    +0.110 A 
ATOM     20  N   UNL     1      -3.967  -6.122   6.737  0.00  0.00    -0.274 N 
ATOM     21  N   UNL     1      -4.728  -5.017   6.334  0.00  0.00    -0.171 NA
ATOM     22  C   UNL     1      -3.942  -4.203   5.660  0.00  0.00    +0.094 A 
ATOM     23  C   UNL     1      -4.454  -7.262   7.516  0.00  0.00    +0.172 C 
BRANCH  22  24
ATOM     24  C   UNL     1      -4.340  -2.908   5.054  0.00  0.00    +0.006 A 
ATOM     25  C   UNL     1      -3.506  -1.798   5.171  0.00  0.00    +0.014 A 
ATOM     26  C   UNL     1      -3.878  -0.594   4.609  0.00  0.00    +0.050 A 
ATOM     27  C   UNL     1      -5.082  -0.484   3.925  0.00  0.00    +0.162 A 
ATOM     28  C   UNL     1      -5.916  -1.591   3.803  0.00  0.00    +0.163 A 
ATOM     29  C   UNL     1      -5.544  -2.801   4.363  0.00  0.00    +0.059 A 
ATOM     30  O   UNL     1      -7.095  -1.502   3.129  0.00  0.00    -0.485 OA
ATOM     31  C   UNL     1      -7.607  -0.186   2.897  0.00  0.00    +0.270 C 
ATOM     32  C   UNL     1      -6.458   0.693   2.384  0.00  0.00    +0.270 C 
ATOM     33  O   UNL     1      -5.431   0.714   3.381  0.00  0.00    -0.485 OA
ENDBRANCH  22  24
ENDBRANCH   1  18
TORSDOF 3
