REMARK  Name = ZINC13500536
REMARK  11 active torsions:
REMARK  status: ('A' for Active; 'I' for Inactive)
REMARK    1  A    between atoms: C_1  and  C_2
REMARK    2  A    between atoms: C_2  and  C_3
REMARK    3  A    between atoms: C_2  and  C_4
REMARK    4  A    between atoms: C_4  and  C_6
REMARK    5  A    between atoms: C_4  and  N_66
REMARK    6  A    between atoms: N_10  and  C_11
REMARK    7  A    between atoms: C_17  and  C_18
REMARK    8  A    between atoms: C_17  and  N_66
REMARK    9  A    between atoms: C_18  and  O_19
REMARK   10  A    between atoms: C_20  and  C_21
REMARK   11  A    between atoms: C_20  and  N_66
REMARK                            x       y       z     vdW  Elec       q    Type
REMARK                         _______ _______ _______ _____ _____    ______ ____
ROOT
ATOM      1  N   UNL     1      -0.702   1.630   1.279  0.00  0.00    +0.391 N 
ATOM      2  H   UNL     1      -0.215   1.720   2.179  0.00  0.00    -0.080 HD
ENDROOT
BRANCH   1   3
ATOM      3  C   UNL     1       0.278   1.258   0.237  0.00  0.00    +0.006 C 
BRANCH   3   4
ATOM      4  C   UNL     1      -0.345   1.351  -1.132  0.00  0.00    +0.139 A 
ATOM      5  N   UNL     1      -0.993   2.377  -1.628  0.00  0.00    -0.115 NA
ATOM      6  N   UNL     1      -1.368   2.070  -2.822  0.00  0.00    -0.023 NA
ATOM      7  N   UNL     1      -0.984   0.873  -3.097  0.00  0.00    -0.044 NA
ATOM      8  N   UNL     1      -0.349   0.396  -2.080  0.00  0.00    -0.228 N 
BRANCH   8   9
ATOM      9  C   UNL     1       0.254  -0.936  -1.976  0.00  0.00    +0.111 C 
ATOM     10  C   UNL     1       1.313  -1.102  -3.067  0.00  0.00    +0.027 C 
ATOM     11  C   UNL     1       1.943  -2.492  -2.959  0.00  0.00    +0.002 C 
ATOM     12  C   UNL     1       0.859  -3.558  -3.134  0.00  0.00    +0.000 C 
ATOM     13  C   UNL     1      -0.201  -3.392  -2.043  0.00  0.00    +0.002 C 
ATOM     14  C   UNL     1      -0.830  -2.001  -2.151  0.00  0.00    +0.027 C 
ENDBRANCH   8   9
ENDBRANCH   3   4
BRANCH   3  16
ATOM     15  C   UNL     1       2.035   2.200   1.743  0.00  0.00    +0.006 C 
ATOM     16  C   UNL     1       1.472   2.211   0.321  0.00  0.00    -0.024 C 
ATOM     17  C   UNL     1       2.556   1.757  -0.660  0.00  0.00    +0.006 C 
ENDBRANCH   3  16
ENDBRANCH   1   3
BRANCH   1  18
ATOM     18  C   UNL     1      -1.738   0.583   1.396  0.00  0.00    -0.049 C 
BRANCH  18  19
ATOM     19  C   UNL     1      -1.125  -0.641   2.080  0.00  0.00    +0.137 C 
BRANCH  19  20
ATOM     20  O   UNL     1      -0.709  -0.289   3.401  0.00  0.00    -0.397 OA
ATOM     21  H   UNL     1      -0.241  -0.995   3.868  0.00  0.00    +0.209 HD
ENDBRANCH  19  20
ENDBRANCH  18  19
ENDBRANCH   1  18
BRANCH   1  22
ATOM     22  C   UNL     1      -1.329   2.926   0.942  0.00  0.00    -0.036 C 
BRANCH  22  23
ATOM     23  C   UNL     1      -2.030   3.457   2.166  0.00  0.00    +0.001 A 
ATOM     24  C   UNL     1      -1.379   4.306   3.002  0.00  0.00    +0.017 A 
ATOM     25  C   UNL     1      -2.087   4.806   4.180  0.00  0.00    +0.002 A 
ATOM     26  C   UNL     1      -1.466   5.685   5.076  0.00  0.00    +0.059 A 
ATOM     27  C   UNL     1      -2.158   6.139   6.178  0.00  0.00    +0.167 A 
ATOM     28  C   UNL     1      -3.476   5.724   6.403  0.00  0.00    +0.168 A 
ATOM     29  C   UNL     1      -4.097   4.856   5.523  0.00  0.00    +0.075 A 
ATOM     30  C   UNL     1      -3.413   4.389   4.408  0.00  0.00    +0.053 A 
ATOM     31  N   UNL     1      -4.017   3.524   3.519  0.00  0.00    -0.322 N 
ATOM     32  H   UNL     1      -4.930   3.237   3.676  0.00  0.00    +0.169 HD
ATOM     33  C   UNL     1      -3.360   3.075   2.435  0.00  0.00    +0.251 A 
ATOM     34  O   UNL     1      -3.926   2.316   1.668  0.00  0.00    -0.268 OA
ATOM     35  O   UNL     1      -3.925   6.313   7.548  0.00  0.00    -0.453 OA
ATOM     36  C   UNL     1      -3.024   7.407   7.799  0.00  0.00    +0.466 C 
ATOM     37  O   UNL     1      -1.792   6.986   7.185  0.00  0.00    -0.453 OA
ENDBRANCH  22  23
ENDBRANCH   1  22
TORSDOF 9
