REMARK  Name = ZINC64978951
REMARK  11 active torsions:
REMARK  status: ('A' for Active; 'I' for Inactive)
REMARK    1  A    between atoms: C_1  and  C_2
REMARK    2  A    between atoms: C_2  and  N_3
REMARK    3  A    between atoms: C_4  and  C_30
REMARK    4  A    between atoms: C_5  and  C_9
REMARK    5  A    between atoms: C_6  and  C_8
REMARK    6  A    between atoms: C_9  and  C_10
REMARK    7  A    between atoms: C_10  and  N_11
REMARK    8  A    between atoms: N_11  and  C_12
REMARK    9  A    between atoms: C_14  and  C_27
REMARK   10  A    between atoms: C_16  and  N_19
REMARK   11  A    between atoms: C_20  and  C_22
REMARK                            x       y       z     vdW  Elec       q    Type
REMARK                         _______ _______ _______ _____ _____    ______ ____
ROOT
ATOM      1  N   UNL     1       5.682  -0.674   4.232  0.00  0.00    -0.317 N 
ATOM      2  C   UNL     1       6.872  -0.618   3.380  0.00  0.00    +0.130 C 
ATOM      3  C   UNL     1       5.788  -1.111   5.540  0.00  0.00    +0.135 A 
ATOM      4  C   UNL     1       5.949  -0.177   6.579  0.00  0.00    +0.105 A 
ATOM      5  C   UNL     1       6.053  -0.642   7.896  0.00  0.00    +0.043 A 
ATOM      6  C   UNL     1       5.993  -2.012   8.117  0.00  0.00    +0.053 A 
ATOM      7  C   UNL     1       5.833  -2.870   7.036  0.00  0.00    +0.136 A 
ATOM      8  N   UNL     1       5.732  -2.407   5.806  0.00  0.00    -0.238 NA
ENDROOT
BRANCH   6   9
ATOM      9  N   UNL     1       6.094  -2.523   9.418  0.00  0.00    -0.280 N 
ATOM     10  C   UNL     1       5.734  -1.763  10.471  0.00  0.00    +0.255 C 
ATOM     11  O   UNL     1       5.225  -0.673  10.288  0.00  0.00    -0.269 OA
ATOM     12  H   UNL     1       6.423  -3.425   9.560  0.00  0.00    +0.155 HD
BRANCH  10  13
ATOM     13  C   UNL     1       5.956  -2.249  11.835  0.00  0.00    +0.074 A 
ATOM     14  C   UNL     1       5.658  -1.634  13.042  0.00  0.00    +0.021 A 
ATOM     15  C   UNL     1       5.988  -2.344  14.171  0.00  0.00    +0.008 A 
ATOM     16  C   UNL     1       6.566  -3.562  14.038  0.00  0.00    +0.046 A 
ATOM     17  S   UNL     1       6.674  -3.788  12.377  0.00  0.00    -0.092 S 
ENDBRANCH  10  13
ENDBRANCH   6   9
BRANCH   4  18
ATOM     18  C   UNL     1       6.006   1.264   6.287  0.00  0.00    +0.390 C 
ATOM     19  O   UNL     1       6.238   2.061   7.186  0.00  0.00    -0.240 OA
ATOM     20  O   UNL     1       5.823   1.664   5.146  0.00  0.00    -0.240 OA
ENDBRANCH   4  18
BRANCH   1  21
ATOM     21  C   UNL     1       4.380  -0.266   3.699  0.00  0.00    +0.111 C 
BRANCH  21  22
ATOM     22  C   UNL     1       3.680  -1.477   3.081  0.00  0.00    +0.057 C 
BRANCH  22  25
ATOM     23  N   UNL     1       0.778  -0.343   1.185  0.00  0.00    -0.268 N 
ATOM     24  C   UNL     1       2.098  -0.612   1.278  0.00  0.00    +0.040 A 
ATOM     25  C   UNL     1       2.340  -1.058   2.532  0.00  0.00    -0.003 A 
ATOM     26  C   UNL     1       1.128  -1.061   3.230  0.00  0.00    +0.063 A 
ATOM     27  N   UNL     1       0.192  -0.627   2.425  0.00  0.00    -0.176 NA
ATOM     28  C   UNL     1       0.935  -1.485   4.663  0.00  0.00    +0.068 C 
ATOM     29  C   UNL     1       3.118  -0.446   0.181  0.00  0.00    +0.065 C 
BRANCH  23  31
ATOM     30  C   UNL     1       0.093   1.693   0.016  0.00  0.00    +0.029 C 
ATOM     31  C   UNL     1       0.083   0.163  -0.001  0.00  0.00    +0.140 C 
ENDBRANCH  23  31
ENDBRANCH  22  25
ENDBRANCH  21  22
ENDBRANCH   1  21
TORSDOF 7
