REMARK  Name = ZINC53360439
REMARK  8 active torsions:
REMARK  status: ('A' for Active; 'I' for Inactive)
REMARK    1  A    between atoms: C_1  and  C_2
REMARK    2  A    between atoms: C_4  and  C_28
REMARK    3  A    between atoms: C_6  and  N_13
REMARK    4  A    between atoms: C_14  and  C_16
REMARK    5  A    between atoms: C_16  and  N_17
REMARK    6  A    between atoms: N_17  and  C_18
REMARK    7  A    between atoms: N_17  and  C_25
REMARK    8  A    between atoms: C_18  and  C_19
REMARK                            x       y       z     vdW  Elec       q    Type
REMARK                         _______ _______ _______ _____ _____    ______ ____
ROOT
ATOM      1  N   UNL     1      -2.870  -4.192  -0.984  0.00  0.00    -0.257 N 
ATOM      2  C   UNL     1      -4.176  -4.470  -0.802  0.00  0.00    +0.203 C 
ATOM      3  O   UNL     1      -5.018  -3.651  -1.104  0.00  0.00    -0.277 OA
ATOM      4  H   UNL     1      -2.196  -4.847  -0.743  0.00  0.00    +0.158 HD
ENDROOT
BRANCH   1  10
ATOM      5  C   UNL     1      -0.122   0.890  -3.251  0.00  0.00    +0.068 C 
ATOM      6  C   UNL     1      -0.071  -0.500  -2.671  0.00  0.00    +0.070 A 
ATOM      7  C   UNL     1      -1.312  -1.196  -2.317  0.00  0.00    +0.053 A 
ATOM      8  C   UNL     1      -2.634  -0.926  -2.365  0.00  0.00    +0.114 A 
ATOM      9  O   UNL     1      -3.317  -1.983  -1.888  0.00  0.00    -0.445 OA
ATOM     10  C   UNL     1      -2.489  -2.972  -1.515  0.00  0.00    +0.206 A 
ATOM     11  C   UNL     1      -1.199  -2.562  -1.750  0.00  0.00    +0.110 A 
ATOM     12  C   UNL     1       0.141  -3.116  -1.585  0.00  0.00    +0.277 A 
ATOM     13  O   UNL     1       0.299  -4.233  -1.125  0.00  0.00    -0.266 OA
ATOM     14  N   UNL     1       1.202  -2.367  -1.952  0.00  0.00    -0.242 N 
ATOM     15  H   UNL     1       2.092  -2.736  -1.842  0.00  0.00    +0.192 HD
ATOM     16  N   UNL     1       1.071  -1.088  -2.486  0.00  0.00    -0.175 NA
ATOM     17  C   UNL     1      -3.246   0.354  -2.870  0.00  0.00    +0.087 C 
ENDBRANCH   1  10
BRANCH   2  18
ATOM     18  C   UNL     1      -4.590  -5.799  -0.224  0.00  0.00    +0.019 C 
BRANCH  18  19
ATOM     19  N   UNL     1      -6.041  -5.802   0.005  0.00  0.00    +0.387 N 
ATOM     20  H   UNL     1      -6.516  -5.515  -0.838  0.00  0.00    -0.081 HD
BRANCH  19  21
ATOM     21  C   UNL     1      -6.367  -4.870   1.092  0.00  0.00    -0.068 C 
ATOM     22  C   UNL     1      -5.216  -4.066   1.702  0.00  0.00    -0.017 C 
ATOM     23  C   UNL     1      -5.854  -5.210   2.493  0.00  0.00    -0.017 C 
ENDBRANCH  19  21
BRANCH  19  24
ATOM     24  C   UNL     1      -6.475  -7.156   0.375  0.00  0.00    -0.074 C 
BRANCH  24  25
ATOM     25  C   UNL     1      -8.001  -7.191   0.480  0.00  0.00    -0.028 C 
ATOM     26  C   UNL     1      -8.445  -8.561   0.996  0.00  0.00    +0.002 C 
ATOM     27  C   UNL     1      -9.971  -8.597   1.101  0.00  0.00    +0.000 C 
ATOM     28  C   UNL     1     -10.583  -8.349  -0.279  0.00  0.00    +0.000 C 
ATOM     29  C   UNL     1     -10.139  -6.979  -0.795  0.00  0.00    +0.000 C 
ATOM     30  C   UNL     1      -8.613  -6.944  -0.900  0.00  0.00    +0.002 C 
ENDBRANCH  24  25
ENDBRANCH  19  24
ENDBRANCH  18  19
ENDBRANCH   2  18
TORSDOF 6
