REMARK  Name = ZINC26392293
REMARK  10 active torsions:
REMARK  status: ('A' for Active; 'I' for Inactive)
REMARK    1  A    between atoms: C_1  and  N_2
REMARK    2  A    between atoms: N_2  and  C_3
REMARK    3  A    between atoms: N_2  and  C_4
REMARK    4  A    between atoms: C_4  and  C_6
REMARK    5  A    between atoms: C_4  and  C_24
REMARK    6  A    between atoms: C_6  and  N_7
REMARK    7  A    between atoms: N_10  and  C_11
REMARK    8  A    between atoms: C_11  and  C_12
REMARK    9  A    between atoms: C_17  and  O_22
REMARK   10  A    between atoms: O_22  and  C_23
REMARK                            x       y       z     vdW  Elec       q    Type
REMARK                         _______ _______ _______ _____ _____    ______ ____
ROOT
ATOM      1  N   UNL     1      -1.091  -6.959   3.808  0.00  0.00    -0.301 N 
ATOM      2  C   UNL     1      -1.834  -6.483   2.789  0.00  0.00    +0.300 C 
ATOM      3  O   UNL     1      -1.875  -7.086   1.733  0.00  0.00    -0.253 OA
ATOM      4  N   UNL     1      -2.531  -5.340   2.940  0.00  0.00    -0.295 N 
ATOM      5  H   UNL     1      -1.053  -6.414   4.762  0.00  0.00    +0.150 HD
ATOM      6  H   UNL     1      -2.493  -4.795   3.895  0.00  0.00    +0.151 HD
ENDROOT
BRANCH   1   7
ATOM      7  C   UNL     1      -0.333  -8.202   3.643  0.00  0.00    +0.095 C 
BRANCH   7   8
ATOM      8  C   UNL     1       0.583  -8.405   4.852  0.00  0.00    -0.020 C 
BRANCH   8   9
ATOM      9  C   UNL     1       1.278  -9.737   4.738  0.00  0.00    -0.052 A 
ATOM     10  C   UNL     1       0.746 -10.860   5.343  0.00  0.00    +0.009 A 
ATOM     11  C   UNL     1       1.396 -12.043   5.221  0.00  0.00    +0.045 A 
ATOM     12  S   UNL     1       2.807 -11.588   4.227  0.00  0.00    -0.105 S 
ATOM     13  C   UNL     1       2.432  -9.853   4.036  0.00  0.00    +0.047 A 
ENDBRANCH   8   9
BRANCH   8  15
ATOM     14  C   UNL     1       1.980  -6.928   3.536  0.00  0.00    -0.096 C 
ATOM     15  N   UNL     1       1.585  -7.332   4.893  0.00  0.00    +0.382 N 
ATOM     16  C   UNL     1       1.093  -6.181   5.662  0.00  0.00    -0.096 C 
ATOM     17  H   UNL     1       2.478  -7.722   5.402  0.00  0.00    -0.082 HD
ENDBRANCH   8  15
ENDBRANCH   7   8
ENDBRANCH   1   7
BRANCH   4  18
ATOM     18  C   UNL     1      -3.338  -4.822   1.832  0.00  0.00    +0.141 C 
BRANCH  18  19
ATOM     19  C   UNL     1      -4.011  -3.543   2.257  0.00  0.00    -0.030 A 
ATOM     20  C   UNL     1      -5.272  -3.594   2.850  0.00  0.00    +0.006 A 
ATOM     21  C   UNL     1      -5.907  -2.457   3.244  0.00  0.00    +0.009 A 
ATOM     22  C   UNL     1      -5.286  -1.211   3.052  0.00  0.00    -0.014 A 
ATOM     23  C   UNL     1      -5.912  -0.017   3.446  0.00  0.00    +0.054 A 
ATOM     24  C   UNL     1      -5.278   1.176   3.244  0.00  0.00    +0.121 A 
ATOM     25  C   UNL     1      -4.013   1.225   2.649  0.00  0.00    +0.046 A 
ATOM     26  C   UNL     1      -3.381   0.087   2.257  0.00  0.00    +0.012 A 
ATOM     27  C   UNL     1      -4.004  -1.159   2.450  0.00  0.00    -0.017 A 
ATOM     28  C   UNL     1      -3.380  -2.354   2.055  0.00  0.00    +0.013 A 
BRANCH  24  29
ATOM     29  O   UNL     1      -5.884   2.331   3.626  0.00  0.00    -0.495 OA
ATOM     30  C   UNL     1      -5.172   3.547   3.388  0.00  0.00    +0.277 C 
ENDBRANCH  24  29
ENDBRANCH  18  19
ENDBRANCH   4  18
TORSDOF 7
