REMARK  Name = ZINC27546976
REMARK  7 active torsions:
REMARK  status: ('A' for Active; 'I' for Inactive)
REMARK    1  A    between atoms: C_1  and  O_2
REMARK    2  A    between atoms: O_2  and  C_3
REMARK    3  A    between atoms: C_8  and  N_9
REMARK    4  A    between atoms: C_10  and  C_12
REMARK    5  A    between atoms: C_17  and  N_18
REMARK    6  A    between atoms: C_19  and  C_21
REMARK    7  A    between atoms: N_26  and  C_28
REMARK                            x       y       z     vdW  Elec       q    Type
REMARK                         _______ _______ _______ _____ _____    ______ ____
ROOT
ATOM      1  C   UNL     1       6.306  -1.536  -0.760  0.00  0.00    +0.058 A 
ATOM      2  C   UNL     1       7.576  -1.420  -1.330  0.00  0.00    +0.015 A 
ATOM      3  C   UNL     1       7.936  -0.259  -1.978  0.00  0.00    +0.001 A 
ATOM      4  C   UNL     1       7.042   0.796  -2.071  0.00  0.00    +0.002 A 
ATOM      5  C   UNL     1       5.782   0.695  -1.517  0.00  0.00    +0.024 A 
ATOM      6  C   UNL     1       5.401  -0.468  -0.861  0.00  0.00    +0.046 A 
ENDROOT
BRANCH   1   8
ATOM      7  N   UNL     1       6.732  -3.846  -0.083  0.00  0.00    -0.279 N 
ATOM      8  C   UNL     1       5.916  -2.774  -0.060  0.00  0.00    +0.250 C 
ATOM      9  O   UNL     1       4.858  -2.828   0.538  0.00  0.00    -0.270 OA
ATOM     10  H   UNL     1       7.718  -3.777  -0.566  0.00  0.00    +0.155 HD
BRANCH   7  16
ATOM     11  C   UNL     1       6.841  -6.260   0.055  0.00  0.00    +0.141 A 
ATOM     12  C   UNL     1       6.436  -7.447   0.645  0.00  0.00    +0.047 A 
ATOM     13  C   UNL     1       5.522  -7.426   1.682  0.00  0.00    +0.004 A 
ATOM     14  C   UNL     1       5.009  -6.224   2.133  0.00  0.00    +0.002 A 
ATOM     15  C   UNL     1       5.412  -5.036   1.554  0.00  0.00    +0.027 A 
ATOM     16  C   UNL     1       6.325  -5.049   0.509  0.00  0.00    +0.076 A 
BRANCH  11  18
ATOM     17  C   UNL     1       8.227  -7.558  -1.377  0.00  0.00    +0.277 C 
ATOM     18  O   UNL     1       7.741  -6.279  -0.964  0.00  0.00    -0.493 OA
ENDBRANCH  11  18
ENDBRANCH   7  16
ENDBRANCH   1   8
BRANCH   6  19
ATOM     19  N   UNL     1       4.130  -0.572  -0.301  0.00  0.00    -0.285 N 
ATOM     20  C   UNL     1       3.498   0.532   0.146  0.00  0.00    +0.222 C 
ATOM     21  O   UNL     1       4.003   1.624  -0.008  0.00  0.00    -0.275 OA
ATOM     22  H   UNL     1       3.642  -1.554  -0.223  0.00  0.00    +0.155 HD
BRANCH  20  23
ATOM     23  C   UNL     1       2.164   0.409   0.836  0.00  0.00    +0.102 C 
ATOM     24  C   UNL     1       1.107  -0.206  -0.109  0.00  0.00    +0.110 C 
ATOM     25  C   UNL     1      -0.170   0.531   0.232  0.00  0.00    +0.221 C 
ATOM     26  O   UNL     1      -1.285   0.168  -0.075  0.00  0.00    -0.275 OA
ATOM     27  N   UNL     1       0.113   1.647   0.926  0.00  0.00    -0.271 N 
ATOM     28  C   UNL     1       1.559   1.801   1.123  0.00  0.00    +0.127 C 
BRANCH  27  29
ATOM     29  C   UNL     1      -0.848   2.549   1.396  0.00  0.00    +0.036 A 
ATOM     30  C   UNL     1      -2.181   2.394   1.039  0.00  0.00    +0.023 A 
ATOM     31  C   UNL     1      -3.128   3.283   1.510  0.00  0.00    +0.002 A 
ATOM     32  C   UNL     1      -2.748   4.333   2.325  0.00  0.00    +0.000 A 
ATOM     33  C   UNL     1      -1.421   4.494   2.677  0.00  0.00    +0.002 A 
ATOM     34  C   UNL     1      -0.470   3.605   2.215  0.00  0.00    +0.023 A 
ENDBRANCH  27  29
ENDBRANCH  20  23
ENDBRANCH   6  19
TORSDOF 6
