REMARK  Name = ZINC03593513
REMARK  7 active torsions:
REMARK  status: ('A' for Active; 'I' for Inactive)
REMARK    1  A    between atoms: C_1  and  C_2
REMARK    2  A    between atoms: C_3  and  N_11
REMARK    3  A    between atoms: C_7  and  N_8
REMARK    4  A    between atoms: C_12  and  C_14
REMARK    5  A    between atoms: C_14  and  N_15
REMARK    6  A    between atoms: C_18  and  C_22
REMARK    7  A    between atoms: C_18  and  C_23
REMARK                            x       y       z     vdW  Elec       q    Type
REMARK                         _______ _______ _______ _____ _____    ______ ____
ROOT
ATOM      1  N   UNL     1       3.489   6.411  -0.839  0.00  0.00    -0.215 N 
ATOM      2  C   UNL     1       4.308   6.842   0.141  0.00  0.00    +0.251 C 
ATOM      3  O   UNL     1       4.069   6.885   1.329  0.00  0.00    -0.272 OA
ATOM      4  C   UNL     1       5.590   7.261  -0.550  0.00  0.00    +0.136 C 
ATOM      5  N   UNL     1       5.317   6.999  -1.974  0.00  0.00    -0.281 N 
ATOM      6  C   UNL     1       4.068   6.505  -2.042  0.00  0.00    +0.310 C 
ATOM      7  O   UNL     1       3.525   6.180  -3.080  0.00  0.00    -0.252 OA
ATOM      8  C   UNL     1       6.772   6.419  -0.065  0.00  0.00    +0.047 C 
ATOM      9  H   UNL     1       5.920   7.153  -2.718  0.00  0.00    +0.152 HD
ENDROOT
BRANCH   4  10
ATOM     10  C   UNL     1       5.856   8.726  -0.322  0.00  0.00    +0.003 A 
ATOM     11  C   UNL     1       5.851   9.605  -1.390  0.00  0.00    +0.007 A 
ATOM     12  C   UNL     1       6.095  10.949  -1.181  0.00  0.00    +0.000 A 
ATOM     13  C   UNL     1       6.345  11.416   0.096  0.00  0.00    +0.001 A 
ATOM     14  C   UNL     1       6.351  10.539   1.165  0.00  0.00    +0.020 A 
ATOM     15  C   UNL     1       6.101   9.194   0.957  0.00  0.00    +0.047 A 
ATOM     16 CL   UNL     1       6.101   8.093   2.299  0.00  0.00    -0.083 Cl
ENDBRANCH   4  10
BRANCH   1  17
ATOM     17  C   UNL     1       2.132   5.907  -0.616  0.00  0.00    +0.214 C 
BRANCH  17  19
ATOM     18  N   UNL     1       1.040   3.733  -0.168  0.00  0.00    -0.284 N 
ATOM     19  C   UNL     1       2.179   4.417  -0.395  0.00  0.00    +0.235 C 
ATOM     20  O   UNL     1       3.242   3.833  -0.422  0.00  0.00    -0.274 OA
ATOM     21  H   UNL     1       0.197   4.207  -0.094  0.00  0.00    +0.155 HD
BRANCH  18  24
ATOM     22  C   UNL     1      -1.174   2.238  -1.149  0.00  0.00    +0.048 C 
ATOM     23  C   UNL     1       0.013   1.572  -0.502  0.00  0.00    +0.001 A 
ATOM     24  C   UNL     1       1.074   2.340  -0.040  0.00  0.00    +0.039 A 
ATOM     25  C   UNL     1       2.169   1.723   0.550  0.00  0.00    +0.024 A 
ATOM     26  C   UNL     1       2.200   0.347   0.675  0.00  0.00    +0.004 A 
ATOM     27  C   UNL     1       1.142  -0.414   0.213  0.00  0.00    +0.033 A 
ATOM     28  C   UNL     1       0.050   0.198  -0.375  0.00  0.00    +0.131 A 
BRANCH  28  29
ATOM     29  N   UNL     1      -1.080  -0.621  -0.867  0.00  0.00    +0.057 N 
ATOM     30  O   UNL     1      -2.200  -0.145  -0.919  0.00  0.00    -0.126 OA
ATOM     31  O   UNL     1      -0.890  -1.771  -1.221  0.00  0.00    -0.126 OA
ENDBRANCH  28  29
ENDBRANCH  18  24
ENDBRANCH  17  19
ENDBRANCH   1  17
TORSDOF 5
