REMARK  Name = ZINC56205047
REMARK  11 active torsions:
REMARK  status: ('A' for Active; 'I' for Inactive)
REMARK    1  A    between atoms: C_1  and  C_2
REMARK    2  A    between atoms: C_2  and  N_3
REMARK    3  A    between atoms: C_7  and  C_9
REMARK    4  A    between atoms: C_9  and  C_11
REMARK    5  A    between atoms: C_9  and  N_12
REMARK    6  A    between atoms: N_12  and  C_13
REMARK    7  A    between atoms: C_16  and  N_20
REMARK    8  A    between atoms: C_17  and  C_19
REMARK    9  A    between atoms: N_20  and  S_21
REMARK   10  A    between atoms: S_21  and  C_24
REMARK   11  A    between atoms: C_24  and  C_25
REMARK                            x       y       z     vdW  Elec       q    Type
REMARK                         _______ _______ _______ _____ _____    ______ ____
ROOT
ATOM      1  N   UNL     1       3.010  -5.918  -3.782  0.00  0.00    -0.333 N 
ATOM      2  H   UNL     1       3.020  -6.476  -2.988  0.00  0.00    +0.147 HD
ENDROOT
BRANCH   1   3
ATOM      3  C   UNL     1       2.941  -6.506  -5.050  0.00  0.00    +0.028 A 
ATOM      4  C   UNL     1       2.932  -5.708  -6.187  0.00  0.00    +0.025 A 
ATOM      5  C   UNL     1       2.864  -6.288  -7.438  0.00  0.00    +0.026 A 
ATOM      6  C   UNL     1       2.803  -7.671  -7.559  0.00  0.00    +0.051 A 
ATOM      7  C   UNL     1       2.812  -8.469  -6.423  0.00  0.00    -0.026 A 
ATOM      8  C   UNL     1       2.886  -7.888  -5.172  0.00  0.00    +0.028 A 
ATOM      9  C   UNL     1       2.745  -9.969  -6.556  0.00  0.00    +0.046 C 
BRANCH   6  10
ATOM     10  N   UNL     1       2.733  -8.259  -8.828  0.00  0.00    -0.220 N 
ATOM     11  H   UNL     1       2.207  -9.063  -8.961  0.00  0.00    +0.173 HD
BRANCH  10  12
ATOM     12  S   UNL     1       3.548  -7.583 -10.101  0.00  0.00    +0.043 S 
ATOM     13  O   UNL     1       3.332  -8.475 -11.185  0.00  0.00    -0.155 OA
ATOM     14  O   UNL     1       3.079  -6.243 -10.161  0.00  0.00    -0.155 OA
BRANCH  12  15
ATOM     15  C   UNL     1       5.293  -7.612  -9.606  0.00  0.00    +0.185 C 
ATOM     16  C   UNL     1       6.149  -7.005 -10.718  0.00  0.00    +0.030 C 
ENDBRANCH  12  15
ENDBRANCH  10  12
ENDBRANCH   6  10
ENDBRANCH   1   3
BRANCH   1  17
ATOM     17  C   UNL     1       3.067  -4.460  -3.653  0.00  0.00    +0.154 C 
ATOM     18  C   UNL     1       4.518  -3.993  -3.788  0.00  0.00    +0.038 C 
BRANCH  17  23
ATOM     19  N   UNL     1       1.964  -1.084  -0.413  0.00  0.00    -0.299 N 
ATOM     20  C   UNL     1       2.008  -2.386  -0.756  0.00  0.00    +0.306 C 
ATOM     21  O   UNL     1       1.616  -3.233   0.023  0.00  0.00    -0.252 OA
ATOM     22  N   UNL     1       2.487  -2.750  -1.962  0.00  0.00    -0.239 N 
ATOM     23  C   UNL     1       2.532  -4.053  -2.304  0.00  0.00    +0.240 C 
ATOM     24  O   UNL     1       2.141  -4.898  -1.528  0.00  0.00    -0.273 OA
ATOM     25  H   UNL     1       2.277  -0.408  -1.035  0.00  0.00    +0.150 HD
ATOM     26  H   UNL     1       2.800  -2.074  -2.583  0.00  0.00    +0.159 HD
BRANCH  19  28
ATOM     27  C   UNL     1       1.503   0.835   1.032  0.00  0.00    +0.024 C 
ATOM     28  C   UNL     1       1.443  -0.688   0.898  0.00  0.00    +0.102 C 
ENDBRANCH  19  28
ENDBRANCH  17  23
ENDBRANCH   1  17
TORSDOF 7
