REMARK  Name = ZINC25735872
REMARK  7 active torsions:
REMARK  status: ('A' for Active; 'I' for Inactive)
REMARK    1  A    between atoms: C_1  and  C_2
REMARK    2  A    between atoms: C_2  and  C_3
REMARK    3  A    between atoms: C_7  and  C_26
REMARK    4  A    between atoms: C_8  and  N_9
REMARK    5  A    between atoms: N_9  and  C_10
REMARK    6  A    between atoms: C_10  and  C_11
REMARK    7  A    between atoms: N_13  and  N_14
REMARK                            x       y       z     vdW  Elec       q    Type
REMARK                         _______ _______ _______ _____ _____    ______ ____
ROOT
ATOM      1  C   UNL     1      -1.187   1.624   0.017  0.00  0.00    +0.247 C 
ATOM      2  O   UNL     1      -1.204   2.837   0.023  0.00  0.00    -0.273 OA
ATOM      3  N   UNL     1      -0.011   0.966   0.007  0.00  0.00    -0.222 N 
ATOM      4  H   UNL     1       0.004  -0.134   0.006  0.00  0.00    +0.174 HD
ENDROOT
BRANCH   3   5
ATOM      5  N   UNL     1       1.193   1.683  -0.000  0.00  0.00    -0.137 N 
ATOM      6  C   UNL     1       2.002   1.817   1.071  0.00  0.00    +0.263 C 
ATOM      7  O   UNL     1       1.834   1.358   2.180  0.00  0.00    -0.271 OA
ATOM      8  C   UNL     1       3.163   2.660   0.596  0.00  0.00    +0.114 C 
ATOM      9  C   UNL     1       4.469   1.881   0.716  0.00  0.00    +0.035 C 
ATOM     10  C   UNL     1       5.628   2.741   0.204  0.00  0.00    +0.003 C 
ATOM     11  C   UNL     1       5.706   4.030   1.025  0.00  0.00    +0.000 C 
ATOM     12  C   UNL     1       4.399   4.811   0.874  0.00  0.00    +0.003 C 
ATOM     13  C   UNL     1       3.235   3.960   1.389  0.00  0.00    +0.035 C 
ATOM     14  N   UNL     1       2.854   2.932  -0.814  0.00  0.00    -0.284 N 
ATOM     15  C   UNL     1       1.685   2.315  -1.073  0.00  0.00    +0.326 C 
ATOM     16  O   UNL     1       1.137   2.333  -2.157  0.00  0.00    -0.251 OA
ATOM     17  H   UNL     1       3.540   3.541  -1.420  0.00  0.00    +0.151 HD
ENDBRANCH   3   5
BRANCH   1  18
ATOM     18  C   UNL     1      -2.482   0.853   0.018  0.00  0.00    +0.199 C 
BRANCH  18  19
ATOM     19  N   UNL     1      -3.611   1.792   0.029  0.00  0.00    -0.335 N 
ATOM     20  H   UNL     1      -3.425   2.876   0.034  0.00  0.00    +0.147 HD
BRANCH  19  26
ATOM     21  C   UNL     1      -5.726   1.288   1.077  0.00  0.00    -0.027 A 
ATOM     22  C   UNL     1      -6.931   0.612   1.076  0.00  0.00    +0.005 A 
ATOM     23  C   UNL     1      -7.245  -0.242   0.035  0.00  0.00    +0.001 A 
ATOM     24  C   UNL     1      -6.355  -0.422  -1.008  0.00  0.00    +0.005 A 
ATOM     25  C   UNL     1      -5.151   0.255  -1.016  0.00  0.00    -0.029 A 
ATOM     26  C   UNL     1      -4.830   1.109   0.031  0.00  0.00    +0.034 A 
ATOM     27  C   UNL     1      -4.185   0.063  -2.157  0.00  0.00    +0.045 C 
BRANCH  21  29
ATOM     28  C   UNL     1      -5.769   3.649   1.833  0.00  0.00    +0.009 C 
ATOM     29  C   UNL     1      -5.384   2.218   2.213  0.00  0.00    +0.033 C 
ENDBRANCH  21  29
ENDBRANCH  19  26
ENDBRANCH  18  19
ENDBRANCH   1  18
TORSDOF 5
