REMARK  Name = ZINC39680432
REMARK  10 active torsions:
REMARK  status: ('A' for Active; 'I' for Inactive)
REMARK    1  A    between atoms: C_1  and  C_2
REMARK    2  A    between atoms: N_11  and  S_12
REMARK    3  A    between atoms: S_12  and  C_15
REMARK    4  A    between atoms: C_19  and  C_21
REMARK    5  A    between atoms: N_23  and  C_24
REMARK    6  A    between atoms: C_24  and  C_26
REMARK    7  A    between atoms: C_24  and  C_30
REMARK    8  A    between atoms: C_26  and  C_27
REMARK    9  A    between atoms: C_33  and  O_36
REMARK   10  A    between atoms: O_36  and  C_37
REMARK                            x       y       z     vdW  Elec       q    Type
REMARK                         _______ _______ _______ _____ _____    ______ ____
ROOT
ATOM      1  C   UNL     1       1.920   1.530   2.462  0.00  0.00    +0.109 A 
ATOM      2  C   UNL     1       1.919   2.794   1.897  0.00  0.00    +0.029 A 
ATOM      3  C   UNL     1       1.923   3.918   2.703  0.00  0.00    +0.003 A 
ATOM      4  C   UNL     1       1.930   3.786   4.077  0.00  0.00    +0.013 A 
ATOM      5  C   UNL     1       1.931   2.515   4.653  0.00  0.00    +0.039 A 
ATOM      6  C   UNL     1       1.921   1.384   3.834  0.00  0.00    +0.041 A 
ENDROOT
BRANCH   5   7
ATOM      7  C   UNL     1       1.939   2.366   6.123  0.00  0.00    +0.245 C 
ATOM      8  O   UNL     1       1.940   1.257   6.622  0.00  0.00    -0.270 OA
ATOM      9  N   UNL     1       1.944   3.459   6.912  0.00  0.00    -0.304 N 
ATOM     10  H   UNL     1       2.017   4.342   6.516  0.00  0.00    +0.150 HD
BRANCH   9  11
ATOM     11  C   UNL     1       1.842   3.315   8.366  0.00  0.00    +0.114 C 
BRANCH  11  12
ATOM     12  C   UNL     1       0.397   3.122   8.751  0.00  0.00    -0.026 A 
ATOM     13  C   UNL     1      -0.590   3.847   8.109  0.00  0.00    +0.009 A 
ATOM     14  C   UNL     1      -1.915   3.673   8.460  0.00  0.00    +0.046 A 
ATOM     15  C   UNL     1      -2.254   2.770   9.457  0.00  0.00    +0.120 A 
ATOM     16  C   UNL     1      -1.261   2.043  10.099  0.00  0.00    +0.046 A 
ATOM     17  C   UNL     1       0.061   2.217   9.740  0.00  0.00    +0.009 A 
BRANCH  15  18
ATOM     18  O   UNL     1      -3.556   2.597   9.805  0.00  0.00    -0.495 OA
ATOM     19  C   UNL     1      -3.832   1.650  10.839  0.00  0.00    +0.277 C 
ENDBRANCH  15  18
ENDBRANCH  11  12
BRANCH  11  20
ATOM     20  C   UNL     1       2.387   4.574   9.043  0.00  0.00    +0.152 C 
BRANCH  20  21
ATOM     21  C   UNL     1       3.864   4.691   8.771  0.00  0.00    +0.358 C 
ATOM     22  O   UNL     1       4.449   3.796   8.185  0.00  0.00    -0.246 OA
ATOM     23  O   UNL     1       4.475   5.681   9.138  0.00  0.00    -0.246 OA
ENDBRANCH  20  21
ENDBRANCH  11  20
ENDBRANCH   9  11
ENDBRANCH   5   7
BRANCH   1  24
ATOM     24  S   UNL     1       1.913   0.105   1.426  0.00  0.00    +0.075 S 
ATOM     25  O   UNL     1       2.461  -0.958   2.195  0.00  0.00    -0.150 OA
ATOM     26  O   UNL     1       2.465   0.506   0.180  0.00  0.00    -0.150 OA
BRANCH  24  36
ATOM     27  C   UNL     1      -0.584   1.747   0.101  0.00  0.00    +0.030 C 
ATOM     28  C   UNL     1      -0.472   0.223   0.024  0.00  0.00    +0.099 C 
ATOM     29  C   UNL     1      -1.857  -0.423   0.192  0.00  0.00    +0.061 C 
ATOM     30  C   UNL     1      -1.729  -1.276   1.434  0.00  0.00    -0.023 A 
ATOM     31  C   UNL     1      -2.646  -2.087   2.075  0.00  0.00    +0.005 A 
ATOM     32  C   UNL     1      -2.284  -2.778   3.216  0.00  0.00    +0.000 A 
ATOM     33  C   UNL     1      -1.001  -2.655   3.717  0.00  0.00    +0.002 A 
ATOM     34  C   UNL     1      -0.083  -1.847   3.081  0.00  0.00    +0.025 A 
ATOM     35  C   UNL     1      -0.441  -1.146   1.927  0.00  0.00    +0.055 A 
ATOM     36  N   UNL     1       0.330  -0.285   1.140  0.00  0.00    -0.200 N 
ENDBRANCH  24  36
ENDBRANCH   1  24
TORSDOF 8
