REMARK  Name = ZINC19853853
REMARK  7 active torsions:
REMARK  status: ('A' for Active; 'I' for Inactive)
REMARK    1  A    between atoms: C_1  and  C_2
REMARK    2  A    between atoms: C_2  and  C_3
REMARK    3  A    between atoms: C_2  and  C_4
REMARK    4  A    between atoms: C_6  and  C_9
REMARK    5  A    between atoms: N_11  and  C_12
REMARK    6  A    between atoms: N_11  and  C_13
REMARK    7  A    between atoms: C_13  and  C_14
REMARK                            x       y       z     vdW  Elec       q    Type
REMARK                         _______ _______ _______ _____ _____    ______ ____
ROOT
ATOM      1  C   UNL     1      -1.333  -0.311   4.369  0.00  0.00    +0.268 C 
ATOM      2  O   UNL     1      -0.420   0.409   4.019  0.00  0.00    -0.268 OA
ATOM      3  N   UNL     1      -2.594   0.165   4.398  0.00  0.00    -0.293 N 
ATOM      4  C   UNL     1      -3.678  -0.665   4.930  0.00  0.00    +0.133 C 
ENDROOT
BRANCH   1   7
ATOM      5  C   UNL     1      -0.079  -3.602   5.271  0.00  0.00    +0.141 A 
ATOM      6  C   UNL     1       0.213  -2.335   4.894  0.00  0.00    +0.081 A 
ATOM      7  C   UNL     1      -1.061  -1.715   4.764  0.00  0.00    +0.168 A 
ATOM      8  N   UNL     1      -1.945  -2.632   5.068  0.00  0.00    -0.073 NA
ATOM      9  O   UNL     1      -1.414  -3.683   5.345  0.00  0.00    -0.359 OA
BRANCH   5  11
ATOM     10  C   UNL     1       0.742  -5.182   6.997  0.00  0.00    +0.015 C 
ATOM     11  C   UNL     1       0.907  -4.706   5.552  0.00  0.00    +0.052 C 
ATOM     12  C   UNL     1       0.650  -5.874   4.598  0.00  0.00    +0.015 C 
ENDBRANCH   5  11
ENDBRANCH   1   7
BRANCH   3  13
ATOM     13  C   UNL     1      -2.880   1.512   3.898  0.00  0.00    +0.165 C 
BRANCH  13  14
ATOM     14  C   UNL     1      -3.353   1.427   2.470  0.00  0.00    +0.083 A 
ATOM     15  C   UNL     1      -2.569   1.622   1.335  0.00  0.00    -0.002 A 
ATOM     16  C   UNL     1      -3.362   1.461   0.245  0.00  0.00    +0.040 A 
ATOM     17  N   UNL     1      -4.601   1.174   0.676  0.00  0.00    -0.281 N 
ATOM     18  H   UNL     1      -5.410   1.002  -0.050  0.00  0.00    +0.189 HD
ATOM     19  N   UNL     1      -4.575   1.157   2.078  0.00  0.00    -0.177 NA
ATOM     20  C   UNL     1      -2.881   1.595  -1.179  0.00  0.00    +0.055 C 
ATOM     21  C   UNL     1      -1.532   2.326  -1.166  0.00  0.00    +0.006 C 
ATOM     22  C   UNL     1      -0.600   1.660  -0.151  0.00  0.00    +0.005 C 
ATOM     23  C   UNL     1      -1.099   1.951   1.270  0.00  0.00    +0.039 C 
ENDBRANCH  13  14
ENDBRANCH   3  13
TORSDOF 4
