REMARK  Name = ZINC40522135
REMARK  3 active torsions:
REMARK  status: ('A' for Active; 'I' for Inactive)
REMARK    1  A    between atoms: C_4  and  N_7
REMARK    2  A    between atoms: C_10  and  C_12
REMARK    3  A    between atoms: N_14  and  C_15
REMARK                            x       y       z     vdW  Elec       q    Type
REMARK                         _______ _______ _______ _____ _____    ______ ____
ROOT
ATOM      1  C   UNL     1       5.632  -3.588  -0.082  0.00  0.00    +0.266 C 
ATOM      2  O   UNL     1       6.838  -3.735  -0.093  0.00  0.00    -0.268 OA
ATOM      3  N   UNL     1       4.821  -4.664  -0.087  0.00  0.00    -0.299 N 
ATOM      4  H   UNL     1       3.859  -4.547  -0.078  0.00  0.00    +0.150 HD
ENDROOT
BRANCH   3   5
ATOM      5  C   UNL     1       5.395  -6.013  -0.104  0.00  0.00    +0.159 C 
ATOM      6  C   UNL     1       4.394  -7.005   0.493  0.00  0.00    +0.032 C 
ATOM      7  C   UNL     1       5.111  -8.225   1.044  0.00  0.00    +0.004 C 
ATOM      8  C   UNL     1       5.772  -9.079  -0.022  0.00  0.00    +0.019 C 
ATOM      9  C   UNL     1       6.934  -8.331  -0.678  0.00  0.00    +0.104 C 
ATOM     10  N   UNL     1       6.405  -7.517  -1.784  0.00  0.00    -0.314 N 
ATOM     11  C   UNL     1       5.688  -6.422  -1.533  0.00  0.00    +0.233 C 
ATOM     12  O   UNL     1       5.265  -5.753  -2.452  0.00  0.00    -0.274 OA
ATOM     13  H   UNL     1       6.583  -7.777  -2.702  0.00  0.00    +0.149 HD
ENDBRANCH   3   5
BRANCH   1  17
ATOM     14  N   UNL     1       3.623  -0.652  -0.037  0.00  0.00    -0.150 N 
ATOM     15  N   UNL     1       4.890  -0.053  -0.041  0.00  0.00    -0.155 NA
ATOM     16  C   UNL     1       5.776  -1.022  -0.058  0.00  0.00    +0.169 A 
ATOM     17  C   UNL     1       5.054  -2.228  -0.064  0.00  0.00    +0.167 A 
ATOM     18  N   UNL     1       3.767  -1.931  -0.046  0.00  0.00    -0.142 NA
BRANCH  14  22
ATOM     19  C   UNL     1      -0.017   1.379   0.010  0.00  0.00    +0.000 A 
ATOM     20  C   UNL     1       1.170   2.089   0.002  0.00  0.00    +0.002 A 
ATOM     21  C   UNL     1       2.377   1.419  -0.013  0.00  0.00    +0.029 A 
ATOM     22  C   UNL     1       2.400   0.031  -0.021  0.00  0.00    +0.086 A 
ATOM     23  C   UNL     1       1.207  -0.680  -0.013  0.00  0.00    +0.029 A 
ATOM     24  C   UNL     1       0.002  -0.004   0.002  0.00  0.00    +0.002 A 
ENDBRANCH  14  22
ENDBRANCH   1  17
TORSDOF 3
