REMARK  Name = ZINC63557169
REMARK  8 active torsions:
REMARK  status: ('A' for Active; 'I' for Inactive)
REMARK    1  A    between atoms: C_1  and  C_2
REMARK    2  A    between atoms: C_2  and  C_3
REMARK    3  A    between atoms: C_3  and  C_4
REMARK    4  A    between atoms: C_8  and  N_11
REMARK    5  A    between atoms: C_12  and  C_14
REMARK    6  A    between atoms: N_19  and  C_21
REMARK    7  A    between atoms: C_21  and  C_22
REMARK    8  A    between atoms: C_22  and  C_23
REMARK                            x       y       z     vdW  Elec       q    Type
REMARK                         _______ _______ _______ _____ _____    ______ ____
ROOT
ATOM      1  C   UNL     1       2.062  -7.740   1.092  0.00  0.00    +0.101 C 
ATOM      2  C   UNL     1       0.641  -7.827   1.697  0.00  0.00    +0.110 C 
ATOM      3  C   UNL     1       0.561  -9.231   2.254  0.00  0.00    +0.216 C 
ATOM      4  O   UNL     1      -0.466  -9.799   2.562  0.00  0.00    -0.276 OA
ATOM      5  N   UNL     1       1.793  -9.759   2.358  0.00  0.00    -0.300 N 
ATOM      6  C   UNL     1       2.819  -8.809   1.910  0.00  0.00    +0.121 C 
ENDROOT
BRANCH   1   8
ATOM      7  N   UNL     1       2.095  -5.293   0.730  0.00  0.00    -0.284 N 
ATOM      8  C   UNL     1       2.657  -6.373   1.309  0.00  0.00    +0.220 C 
ATOM      9  O   UNL     1       3.642  -6.244   2.006  0.00  0.00    -0.275 OA
ATOM     10  H   UNL     1       1.308  -5.396   0.173  0.00  0.00    +0.152 HD
BRANCH   7  14
ATOM     11  C   UNL     1       0.763  -2.041   1.233  0.00  0.00    +0.188 C 
ATOM     12  N   UNL     1       1.482  -2.577   2.411  0.00  0.00    -0.175 NA
ATOM     13  N   UNL     1       2.334  -3.434   2.281  0.00  0.00    -0.157 NA
ATOM     14  C   UNL     1       2.674  -3.964   0.941  0.00  0.00    +0.275 C 
ATOM     15  S   UNL     1       1.845  -2.692  -0.116  0.00  0.00    -0.085 S 
BRANCH  11  16
ATOM     16  C   UNL     1       0.742  -0.511   1.242  0.00  0.00    +0.039 C 
BRANCH  16  18
ATOM     17  C   UNL     1      -0.019   1.526   0.010  0.00  0.00    +0.004 C 
ATOM     18  C   UNL     1       0.002  -0.004   0.002  0.00  0.00    -0.000 C 
ENDBRANCH  16  18
ENDBRANCH  11  16
ENDBRANCH   7  14
ENDBRANCH   1   8
BRANCH   5  19
ATOM     19  C   UNL     1       2.076 -11.108   2.854  0.00  0.00    +0.112 C 
BRANCH  19  20
ATOM     20  C   UNL     1       2.067 -12.094   1.684  0.00  0.00    +0.052 C 
BRANCH  20  21
ATOM     21  C   UNL     1       2.358 -13.481   2.194  0.00  0.00    -0.040 C 
ATOM     22  C   UNL     1       1.454 -14.432   2.525  0.00  0.00    +0.000 A 
ATOM     23  C   UNL     1      -0.013 -14.457   2.509  0.00  0.00    +0.030 A 
ATOM     24  C   UNL     1      -0.654 -15.580   2.908  0.00  0.00    +0.042 A 
ATOM     25  C   UNL     1       0.047 -16.718   3.334  0.00  0.00    +0.022 A 
ATOM     26  C   UNL     1       1.395 -16.770   3.376  0.00  0.00    +0.027 A 
ATOM     27  C   UNL     1       2.171 -15.646   2.979  0.00  0.00    +0.043 A 
ATOM     28  N   UNL     1       3.466 -15.452   2.931  0.00  0.00    -0.380 N 
ATOM     29  C   UNL     1       3.719 -14.095   2.434  0.00  0.00    +0.144 C 
ATOM     30 CL   UNL     1      -2.390 -15.614   2.891  0.00  0.00    -0.084 Cl
ATOM     31  H   UNL     1       4.145 -16.100   3.179  0.00  0.00    +0.160 HD
ENDBRANCH  20  21
ENDBRANCH  19  20
ENDBRANCH   5  19
TORSDOF 7
