REMARK  Name = ZINC12372704
REMARK  8 active torsions:
REMARK  status: ('A' for Active; 'I' for Inactive)
REMARK    1  A    between atoms: C_1  and  C_2
REMARK    2  A    between atoms: C_3  and  C_28
REMARK    3  A    between atoms: C_5  and  N_9
REMARK    4  A    between atoms: C_6  and  C_7
REMARK    5  A    between atoms: C_10  and  C_12
REMARK    6  A    between atoms: C_12  and  S_13
REMARK    7  A    between atoms: S_13  and  C_14
REMARK    8  A    between atoms: C_15  and  C_26
REMARK                            x       y       z     vdW  Elec       q    Type
REMARK                         _______ _______ _______ _____ _____    ______ ____
ROOT
ATOM      1  S   UNL     1       0.110  -7.121   2.108  0.00  0.00    -0.107 S 
ENDROOT
BRANCH   1   2
ATOM      2  C   UNL     1       0.131  -8.212   3.491  0.00  0.00    +0.066 A 
ATOM      3  C   UNL     1       0.156  -9.601   3.475  0.00  0.00    +0.096 A 
ATOM      4  C   UNL     1       0.171 -10.285   4.757  0.00  0.00    +0.079 A 
ATOM      5  C   UNL     1       0.158  -9.417   5.846  0.00  0.00    +0.085 A 
ATOM      6  S   UNL     1       0.134  -7.802   5.118  0.00  0.00    -0.075 S 
ATOM      7  C   UNL     1       0.169  -9.886   7.160  0.00  0.00    +0.200 A 
ATOM      8  C   UNL     1       0.193 -11.256   7.380  0.00  0.00    +0.122 A 
ATOM      9  C   UNL     1       0.206 -12.117   6.280  0.00  0.00    +0.253 A 
ATOM     10  O   UNL     1       0.228 -13.324   6.468  0.00  0.00    -0.268 OA
ATOM     11  N   UNL     1       0.195 -11.649   5.024  0.00  0.00    -0.320 N 
ATOM     12  H   UNL     1       0.205 -12.276   4.284  0.00  0.00    +0.169 HD
ATOM     13  O   UNL     1       0.156  -9.020   8.202  0.00  0.00    -0.286 OA
BRANCH   3  14
ATOM     14  C   UNL     1       0.166 -10.331   2.243  0.00  0.00    +0.103 C 
ATOM     15  N   UNL     1       0.173 -10.909   1.266  0.00  0.00    -0.191 NA
ENDBRANCH   3  14
ENDBRANCH   1   2
BRANCH   1  16
ATOM     16  C   UNL     1       0.091  -5.467   2.853  0.00  0.00    +0.171 C 
BRANCH  16  18
ATOM     17  N   UNL     1       0.055  -3.116   2.084  0.00  0.00    -0.278 N 
ATOM     18  C   UNL     1       0.072  -4.426   1.764  0.00  0.00    +0.228 C 
ATOM     19  O   UNL     1       0.071  -4.765   0.600  0.00  0.00    -0.275 OA
ATOM     20  H   UNL     1       0.056  -2.845   3.015  0.00  0.00    +0.155 HD
BRANCH  17  25
ATOM     21  C   UNL     1      -0.018   1.503   0.010  0.00  0.00    +0.046 C 
ATOM     22  C   UNL     1       0.002  -0.004   0.002  0.00  0.00    -0.021 A 
ATOM     23  C   UNL     1       0.006  -0.713  -1.143  0.00  0.00    -0.007 A 
ATOM     24  S   UNL     1       0.033  -2.401  -0.579  0.00  0.00    -0.077 S 
ATOM     25  C   UNL     1       0.037  -2.157   1.081  0.00  0.00    +0.090 A 
ATOM     26  C   UNL     1       0.025  -0.778   1.222  0.00  0.00    +0.083 A 
ATOM     27  C   UNL     1      -0.008  -0.201  -2.560  0.00  0.00    +0.052 C 
BRANCH  26  28
ATOM     28  C   UNL     1       0.028  -0.152   2.510  0.00  0.00    +0.102 C 
ATOM     29  N   UNL     1       0.031   0.344   3.532  0.00  0.00    -0.191 NA
ENDBRANCH  26  28
ENDBRANCH  17  25
ENDBRANCH  16  18
ENDBRANCH   1  16
TORSDOF 6
