REMARK  Name = ZINC37278337
REMARK  5 active torsions:
REMARK  status: ('A' for Active; 'I' for Inactive)
REMARK    1  A    between atoms: C_1  and  C_2
REMARK    2  A    between atoms: C_6  and  C_8
REMARK    3  A    between atoms: C_8  and  C_10
REMARK    4  A    between atoms: C_8  and  N_11
REMARK    5  A    between atoms: C_18  and  N_22
REMARK                            x       y       z     vdW  Elec       q    Type
REMARK                         _______ _______ _______ _____ _____    ______ ____
ROOT
ATOM      1  N   UNL     1       0.861  -4.057   2.335  0.00  0.00    -0.227 N 
ATOM      2  C   UNL     1       0.661  -4.990   1.386  0.00  0.00    +0.254 C 
ATOM      3  O   UNL     1      -0.204  -4.961   0.534  0.00  0.00    -0.270 OA
ATOM      4  C   UNL     1       1.671  -6.055   1.556  0.00  0.00    +0.051 A 
ATOM      5  C   UNL     1       1.950  -7.237   0.892  0.00  0.00    +0.014 A 
ATOM      6  C   UNL     1       3.002  -8.038   1.316  0.00  0.00    +0.003 A 
ATOM      7  C   UNL     1       3.776  -7.668   2.395  0.00  0.00    +0.023 A 
ATOM      8  C   UNL     1       3.511  -6.479   3.079  0.00  0.00    +0.038 A 
ATOM      9  C   UNL     1       2.457  -5.668   2.662  0.00  0.00    +0.070 A 
ATOM     10  C   UNL     1       1.903  -4.382   3.120  0.00  0.00    +0.256 C 
ATOM     11  O   UNL     1       2.318  -3.725   4.055  0.00  0.00    -0.269 OA
ENDROOT
BRANCH   8  12
ATOM     12  N   UNL     1       4.290  -6.109   4.165  0.00  0.00    -0.357 N 
ATOM     13  H   UNL     1       5.023  -6.676   4.452  0.00  0.00    +0.142 HD
ATOM     14  H   UNL     1       4.103  -5.283   4.637  0.00  0.00    +0.142 HD
ENDBRANCH   8  12
BRANCH   1  15
ATOM     15  C   UNL     1       0.054  -2.845   2.489  0.00  0.00    +0.112 C 
ATOM     16  C   UNL     1      -1.407  -3.231   2.729  0.00  0.00    +0.033 C 
BRANCH  15  22
ATOM     17  C   UNL     1      -2.060   0.208  -0.867  0.00  0.00    +0.044 C 
ATOM     18  C   UNL     1      -0.858  -0.553  -0.370  0.00  0.00    -0.050 A 
ATOM     19  C   UNL     1       0.336  -0.488  -1.063  0.00  0.00    +0.003 A 
ATOM     20  C   UNL     1       1.438  -1.186  -0.608  0.00  0.00    +0.001 A 
ATOM     21  C   UNL     1       1.347  -1.949   0.542  0.00  0.00    +0.005 A 
ATOM     22  C   UNL     1       0.153  -2.013   1.236  0.00  0.00    -0.027 A 
ATOM     23  C   UNL     1      -0.948  -1.311   0.782  0.00  0.00    +0.008 A 
ENDBRANCH  15  22
ENDBRANCH   1  15
TORSDOF 3
