REMARK  Name = ZINC39940567
REMARK  10 active torsions:
REMARK  status: ('A' for Active; 'I' for Inactive)
REMARK    1  A    between atoms: C_1  and  C_2
REMARK    2  A    between atoms: C_2  and  C_3
REMARK    3  A    between atoms: C_2  and  C_4
REMARK    4  A    between atoms: C_2  and  O_5
REMARK    5  A    between atoms: O_5  and  C_6
REMARK    6  A    between atoms: C_15  and  C_27
REMARK    7  A    between atoms: C_17  and  C_23
REMARK    8  A    between atoms: C_17  and  C_25
REMARK    9  A    between atoms: C_18  and  N_22
REMARK   10  A    between atoms: C_19  and  C_20
REMARK                            x       y       z     vdW  Elec       q    Type
REMARK                         _______ _______ _______ _____ _____    ______ ____
ROOT
ATOM      1  C   UNL     1       2.063   0.032  -1.146  0.00  0.00    +0.404 C 
ATOM      2  O   UNL     1       2.610   0.791  -0.371  0.00  0.00    -0.226 OA
ATOM      3  N   UNL     1       2.727  -0.421  -2.228  0.00  0.00    -0.263 N 
ATOM      4  C   UNL     1       2.091  -1.338  -3.192  0.00  0.00    +0.138 C 
ATOM      5  C   UNL     1       2.181  -0.685  -4.548  0.00  0.00    -0.003 C 
ATOM      6  C   UNL     1       3.154   0.156  -4.838  0.00  0.00    -0.026 C 
ATOM      7  C   UNL     1       4.265   0.520  -3.900  0.00  0.00    +0.048 C 
ATOM      8  C   UNL     1       4.110  -0.017  -2.501  0.00  0.00    +0.120 C 
ATOM      9  C   UNL     1       4.429   2.041  -3.915  0.00  0.00    +0.069 C 
ATOM     10  C   UNL     1       4.850   2.478  -5.319  0.00  0.00    +0.188 C 
ATOM     11  C   UNL     1       3.957   1.896  -6.372  0.00  0.00    +0.054 C 
ATOM     12  C   UNL     1       3.169   0.810  -6.175  0.00  0.00    +0.074 C 
ENDROOT
BRANCH   9  13
ATOM     13  C   UNL     1       3.119   2.693  -3.552  0.00  0.00    -0.022 A 
ATOM     14  C   UNL     1       2.047   2.623  -4.422  0.00  0.00    +0.005 A 
ATOM     15  C   UNL     1       0.847   3.221  -4.090  0.00  0.00    +0.000 A 
ATOM     16  C   UNL     1       0.717   3.890  -2.887  0.00  0.00    +0.001 A 
ATOM     17  C   UNL     1       1.788   3.961  -2.016  0.00  0.00    +0.020 A 
ATOM     18  C   UNL     1       2.989   3.358  -2.346  0.00  0.00    +0.045 A 
ATOM     19 CL   UNL     1       4.332   3.441  -1.250  0.00  0.00    -0.083 Cl
ENDBRANCH   9  13
BRANCH  11  20
ATOM     20  N   UNL     1       3.935   2.494  -7.601  0.00  0.00    -0.358 N 
ATOM     21  H   UNL     1       4.488   3.272  -7.772  0.00  0.00    +0.142 HD
ATOM     22  H   UNL     1       3.367   2.139  -8.303  0.00  0.00    +0.142 HD
ENDBRANCH  11  20
BRANCH  12  23
ATOM     23  C   UNL     1       2.361   0.298  -7.240  0.00  0.00    +0.101 C 
ATOM     24  N   UNL     1       1.720  -0.108  -8.086  0.00  0.00    -0.191 NA
ENDBRANCH  12  23
BRANCH  10  25
ATOM     25  C   UNL     1       4.796   3.947  -5.401  0.00  0.00    +0.091 C 
ATOM     26  N   UNL     1       4.754   5.080  -5.464  0.00  0.00    -0.194 NA
ENDBRANCH  10  25
BRANCH  10  27
ATOM     27  C   UNL     1       6.233   2.036  -5.564  0.00  0.00    +0.091 C 
ATOM     28  N   UNL     1       7.300   1.695  -5.753  0.00  0.00    -0.194 NA
ENDBRANCH  10  27
BRANCH   1  29
ATOM     29  O   UNL     1       0.793  -0.358  -0.924  0.00  0.00    -0.445 OA
BRANCH  29  31
ATOM     30  C   UNL     1       0.104   1.688   0.163  0.00  0.00    +0.055 C 
ATOM     31  C   UNL     1       0.151   0.161   0.242  0.00  0.00    +0.107 C 
ATOM     32  C   UNL     1       0.934  -0.262   1.487  0.00  0.00    +0.055 C 
ATOM     33  C   UNL     1      -1.275  -0.389   0.326  0.00  0.00    +0.055 C 
ENDBRANCH  29  31
ENDBRANCH   1  29
TORSDOF 7
