REMARK  Name = ZINC39237570
REMARK  4 active torsions:
REMARK  status: ('A' for Active; 'I' for Inactive)
REMARK    1  A    between atoms: C_1  and  C_2
REMARK    2  A    between atoms: C_4  and  C_32
REMARK    3  A    between atoms: C_16  and  C_19
REMARK    4  A    between atoms: C_24  and  C_25
REMARK                            x       y       z     vdW  Elec       q    Type
REMARK                         _______ _______ _______ _____ _____    ______ ____
ROOT
ATOM      1  C   UNL     1      -0.352   2.183  -0.363  0.00  0.00    +0.044 C 
ATOM      2  C   UNL     1      -0.301   0.703  -0.639  0.00  0.00    -0.041 A 
ATOM      3  C   UNL     1      -0.410   0.234  -1.936  0.00  0.00    +0.036 A 
ATOM      4  C   UNL     1      -0.361  -1.123  -2.184  0.00  0.00    +0.145 A 
ATOM      5  N   UNL     1      -0.187  -1.969  -1.185  0.00  0.00    -0.236 NA
ATOM      6  C   UNL     1      -0.065  -1.562   0.059  0.00  0.00    +0.103 A 
ATOM      7  C   UNL     1      -0.140  -0.201   0.411  0.00  0.00    +0.006 A 
ATOM      8  C   UNL     1      -0.086   0.055   1.869  0.00  0.00    +0.110 C 
ATOM      9  C   UNL     1       0.730  -1.030   2.627  0.00  0.00    +0.160 C 
ATOM     10  S   UNL     1       0.238  -2.456   1.574  0.00  0.00    -0.091 S 
ATOM     11  C   UNL     1       0.050  -1.076   3.980  0.00  0.00    +0.229 C 
ATOM     12  O   UNL     1      -0.188  -2.110   4.567  0.00  0.00    -0.274 OA
ATOM     13  N   UNL     1      -0.267   0.151   4.476  0.00  0.00    -0.298 N 
ATOM     14  C   UNL     1       0.154   1.395   3.852  0.00  0.00    +0.156 C 
ATOM     15  N   UNL     1       0.237   1.350   2.395  0.00  0.00    -0.289 NA
ATOM     16  H   UNL     1      -0.800   0.199   5.284  0.00  0.00    +0.150 HD
ATOM     17  H   UNL     1       1.149   1.650   2.082  0.00  0.00    +0.124 HD
ENDROOT
BRANCH  14  18
ATOM     18  C   UNL     1      -0.834   2.493   4.249  0.00  0.00    +0.118 C 
ATOM     19  C   UNL     1      -2.205   2.215   3.666  0.00  0.00    +0.120 C 
ATOM     20  N   UNL     1      -2.470   3.209   2.882  0.00  0.00    -0.161 NA
ATOM     21  N   UNL     1      -1.445   4.149   2.848  0.00  0.00    -0.153 NA
ATOM     22  C   UNL     1      -0.443   3.817   3.621  0.00  0.00    +0.082 C 
BRANCH  22  23
ATOM     23  C   UNL     1       0.804   4.567   3.836  0.00  0.00    -0.001 A 
ATOM     24  C   UNL     1       1.077   5.709   3.075  0.00  0.00    +0.011 A 
ATOM     25  C   UNL     1       2.247   6.408   3.283  0.00  0.00    +0.020 A 
ATOM     26  C   UNL     1       3.152   5.981   4.241  0.00  0.00    +0.041 A 
ATOM     27  C   UNL     1       2.888   4.851   4.997  0.00  0.00    +0.020 A 
ATOM     28  C   UNL     1       1.720   4.146   4.805  0.00  0.00    +0.011 A 
ATOM     29 CL   UNL     1       4.623   6.867   4.495  0.00  0.00    -0.084 Cl
ENDBRANCH  22  23
ENDBRANCH  14  18
BRANCH   4  30
ATOM     30  C   UNL     1      -0.507  -1.638  -3.593  0.00  0.00    +0.434 C 
ATOM     31  F   UNL     1       0.754  -1.721  -4.192  0.00  0.00    -0.164 F 
ATOM     32  F   UNL     1      -1.095  -2.908  -3.567  0.00  0.00    -0.164 F 
ATOM     33  F   UNL     1      -1.317  -0.765  -4.327  0.00  0.00    -0.164 F 
ENDBRANCH   4  30
TORSDOF 3
