REMARK  Name = ZINC49979479
REMARK  6 active torsions:
REMARK  status: ('A' for Active; 'I' for Inactive)
REMARK    1  A    between atoms: C_1  and  C_2
REMARK    2  A    between atoms: C_4  and  C_18
REMARK    3  A    between atoms: C_6  and  N_8
REMARK    4  A    between atoms: N_8  and  C_9
REMARK    5  A    between atoms: N_8  and  C_10
REMARK    6  A    between atoms: C_13  and  C_16
REMARK                            x       y       z     vdW  Elec       q    Type
REMARK                         _______ _______ _______ _____ _____    ______ ____
ROOT
ATOM      1  N   UNL     1       0.051  -2.796   2.390  0.00  0.00    -0.306 N 
ATOM      2  C   UNL     1       0.147  -4.258   2.366  0.00  0.00    +0.132 C 
ENDROOT
BRANCH   1   3
ATOM      3  C   UNL     1       0.159  -2.076   3.662  0.00  0.00    +0.255 C 
ATOM      4  C   UNL     1       1.570  -2.163   4.210  0.00  0.00    +0.114 C 
ATOM      5  N   UNL     1       1.455  -2.782   5.358  0.00  0.00    -0.333 N 
ATOM      6  C   UNL     1       0.186  -3.105   5.630  0.00  0.00    +0.103 C 
ATOM      7  N   UNL     1      -0.648  -2.736   4.704  0.00  0.00    -0.241 NA
ATOM      8  C   UNL     1      -0.235  -3.825   6.885  0.00  0.00    +0.085 C 
ATOM      9  N   UNL     1       2.710  -1.698   3.633  0.00  0.00    -0.345 N 
ATOM     10  H   UNL     1       2.671  -1.252   2.772  0.00  0.00    +0.143 HD
ATOM     11  H   UNL     1       3.562  -1.813   4.082  0.00  0.00    +0.143 HD
ATOM     12  H   UNL     1       2.202  -2.983   5.943  0.00  0.00    +0.168 HD
ENDBRANCH   1   3
BRANCH   1  18
ATOM     13  C   UNL     1      -0.308  -2.781  -2.511  0.00  0.00    +0.044 C 
ATOM     14  C   UNL     1      -0.321  -2.057  -1.190  0.00  0.00    -0.048 A 
ATOM     15  C   UNL     1      -0.526  -0.689  -1.154  0.00  0.00    +0.006 A 
ATOM     16  C   UNL     1      -0.539  -0.020   0.056  0.00  0.00    -0.048 A 
ATOM     17  C   UNL     1      -0.348  -0.716   1.234  0.00  0.00    +0.026 A 
ATOM     18  C   UNL     1      -0.142  -2.090   1.201  0.00  0.00    +0.032 A 
ATOM     19  C   UNL     1      -0.135  -2.759  -0.016  0.00  0.00    +0.026 A 
ATOM     20  C   UNL     1      -0.761   1.470   0.090  0.00  0.00    +0.044 C 
ENDBRANCH   1  18
TORSDOF 2
