REMARK  Name = ZINC67491270
REMARK  5 active torsions:
REMARK  status: ('A' for Active; 'I' for Inactive)
REMARK    1  A    between atoms: C_1  and  C_2
REMARK    2  A    between atoms: C_2  and  C_12
REMARK    3  A    between atoms: C_12  and  C_13
REMARK    4  A    between atoms: N_15  and  C_16
REMARK    5  A    between atoms: C_16  and  C_17
REMARK                            x       y       z     vdW  Elec       q    Type
REMARK                         _______ _______ _______ _____ _____    ______ ____
ROOT
ATOM      1  C   UNL     1      -2.102  -0.061  -1.310  0.00  0.00    +0.216 C 
ATOM      2  O   UNL     1      -1.506   0.669  -2.073  0.00  0.00    -0.276 OA
ATOM      3  N   UNL     1      -3.372  -0.424  -1.577  0.00  0.00    -0.310 N 
ATOM      4  H   UNL     1      -3.848  -1.008  -0.966  0.00  0.00    +0.149 HD
ENDROOT
BRANCH   1   5
ATOM      5  C   UNL     1      -1.422  -0.561  -0.061  0.00  0.00    +0.131 C 
BRANCH   5   7
ATOM      6  C   UNL     1      -0.019   1.526   0.010  0.00  0.00    +0.042 C 
ATOM      7  C   UNL     1       0.002  -0.004   0.002  0.00  0.00    +0.123 C 
ATOM      8  C   UNL     1       0.833  -0.521  -1.155  0.00  0.00    +0.262 C 
ATOM      9  O   UNL     1       0.627  -0.340  -2.340  0.00  0.00    -0.271 OA
ATOM     10  N   UNL     1       1.827  -1.206  -0.618  0.00  0.00    -0.164 NA
ATOM     11  C   UNL     1       1.781  -1.222   0.719  0.00  0.00    +0.119 C 
ATOM     12  N   UNL     1       0.709  -0.520   1.185  0.00  0.00    -0.278 N 
ATOM     13  C   UNL     1       0.466  -0.403   2.510  0.00  0.00    +0.077 C 
ATOM     14  C   UNL     1       1.287  -0.986   3.418  0.00  0.00    +0.015 C 
ATOM     15  C   UNL     1       2.398  -1.715   2.982  0.00  0.00    +0.004 C 
ATOM     16  C   UNL     1       2.646  -1.835   1.645  0.00  0.00    +0.041 C 
ENDBRANCH   5   7
ENDBRANCH   1   5
BRANCH   3  17
ATOM     17  C   UNL     1      -4.033   0.062  -2.791  0.00  0.00    +0.161 C 
BRANCH  17  18
ATOM     18  C   UNL     1      -5.435  -0.486  -2.853  0.00  0.00    +0.083 A 
ATOM     19  C   UNL     1      -5.819  -1.690  -3.450  0.00  0.00    -0.002 A 
ATOM     20  C   UNL     1      -7.158  -1.821  -3.300  0.00  0.00    +0.040 A 
ATOM     21  N   UNL     1      -7.604  -0.746  -2.622  0.00  0.00    -0.281 N 
ATOM     22  H   UNL     1      -8.523  -0.575  -2.363  0.00  0.00    +0.189 HD
ATOM     23  N   UNL     1      -6.504   0.080  -2.352  0.00  0.00    -0.177 NA
ATOM     24  C   UNL     1      -7.991  -2.965  -3.819  0.00  0.00    +0.055 C 
ATOM     25  C   UNL     1      -7.313  -4.289  -3.456  0.00  0.00    +0.006 C 
ATOM     26  C   UNL     1      -6.338  -4.687  -4.561  0.00  0.00    +0.001 C 
ATOM     27  C   UNL     1      -5.706  -3.449  -5.192  0.00  0.00    +0.005 C 
ATOM     28  C   UNL     1      -4.910  -2.680  -4.135  0.00  0.00    +0.039 C 
ENDBRANCH  17  18
ENDBRANCH   3  17
TORSDOF 4
