REMARK  Name = ZINC63221850
REMARK  10 active torsions:
REMARK  status: ('A' for Active; 'I' for Inactive)
REMARK    1  A    between atoms: C_1  and  C_2
REMARK    2  A    between atoms: C_2  and  O_3
REMARK    3  A    between atoms: O_3  and  C_4
REMARK    4  A    between atoms: C_7  and  N_10
REMARK    5  A    between atoms: C_11  and  C_32
REMARK    6  A    between atoms: C_14  and  S_15
REMARK    7  A    between atoms: S_15  and  C_16
REMARK    8  A    between atoms: C_16  and  C_18
REMARK    9  A    between atoms: C_16  and  C_19
REMARK   10  A    between atoms: C_29  and  C_31
REMARK                            x       y       z     vdW  Elec       q    Type
REMARK                         _______ _______ _______ _____ _____    ______ ____
ROOT
ATOM      1  N   UNL     1       1.084  -5.848  -2.068  0.00  0.00    -0.270 N 
ATOM      2  C   UNL     1       2.250  -6.585  -1.944  0.00  0.00    +0.168 A 
ATOM      3  N   UNL     1       1.901  -7.864  -1.950  0.00  0.00    -0.128 NA
ATOM      4  N   UNL     1       0.626  -7.966  -2.067  0.00  0.00    -0.122 NA
ATOM      5  C   UNL     1       0.076  -6.763  -2.138  0.00  0.00    +0.197 A 
ENDROOT
BRANCH   2   6
ATOM      6  C   UNL     1       3.553  -6.075  -1.832  0.00  0.00    +0.025 C 
ATOM      7  C   UNL     1       4.736  -6.803  -1.712  0.00  0.00    +0.006 A 
ATOM      8  C   UNL     1       5.003  -8.188  -1.666  0.00  0.00    +0.010 A 
ATOM      9  C   UNL     1       6.283  -8.624  -1.543  0.00  0.00    +0.001 A 
ATOM     10  C   UNL     1       7.354  -7.732  -1.458  0.00  0.00    +0.002 A 
ATOM     11  C   UNL     1       7.172  -6.389  -1.496  0.00  0.00    +0.026 A 
ATOM     12  C   UNL     1       5.862  -5.859  -1.624  0.00  0.00    +0.043 A 
ATOM     13  N   UNL     1       5.427  -4.615  -1.684  0.00  0.00    -0.380 N 
ATOM     14  C   UNL     1       3.968  -4.620  -1.824  0.00  0.00    +0.152 C 
ATOM     15  H   UNL     1       5.985  -3.823  -1.645  0.00  0.00    +0.160 HD
ENDBRANCH   2   6
BRANCH   1  19
ATOM     16  C   UNL     1       0.730  -1.694  -2.186  0.00  0.00    +0.121 A 
ATOM     17  C   UNL     1       0.188  -2.406  -1.125  0.00  0.00    +0.047 A 
ATOM     18  C   UNL     1       0.305  -3.781  -1.086  0.00  0.00    +0.030 A 
ATOM     19  C   UNL     1       0.964  -4.452  -2.108  0.00  0.00    +0.051 A 
ATOM     20  C   UNL     1       1.506  -3.738  -3.169  0.00  0.00    +0.030 A 
ATOM     21  C   UNL     1       1.384  -2.363  -3.209  0.00  0.00    +0.047 A 
BRANCH  16  22
ATOM     22  O   UNL     1       0.614  -0.340  -2.224  0.00  0.00    -0.492 OA
BRANCH  22  24
ATOM     23  C   UNL     1      -0.102   1.798  -1.353  0.00  0.00    +0.048 C 
ATOM     24  C   UNL     1      -0.072   0.284  -1.137  0.00  0.00    +0.225 C 
ENDBRANCH  22  24
ENDBRANCH  16  22
ENDBRANCH   1  19
BRANCH   5  25
ATOM     25  S   UNL     1      -1.643  -6.410  -2.296  0.00  0.00    -0.073 S 
BRANCH  25  26
ATOM     26  C   UNL     1      -2.426  -8.046  -2.331  0.00  0.00    +0.137 C 
ATOM     27  C   UNL     1      -1.984  -8.796  -3.589  0.00  0.00    +0.029 C 
BRANCH  26  28
ATOM     28  C   UNL     1      -3.924  -7.886  -2.342  0.00  0.00    +0.233 C 
ATOM     29  O   UNL     1      -4.417  -6.799  -2.558  0.00  0.00    -0.274 OA
ATOM     30  N   UNL     1      -4.717  -8.951  -2.112  0.00  0.00    -0.267 N 
ATOM     31  C   UNL     1      -4.264 -10.233  -1.787  0.00  0.00    +0.040 A 
ATOM     32  C   UNL     1      -2.955 -10.696  -1.630  0.00  0.00    +0.024 A 
ATOM     33  C   UNL     1      -2.719 -12.014  -1.303  0.00  0.00    +0.002 A 
ATOM     34  C   UNL     1      -3.776 -12.888  -1.128  0.00  0.00    +0.000 A 
ATOM     35  C   UNL     1      -5.074 -12.438  -1.281  0.00  0.00    +0.005 A 
ATOM     36  C   UNL     1      -5.316 -11.117  -1.609  0.00  0.00    -0.024 A 
ATOM     37  C   UNL     1      -6.613 -10.373  -1.833  0.00  0.00    +0.059 C 
ATOM     38  C   UNL     1      -6.182  -8.934  -2.161  0.00  0.00    +0.083 C 
ATOM     39  C   UNL     1      -6.736  -7.961  -1.119  0.00  0.00    +0.029 C 
ENDBRANCH  26  28
ENDBRANCH  25  26
ENDBRANCH   5  25
TORSDOF 7
