REMARK  Name = ZINC66558256
REMARK  5 active torsions:
REMARK  status: ('A' for Active; 'I' for Inactive)
REMARK    1  A    between atoms: C_1  and  C_2
REMARK    2  A    between atoms: C_6  and  C_7
REMARK    3  A    between atoms: N_9  and  N_10
REMARK    4  A    between atoms: C_11  and  C_13
REMARK    5  A    between atoms: C_13  and  N_14
REMARK                            x       y       z     vdW  Elec       q    Type
REMARK                         _______ _______ _______ _____ _____    ______ ____
ROOT
ATOM      1  N   UNL     1       0.059  -0.732   4.900  0.00  0.00    -0.233 N 
ATOM      2  C   UNL     1       0.081  -1.625   5.909  0.00  0.00    +0.247 C 
ATOM      3  O   UNL     1       0.094  -2.813   5.667  0.00  0.00    -0.273 OA
ATOM      4  H   UNL     1       0.048   0.219   5.094  0.00  0.00    +0.173 HD
ENDROOT
BRANCH   1   7
ATOM      5  C   UNL     1       0.031  -0.283   2.562  0.00  0.00    +0.267 C 
ATOM      6  O   UNL     1       0.017   0.910   2.805  0.00  0.00    -0.268 OA
ATOM      7  N   UNL     1       0.052  -1.176   3.571  0.00  0.00    -0.230 N 
ATOM      8  H   UNL     1       0.063  -2.126   3.378  0.00  0.00    +0.173 HD
BRANCH   5  14
ATOM      9  C   UNL     1      -0.018   1.503   0.010  0.00  0.00    +0.045 C 
ATOM     10  C   UNL     1       0.002  -0.004   0.002  0.00  0.00    -0.031 A 
ATOM     11  C   UNL     1       0.007  -0.729  -1.166  0.00  0.00    +0.011 A 
ATOM     12  C   UNL     1       0.025  -2.083  -1.101  0.00  0.00    +0.046 A 
ATOM     13  S   UNL     1       0.037  -2.416   0.545  0.00  0.00    -0.092 S 
ATOM     14  C   UNL     1       0.023  -0.748   1.172  0.00  0.00    +0.078 A 
ENDBRANCH   5  14
ENDBRANCH   1   7
BRANCH   2  15
ATOM     15  C   UNL     1       0.088  -1.147   7.338  0.00  0.00    +0.215 C 
BRANCH  15  16
ATOM     16  N   UNL     1       0.112  -2.302   8.239  0.00  0.00    -0.215 N 
ATOM     17  C   UNL     1      -0.992  -2.918   8.713  0.00  0.00    +0.247 C 
ATOM     18  O   UNL     1      -2.148  -2.635   8.484  0.00  0.00    -0.273 OA
ATOM     19  C   UNL     1      -0.480  -4.035   9.587  0.00  0.00    +0.113 C 
ATOM     20  C   UNL     1      -0.959  -5.400   9.074  0.00  0.00    +0.035 C 
ATOM     21  C   UNL     1      -1.184  -6.227  10.366  0.00  0.00    +0.003 C 
ATOM     22  C   UNL     1      -1.757  -5.178  11.352  0.00  0.00    +0.003 C 
ATOM     23  C   UNL     1      -0.975  -3.885  11.027  0.00  0.00    +0.035 C 
ATOM     24  N   UNL     1       0.978  -3.923   9.508  0.00  0.00    -0.285 N 
ATOM     25  C   UNL     1       1.232  -2.881   8.691  0.00  0.00    +0.310 C 
ATOM     26  O   UNL     1       2.352  -2.507   8.400  0.00  0.00    -0.252 OA
ATOM     27  H   UNL     1       1.630  -4.487   9.953  0.00  0.00    +0.151 HD
ENDBRANCH  15  16
ENDBRANCH   2  15
TORSDOF 4
