REMARK  Name = ZINC18019501
REMARK  2 active torsions:
REMARK  status: ('A' for Active; 'I' for Inactive)
REMARK    1  A    between atoms: C_6  and  C_7
REMARK    2  A    between atoms: N_9  and  C_10
REMARK                            x       y       z     vdW  Elec       q    Type
REMARK                         _______ _______ _______ _____ _____    ______ ____
ROOT
ATOM      1  C   UNL     1      -1.179  -0.901   0.594  0.00  0.00    +0.248 C 
ATOM      2  O   UNL     1      -2.161  -0.437   1.140  0.00  0.00    -0.270 OA
ATOM      3  N   UNL     1      -1.244  -2.111   0.003  0.00  0.00    -0.281 N 
ATOM      4  H   UNL     1      -0.482  -2.451  -0.490  0.00  0.00    +0.155 HD
ENDROOT
BRANCH   3   5
ATOM      5  C   UNL     1      -2.413  -2.875   0.101  0.00  0.00    +0.036 A 
ATOM      6  C   UNL     1      -3.654  -2.248   0.105  0.00  0.00    +0.025 A 
ATOM      7  C   UNL     1      -4.810  -2.996   0.202  0.00  0.00    +0.029 A 
ATOM      8  C   UNL     1      -4.734  -4.378   0.295  0.00  0.00    +0.067 A 
ATOM      9  C   UNL     1      -3.490  -5.011   0.291  0.00  0.00    +0.069 A 
ATOM     10  C   UNL     1      -2.331  -4.257   0.188  0.00  0.00    +0.051 A 
ATOM     11  N   UNL     1      -3.733  -6.378   0.395  0.00  0.00    -0.306 N 
ATOM     12  H   UNL     1      -3.058  -7.074   0.418  0.00  0.00    +0.170 HD
ATOM     13  C   UNL     1      -5.064  -6.570   0.460  0.00  0.00    +0.325 A 
ATOM     14  O   UNL     1      -5.612  -7.652   0.557  0.00  0.00    -0.247 OA
ATOM     15  N   UNL     1      -5.696  -5.383   0.402  0.00  0.00    -0.306 N 
ATOM     16  H   UNL     1      -6.656  -5.249   0.430  0.00  0.00    +0.170 HD
ENDBRANCH   3   5
BRANCH   1  22
ATOM     17  C   UNL     1       0.158   1.114   1.190  0.00  0.00    +0.014 A 
ATOM     18  C   UNL     1       1.342   1.821   1.173  0.00  0.00    +0.022 A 
ATOM     19  C   UNL     1       2.459   1.292   0.551  0.00  0.00    +0.059 A 
ATOM     20  C   UNL     1       2.396   0.048  -0.059  0.00  0.00    +0.060 A 
ATOM     21  C   UNL     1       1.217  -0.669  -0.048  0.00  0.00    +0.034 A 
ATOM     22  C   UNL     1       0.087  -0.139   0.579  0.00  0.00    +0.038 A 
ATOM     23 CL   UNL     1       3.801  -0.608  -0.838  0.00  0.00    -0.082 Cl
ATOM     24 CL   UNL     1       3.946   2.188   0.533  0.00  0.00    -0.082 Cl
ENDBRANCH   1  22
TORSDOF 2
