REMARK  Name = ZINC02354007
REMARK  6 active torsions:
REMARK  status: ('A' for Active; 'I' for Inactive)
REMARK    1  A    between atoms: C_7  and  C_17
REMARK    2  A    between atoms: C_7  and  O_30
REMARK    3  A    between atoms: N_10  and  C_11
REMARK    4  A    between atoms: C_11  and  N_57
REMARK    5  A    between atoms: C_17  and  C_18
REMARK    6  A    between atoms: C_18  and  C_20
REMARK                            x       y       z     vdW  Elec       q    Type
REMARK                         _______ _______ _______ _____ _____    ______ ____
ROOT
ATOM      1  C   UNL     1      -4.471  10.361  -5.544  0.00  0.00    +0.000 A 
ATOM      2  C   UNL     1      -3.569  11.392  -5.735  0.00  0.00    +0.002 A 
ATOM      3  C   UNL     1      -2.563  11.617  -4.819  0.00  0.00    +0.024 A 
ATOM      4  C   UNL     1      -2.447  10.805  -3.693  0.00  0.00    +0.041 A 
ATOM      5  C   UNL     1      -3.358   9.772  -3.513  0.00  0.00    +0.014 A 
ATOM      6  C   UNL     1      -4.362   9.550  -4.428  0.00  0.00    +0.009 A 
ATOM      7  C   UNL     1      -2.974   9.085  -2.222  0.00  0.00    +0.175 C 
ATOM      8  C   UNL     1      -1.766   9.860  -1.739  0.00  0.00    +0.255 C 
ATOM      9  O   UNL     1      -1.131   9.647  -0.728  0.00  0.00    -0.272 OA
ATOM     10  N   UNL     1      -1.531  10.829  -2.640  0.00  0.00    -0.285 N 
ENDROOT
BRANCH   7  11
ATOM     11  O   UNL     1      -4.039   9.170  -1.273  0.00  0.00    -0.374 OA
ATOM     12  H   UNL     1      -3.835   8.771  -0.416  0.00  0.00    +0.211 HD
ENDBRANCH   7  11
BRANCH  10  13
ATOM     13  C   UNL     1      -0.439  11.799  -2.530  0.00  0.00    +0.038 C 
BRANCH  13  19
ATOM     14  C   UNL     1      -1.663  13.883  -2.664  0.00  0.00    -0.077 C 
ATOM     15  C   UNL     1      -2.255  15.024  -1.832  0.00  0.00    -0.019 C 
ATOM     16  C   UNL     1      -1.121  15.784  -1.139  0.00  0.00    -0.004 C 
ATOM     17  C   UNL     1      -0.318  14.810  -0.272  0.00  0.00    -0.019 C 
ATOM     18  C   UNL     1       0.217  13.677  -1.150  0.00  0.00    -0.077 C 
ATOM     19  N   UNL     1      -0.924  12.969  -1.768  0.00  0.00    +0.390 N 
ATOM     20  H   UNL     1      -1.556  12.645  -1.027  0.00  0.00    -0.080 HD
ENDBRANCH  13  19
ENDBRANCH  10  13
BRANCH   7  21
ATOM     21  C   UNL     1      -2.604   7.624  -2.482  0.00  0.00    +0.129 C 
BRANCH  21  22
ATOM     22  C   UNL     1      -2.225   6.963  -1.182  0.00  0.00    +0.167 C 
ATOM     23  O   UNL     1      -2.248   7.598  -0.149  0.00  0.00    -0.292 OA
BRANCH  22  24
ATOM     24  C   UNL     1      -1.827   5.549  -1.166  0.00  0.00    +0.021 A 
ATOM     25  C   UNL     1      -1.798   4.813  -2.356  0.00  0.00    +0.015 A 
ATOM     26  C   UNL     1      -1.426   3.489  -2.337  0.00  0.00    +0.050 A 
ATOM     27  C   UNL     1      -1.077   2.876  -1.138  0.00  0.00    +0.162 A 
ATOM     28  C   UNL     1      -1.101   3.602   0.051  0.00  0.00    +0.163 A 
ATOM     29  C   UNL     1      -1.475   4.932   0.041  0.00  0.00    +0.060 A 
ATOM     30  O   UNL     1      -0.754   3.018   1.231  0.00  0.00    -0.485 OA
ATOM     31  C   UNL     1      -0.743   1.587   1.262  0.00  0.00    +0.270 C 
ATOM     32  C   UNL     1      -0.013   1.086   0.008  0.00  0.00    +0.270 C 
ATOM     33  O   UNL     1      -0.716   1.565  -1.143  0.00  0.00    -0.485 OA
ENDBRANCH  22  24
ENDBRANCH  21  22
ENDBRANCH   7  21
TORSDOF 6
