REMARK  Name = ZINC60331367
REMARK  8 active torsions:
REMARK  status: ('A' for Active; 'I' for Inactive)
REMARK    1  A    between atoms: C_1  and  C_2
REMARK    2  A    between atoms: C_2  and  N_3
REMARK    3  A    between atoms: N_6  and  C_9
REMARK    4  A    between atoms: C_14  and  C_15
REMARK    5  A    between atoms: C_15  and  C_17
REMARK    6  A    between atoms: C_15  and  N_18
REMARK    7  A    between atoms: C_19  and  C_21
REMARK    8  A    between atoms: C_21  and  C_22
REMARK                            x       y       z     vdW  Elec       q    Type
REMARK                         _______ _______ _______ _____ _____    ______ ____
ROOT
ATOM      1  C   UNL     1      -6.275  -2.442  -0.118  0.00  0.00    +0.102 C 
ATOM      2  C   UNL     1      -5.960  -3.215   1.164  0.00  0.00    +0.033 C 
ENDROOT
BRANCH   1   8
ATOM      3  C   UNL     1      -4.372  -2.894  -1.689  0.00  0.00    +0.035 A 
ATOM      4  C   UNL     1      -3.822  -3.564  -2.774  0.00  0.00    +0.026 A 
ATOM      5  C   UNL     1      -4.576  -4.492  -3.466  0.00  0.00    +0.040 A 
ATOM      6  C   UNL     1      -5.880  -4.754  -3.079  0.00  0.00    +0.124 A 
ATOM      7  C   UNL     1      -6.430  -4.087  -1.998  0.00  0.00    +0.045 A 
ATOM      8  C   UNL     1      -5.678  -3.162  -1.299  0.00  0.00    -0.004 A 
ATOM      9  F   UNL     1      -6.616  -5.661  -3.758  0.00  0.00    -0.205 F 
BRANCH   3  13
ATOM     10  N   UNL     1      -1.444  -0.350  -0.254  0.00  0.00    +0.382 N 
ATOM     11  C   UNL     1      -2.163  -0.064  -1.502  0.00  0.00    -0.060 C 
ATOM     12  C   UNL     1      -3.615  -0.536  -1.373  0.00  0.00    +0.086 C 
ATOM     13  N   UNL     1      -3.611  -1.956  -0.987  0.00  0.00    -0.333 N 
ATOM     14  C   UNL     1      -2.782  -2.359   0.160  0.00  0.00    +0.086 C 
ATOM     15  C   UNL     1      -1.369  -1.800  -0.041  0.00  0.00    -0.060 C 
ATOM     16  H   UNL     1      -1.932   0.078   0.518  0.00  0.00    -0.082 HD
BRANCH  10  18
ATOM     17  C   UNL     1      -0.157   1.727  -0.434  0.00  0.00    -0.017 C 
ATOM     18  C   UNL     1      -0.084   0.201  -0.337  0.00  0.00    -0.082 C 
ENDBRANCH  10  18
ENDBRANCH   3  13
ENDBRANCH   1   8
BRANCH   1  19
ATOM     19  N   UNL     1      -7.727  -2.347  -0.287  0.00  0.00    -0.308 N 
ATOM     20  C   UNL     1      -8.408  -1.337   0.288  0.00  0.00    +0.218 C 
ATOM     21  O   UNL     1      -7.819  -0.505   0.945  0.00  0.00    -0.275 OA
ATOM     22  H   UNL     1      -8.198  -3.012  -0.813  0.00  0.00    +0.149 HD
BRANCH  20  23
ATOM     23  C   UNL     1      -9.902  -1.239   0.114  0.00  0.00    +0.131 C 
BRANCH  23  24
ATOM     24  C   UNL     1     -10.416  -0.029   0.851  0.00  0.00    -0.034 A 
ATOM     25  C   UNL     1     -10.804  -0.140   2.173  0.00  0.00    +0.053 A 
ATOM     26  C   UNL     1     -11.277   0.972   2.854  0.00  0.00    +0.164 A 
ATOM     27  C   UNL     1     -11.358   2.197   2.205  0.00  0.00    +0.180 A 
ATOM     28  C   UNL     1     -10.969   2.302   0.877  0.00  0.00    +0.086 A 
ATOM     29  C   UNL     1     -10.494   1.190   0.205  0.00  0.00    +0.028 A 
ATOM     30 CL   UNL     1     -11.073   3.830   0.060  0.00  0.00    -0.080 Cl
ATOM     31  O   UNL     1     -11.812   3.303   2.857  0.00  0.00    -0.483 OA
ATOM     32  C   UNL     1     -12.540   3.081   4.069  0.00  0.00    +0.270 C 
ATOM     33  C   UNL     1     -11.770   2.056   4.912  0.00  0.00    +0.270 C 
ATOM     34  O   UNL     1     -11.658   0.846   4.155  0.00  0.00    -0.485 OA
ENDBRANCH  23  24
ENDBRANCH  20  23
ENDBRANCH   1  19
TORSDOF 6
