REMARK  Name = ZINC00326364
REMARK  6 active torsions:
REMARK  status: ('A' for Active; 'I' for Inactive)
REMARK    1  A    between atoms: C_1  and  C_2
REMARK    2  A    between atoms: C_2  and  C_4
REMARK    3  A    between atoms: C_2  and  N_18
REMARK    4  A    between atoms: C_10  and  C_12
REMARK    5  A    between atoms: N_21  and  C_22
REMARK    6  A    between atoms: N_21  and  C_23
REMARK                            x       y       z     vdW  Elec       q    Type
REMARK                         _______ _______ _______ _____ _____    ______ ____
ROOT
ATOM      1  C   UNL     1       3.788   3.124   0.014  0.00  0.00    +0.239 C 
ATOM      2  O   UNL     1       4.355   2.052   0.007  0.00  0.00    -0.273 OA
ATOM      3  N   UNL     1       2.441   3.174   0.033  0.00  0.00    -0.262 N 
ATOM      4  C   UNL     1       1.703   1.997   0.045  0.00  0.00    +0.188 A 
ATOM      5  N   UNL     1       2.120   0.741   0.041  0.00  0.00    -0.125 NA
ATOM      6  N   UNL     1       1.314  -0.231   0.053  0.00  0.00    -0.140 NA
ATOM      7  C   UNL     1       0.004  -0.016   0.072  0.00  0.00    +0.134 A 
ATOM      8  S   UNL     1      -0.022   1.773   0.069  0.00  0.00    -0.030 S 
ATOM      9  H   UNL     1       1.988   4.031   0.038  0.00  0.00    +0.157 HD
ENDROOT
BRANCH   7  10
ATOM     10  C   UNL     1      -1.115  -0.981   0.089  0.00  0.00    +0.009 A 
ATOM     11  C   UNL     1      -2.434  -0.525   0.114  0.00  0.00    +0.010 A 
ATOM     12  C   UNL     1      -3.474  -1.431   0.124  0.00  0.00    +0.001 A 
ATOM     13  C   UNL     1      -3.212  -2.789   0.123  0.00  0.00    +0.000 A 
ATOM     14  C   UNL     1      -1.907  -3.248   0.105  0.00  0.00    +0.001 A 
ATOM     15  C   UNL     1      -0.858  -2.353   0.088  0.00  0.00    +0.010 A 
ENDBRANCH   7  10
BRANCH   1  17
ATOM     16  C   UNL     1       4.232   5.214  -1.245  0.00  0.00    +0.038 C 
ATOM     17  C   UNL     1       4.589   4.400   0.001  0.00  0.00    +0.158 C 
BRANCH  17  18
ATOM     18  N   UNL     1       6.018   4.080  -0.019  0.00  0.00    -0.288 N 
ATOM     19  C   UNL     1       6.914   4.965   0.460  0.00  0.00    +0.302 C 
ATOM     20  O   UNL     1       6.546   6.065   0.825  0.00  0.00    -0.253 OA
ATOM     21  N   UNL     1       8.218   4.631   0.535  0.00  0.00    -0.292 N 
ATOM     22  C   UNL     1       9.174   5.547   1.162  0.00  0.00    +0.133 C 
ATOM     23  C   UNL     1       8.679   3.353  -0.011  0.00  0.00    +0.133 C 
ATOM     24  H   UNL     1       6.320   3.230  -0.377  0.00  0.00    +0.151 HD
ENDBRANCH  17  18
ENDBRANCH   1  17
TORSDOF 3
