REMARK  Name = ZINC39543257
REMARK  6 active torsions:
REMARK  status: ('A' for Active; 'I' for Inactive)
REMARK    1  A    between atoms: C_1  and  C_2
REMARK    2  A    between atoms: C_7  and  C_9
REMARK    3  A    between atoms: C_7  and  C_10
REMARK    4  A    between atoms: N_13  and  C_17
REMARK    5  A    between atoms: C_17  and  C_18
REMARK    6  A    between atoms: C_24  and  C_26
REMARK                            x       y       z     vdW  Elec       q    Type
REMARK                         _______ _______ _______ _____ _____    ______ ____
ROOT
ATOM      1  C   UNL     1       0.458  -3.241  -4.606  0.00  0.00    +0.213 C 
ENDROOT
BRANCH   1  13
ATOM      2  C   UNL     1      -0.061   1.649   0.498  0.00  0.00    +0.007 C 
ATOM      3  C   UNL     1      -0.046   0.132   0.299  0.00  0.00    -0.011 C 
ATOM      4  C   UNL     1       0.612  -0.200  -1.042  0.00  0.00    +0.038 C 
ATOM      5  C   UNL     1       0.646  -1.713  -1.232  0.00  0.00    +0.113 C 
ATOM      6  C   UNL     1       1.417  -2.381  -0.099  0.00  0.00    +0.041 C 
ATOM      7  C   UNL     1       0.756  -2.041   1.240  0.00  0.00    -0.032 C 
ATOM      8  C   UNL     1       0.748  -0.523   1.431  0.00  0.00    +0.009 C 
ATOM      9  C   UNL     1       1.542  -2.695   2.378  0.00  0.00    +0.011 C 
ATOM     10  C   UNL     1      -0.682  -2.564   1.246  0.00  0.00    +0.011 C 
ATOM     11  C   UNL     1       1.261  -2.063  -2.567  0.00  0.00    +0.247 C 
ATOM     12  O   UNL     1       2.385  -1.813  -2.946  0.00  0.00    -0.273 OA
ATOM     13  N   UNL     1       0.296  -2.715  -3.249  0.00  0.00    -0.215 N 
ATOM     14  C   UNL     1      -0.829  -2.819  -2.531  0.00  0.00    +0.310 C 
ATOM     15  O   UNL     1      -1.838  -3.366  -2.931  0.00  0.00    -0.252 OA
ATOM     16  N   UNL     1      -0.717  -2.252  -1.315  0.00  0.00    -0.285 N 
ATOM     17  H   UNL     1      -1.402  -2.208  -0.629  0.00  0.00    +0.151 HD
ENDBRANCH   1  13
BRANCH   1  18
ATOM     18  C   UNL     1       0.970  -4.657  -4.537  0.00  0.00    +0.234 C 
ATOM     19  O   UNL     1       1.179  -5.175  -3.461  0.00  0.00    -0.274 OA
ATOM     20  N   UNL     1       1.197  -5.348  -5.673  0.00  0.00    -0.293 N 
ATOM     21  C   UNL     1       0.993  -4.840  -7.042  0.00  0.00    +0.108 C 
ATOM     22  C   UNL     1       1.933  -5.697  -7.926  0.00  0.00    +0.021 C 
ATOM     23  C   UNL     1       1.819  -7.087  -7.246  0.00  0.00    +0.029 C 
ATOM     24  C   UNL     1       1.693  -6.729  -5.751  0.00  0.00    +0.106 C 
BRANCH  24  25
ATOM     25  C   UNL     1       0.717  -7.663  -5.083  0.00  0.00    -0.023 A 
ATOM     26  C   UNL     1      -0.642  -7.477  -5.253  0.00  0.00    +0.009 A 
ATOM     27  C   UNL     1      -1.540  -8.331  -4.641  0.00  0.00    +0.050 A 
ATOM     28  C   UNL     1      -1.080  -9.377  -3.855  0.00  0.00    +0.162 A 
ATOM     29  C   UNL     1       0.286  -9.565  -3.686  0.00  0.00    +0.162 A 
ATOM     30  C   UNL     1       1.183  -8.707  -4.306  0.00  0.00    +0.055 A 
ATOM     31  O   UNL     1       0.760 -10.590  -2.925  0.00  0.00    -0.485 OA
ATOM     32  C   UNL     1      -0.168 -11.205  -2.025  0.00  0.00    +0.270 C 
ATOM     33  C   UNL     1      -1.476 -11.463  -2.785  0.00  0.00    +0.270 C 
ATOM     34  O   UNL     1      -1.977 -10.207  -3.255  0.00  0.00    -0.485 OA
ENDBRANCH  24  25
ENDBRANCH   1  18
TORSDOF 3
