REMARK  Name = ZINC45670000
REMARK  5 active torsions:
REMARK  status: ('A' for Active; 'I' for Inactive)
REMARK    1  A    between atoms: C_7  and  S_16
REMARK    2  A    between atoms: C_9  and  C_11
REMARK    3  A    between atoms: S_16  and  C_17
REMARK    4  A    between atoms: C_17  and  C_18
REMARK    5  A    between atoms: C_22  and  C_31
REMARK                            x       y       z     vdW  Elec       q    Type
REMARK                         _______ _______ _______ _____ _____    ______ ____
ROOT
ATOM      1  C   UNL     1       0.508  -4.832  -0.045  0.00  0.00    +0.172 C 
ENDROOT
BRANCH   1   2
ATOM      2  C   UNL     1      -0.642  -5.806  -0.021  0.00  0.00    +0.230 C 
ATOM      3  O   UNL     1      -1.779  -5.398   0.099  0.00  0.00    -0.274 OA
ATOM      4  N   UNL     1      -0.408  -7.128  -0.131  0.00  0.00    -0.264 N 
ATOM      5  C   UNL     1       0.965  -7.661  -0.144  0.00  0.00    +0.168 C 
ATOM      6  C   UNL     1       0.980  -8.925   0.728  0.00  0.00    +0.276 C 
ATOM      7  O   UNL     1       0.033  -9.858   0.203  0.00  0.00    -0.476 OA
ATOM      8  C   UNL     1      -1.220  -9.407  -0.065  0.00  0.00    +0.143 A 
ATOM      9  C   UNL     1      -1.466  -8.048  -0.233  0.00  0.00    +0.078 A 
ATOM     10  C   UNL     1      -2.750  -7.603  -0.504  0.00  0.00    +0.027 A 
ATOM     11  C   UNL     1      -3.788  -8.511  -0.600  0.00  0.00    +0.002 A 
ATOM     12  C   UNL     1      -3.546  -9.861  -0.425  0.00  0.00    +0.004 A 
ATOM     13  C   UNL     1      -2.268 -10.310  -0.167  0.00  0.00    +0.047 A 
BRANCH   6  14
ATOM     14  C   UNL     1       2.358  -9.534   0.711  0.00  0.00    +0.253 C 
ATOM     15  O   UNL     1       2.531 -10.628   0.216  0.00  0.00    -0.272 OA
ATOM     16  N   UNL     1       3.398  -8.864   1.244  0.00  0.00    -0.326 N 
ATOM     17  H   UNL     1       3.260  -7.989   1.639  0.00  0.00    +0.145 HD
ATOM     18  H   UNL     1       4.285  -9.256   1.233  0.00  0.00    +0.145 HD
ENDBRANCH   6  14
ENDBRANCH   1   2
BRANCH   1  19
ATOM     19  S   UNL     1      -0.135  -3.136  -0.042  0.00  0.00    -0.096 S 
BRANCH  19  26
ATOM     20  C   UNL     1      -0.025   1.362  -0.063  0.00  0.00    +0.001 A 
ATOM     21  C   UNL     1       1.158   2.094  -0.087  0.00  0.00    +0.002 A 
ATOM     22  C   UNL     1       2.370   1.470  -0.105  0.00  0.00    +0.028 A 
ATOM     23  C   UNL     1       2.428   0.070  -0.101  0.00  0.00    +0.076 A 
ATOM     24  C   UNL     1       1.221  -0.672  -0.076  0.00  0.00    +0.032 A 
ATOM     25  C   UNL     1      -0.005  -0.003  -0.058  0.00  0.00    +0.012 A 
ATOM     26  C   UNL     1       1.313  -2.132  -0.071  0.00  0.00    +0.109 A 
ATOM     27  N   UNL     1       2.524  -2.673  -0.090  0.00  0.00    -0.218 NA
ATOM     28  C   UNL     1       3.620  -1.915  -0.112  0.00  0.00    +0.197 A 
ATOM     29  N   UNL     1       3.591  -0.594  -0.118  0.00  0.00    -0.225 NA
BRANCH  28  30
ATOM     30  C   UNL     1       4.933  -2.586  -0.132  0.00  0.00    +0.172 A 
ATOM     31  C   UNL     1       5.144  -3.931  -0.135  0.00  0.00    +0.053 A 
ATOM     32  C   UNL     1       6.538  -4.123  -0.156  0.00  0.00    +0.042 A 
ATOM     33  C   UNL     1       7.105  -2.900  -0.165  0.00  0.00    +0.196 A 
ATOM     34  O   UNL     1       6.134  -1.974  -0.156  0.00  0.00    -0.460 OA
ENDBRANCH  28  30
ENDBRANCH  19  26
ENDBRANCH   1  19
TORSDOF 5
