REMARK  Name = ZINC12893017
REMARK  10 active torsions:
REMARK  status: ('A' for Active; 'I' for Inactive)
REMARK    1  A    between atoms: C_1  and  O_2
REMARK    2  A    between atoms: O_2  and  C_3
REMARK    3  A    between atoms: C_9  and  C_13
REMARK    4  A    between atoms: N_20  and  C_23
REMARK    5  A    between atoms: C_23  and  C_24
REMARK    6  A    between atoms: C_24  and  C_25
REMARK    7  A    between atoms: C_28  and  O_33
REMARK    8  A    between atoms: C_29  and  O_31
REMARK    9  A    between atoms: O_31  and  C_32
REMARK   10  A    between atoms: O_33  and  C_34
REMARK                            x       y       z     vdW  Elec       q    Type
REMARK                         _______ _______ _______ _____ _____    ______ ____
ROOT
ATOM      1  C   UNL     1      -2.510   1.291   0.021  0.00  0.00    +0.028 C 
ATOM      2  C   UNL     1      -1.289   1.919   0.226  0.00  0.00    +0.100 C 
ATOM      3  C   UNL     1      -1.210   3.289   0.763  0.00  0.00    +0.257 C 
ATOM      4  O   UNL     1      -2.218   3.909   1.042  0.00  0.00    -0.270 OA
ATOM      5  N   UNL     1       0.011   3.838   0.931  0.00  0.00    -0.236 N 
ATOM      6  C   UNL     1       1.130   3.166   0.627  0.00  0.00    +0.315 C 
ATOM      7  O   UNL     1       2.198   3.717   0.803  0.00  0.00    -0.252 OA
ATOM      8  N   UNL     1       1.132   1.917   0.141  0.00  0.00    -0.221 N 
ATOM      9  C   UNL     1      -0.016   1.243  -0.078  0.00  0.00    +0.259 C 
ATOM     10  O   UNL     1      -0.000   0.109  -0.520  0.00  0.00    -0.269 OA
ATOM     11  H   UNL     1       0.080   4.741   1.280  0.00  0.00    +0.159 HD
ENDROOT
BRANCH   1  18
ATOM     12  C   UNL     1      -6.578   0.380   2.088  0.00  0.00    +0.121 A 
ATOM     13  C   UNL     1      -7.479   1.429   1.930  0.00  0.00    +0.047 A 
ATOM     14  C   UNL     1      -7.118   2.564   1.238  0.00  0.00    +0.030 A 
ATOM     15  C   UNL     1      -5.848   2.664   0.678  0.00  0.00    +0.047 A 
ATOM     16  C   UNL     1      -4.941   1.605   0.834  0.00  0.00    +0.010 A 
ATOM     17  C   UNL     1      -5.310   0.466   1.542  0.00  0.00    +0.056 A 
ATOM     18  C   UNL     1      -3.708   2.024   0.137  0.00  0.00    +0.001 A 
ATOM     19  C   UNL     1      -3.969   3.279  -0.385  0.00  0.00    +0.091 A 
ATOM     20  N   UNL     1      -5.222   3.648  -0.065  0.00  0.00    -0.360 N 
ATOM     21  H   UNL     1      -5.631   4.490  -0.321  0.00  0.00    +0.165 HD
BRANCH  12  23
ATOM     22  C   UNL     1      -8.269  -0.752   3.318  0.00  0.00    +0.277 C 
ATOM     23  O   UNL     1      -6.945  -0.731   2.781  0.00  0.00    -0.495 OA
ENDBRANCH  12  23
ENDBRANCH   1  18
BRANCH   8  24
ATOM     24  C   UNL     1       2.411   1.268  -0.160  0.00  0.00    +0.123 C 
BRANCH  24  25
ATOM     25  C   UNL     1       2.806   1.565  -1.608  0.00  0.00    +0.055 C 
BRANCH  25  26
ATOM     26  C   UNL     1       4.122   0.898  -1.917  0.00  0.00    -0.042 A 
ATOM     27  C   UNL     1       4.141  -0.390  -2.419  0.00  0.00    +0.007 A 
ATOM     28  C   UNL     1       5.345  -1.006  -2.704  0.00  0.00    +0.049 A 
ATOM     29  C   UNL     1       6.536  -0.332  -2.488  0.00  0.00    +0.161 A 
ATOM     30  C   UNL     1       6.517   0.964  -1.982  0.00  0.00    +0.162 A 
ATOM     31  C   UNL     1       5.306   1.578  -1.703  0.00  0.00    +0.053 A 
BRANCH  30  32
ATOM     32  O   UNL     1       7.684   1.629  -1.767  0.00  0.00    -0.491 OA
ATOM     33  C   UNL     1       7.587   2.957  -1.246  0.00  0.00    +0.277 C 
ENDBRANCH  30  32
BRANCH  29  34
ATOM     34  O   UNL     1       7.722  -0.936  -2.769  0.00  0.00    -0.491 OA
ATOM     35  C   UNL     1       7.665  -2.267  -3.286  0.00  0.00    +0.277 C 
ENDBRANCH  29  34
ENDBRANCH  25  26
ENDBRANCH  24  25
ENDBRANCH   8  24
TORSDOF 7
