REMARK  Name = ZINC21977610
REMARK  7 active torsions:
REMARK  status: ('A' for Active; 'I' for Inactive)
REMARK    1  A    between atoms: C_1  and  N_2
REMARK    2  A    between atoms: C_12  and  C_13
REMARK    3  A    between atoms: C_13  and  C_14
REMARK    4  A    between atoms: C_14  and  C_15
REMARK    5  A    between atoms: C_15  and  O_17
REMARK    6  A    between atoms: O_17  and  C_18
REMARK    7  A    between atoms: C_18  and  C_19
REMARK                            x       y       z     vdW  Elec       q    Type
REMARK                         _______ _______ _______ _____ _____    ______ ____
ROOT
ATOM      1  C   UNL     1       2.040   3.057   6.511  0.00  0.00    +0.308 C 
ENDROOT
BRANCH   1   2
ATOM      2  C   UNL     1       1.491   2.745   5.143  0.00  0.00    +0.170 A 
ATOM      3  N   UNL     1       2.323   2.401   4.176  0.00  0.00    -0.214 NA
ATOM      4  C   UNL     1       1.904   2.115   2.954  0.00  0.00    +0.128 A 
ATOM      5  C   UNL     1       0.511   2.180   2.668  0.00  0.00    +0.051 A 
ATOM      6  C   UNL     1      -0.177   1.904   1.399  0.00  0.00    -0.025 A 
ATOM      7  C   UNL     1      -1.514   2.055   1.392  0.00  0.00    -0.004 A 
ATOM      8  S   UNL     1      -1.940   2.536   3.046  0.00  0.00    -0.073 S 
ATOM      9  C   UNL     1      -0.312   2.555   3.747  0.00  0.00    +0.114 A 
ATOM     10  N   UNL     1       0.190   2.823   4.937  0.00  0.00    -0.221 NA
ATOM     11  C   UNL     1      -2.450   1.862   0.240  0.00  0.00    +0.043 C 
ATOM     12  C   UNL     1      -2.153   0.518  -0.438  0.00  0.00    +0.005 C 
ATOM     13  C   UNL     1      -1.106   0.750  -1.523  0.00  0.00    +0.001 C 
ATOM     14  C   UNL     1      -0.152   1.865  -1.099  0.00  0.00    +0.005 C 
ATOM     15  C   UNL     1       0.604   1.467   0.163  0.00  0.00    +0.037 C 
ATOM     16  N   UNL     1       2.806   1.758   1.968  0.00  0.00    -0.343 N 
ATOM     17  H   UNL     1       2.449   1.522   0.955  0.00  0.00    +0.144 HD
ATOM     18  H   UNL     1       3.881   1.709   2.198  0.00  0.00    +0.144 HD
ENDBRANCH   1   2
BRANCH   1  19
ATOM     19  O   UNL     1       2.082   1.841   7.304  0.00  0.00    -0.457 OA
BRANCH  19  20
ATOM     20  C   UNL     1       2.549   1.947   8.558  0.00  0.00    +0.308 C 
ATOM     21  O   UNL     1       2.912   3.020   8.979  0.00  0.00    -0.251 OA
BRANCH  20  22
ATOM     22  C   UNL     1       2.622   0.728   9.441  0.00  0.00    +0.128 C 
BRANCH  22  23
ATOM     23  C   UNL     1       3.187   1.120  10.807  0.00  0.00    +0.085 C 
BRANCH  23  35
ATOM     24  C   UNL     1       5.492  -0.445  10.792  0.00  0.00    +0.150 C 
ATOM     25  N   UNL     1       4.383  -0.838  11.664  0.00  0.00    -0.332 N 
ATOM     26  C   UNL     1       4.501  -1.961  12.458  0.00  0.00    +0.055 A 
ATOM     27  C   UNL     1       5.648  -2.744  12.459  0.00  0.00    +0.026 A 
ATOM     28  C   UNL     1       5.712  -3.859  13.266  0.00  0.00    +0.002 A 
ATOM     29  C   UNL     1       4.643  -4.209  14.079  0.00  0.00    +0.001 A 
ATOM     30  C   UNL     1       3.496  -3.446  14.092  0.00  0.00    +0.015 A 
ATOM     31  C   UNL     1       3.416  -2.316  13.281  0.00  0.00    +0.065 A 
ATOM     32  C   UNL     1       2.218  -1.458  13.249  0.00  0.00    +0.281 A 
ATOM     33  O   UNL     1       1.246  -1.712  13.939  0.00  0.00    -0.265 OA
ATOM     34  N   UNL     1       2.229  -0.385  12.435  0.00  0.00    -0.195 NA
ATOM     35  C   UNL     1       3.260  -0.099  11.690  0.00  0.00    +0.114 A 
ENDBRANCH  23  35
ENDBRANCH  22  23
ENDBRANCH  20  22
ENDBRANCH  19  20
ENDBRANCH   1  19
TORSDOF 6
