REMARK  Name = ZINC44923815
REMARK  6 active torsions:
REMARK  status: ('A' for Active; 'I' for Inactive)
REMARK    1  A    between atoms: C_1  and  C_2
REMARK    2  A    between atoms: C_3  and  C_13
REMARK    3  A    between atoms: C_4  and  C_7
REMARK    4  A    between atoms: N_17  and  C_18
REMARK    5  A    between atoms: C_18  and  C_19
REMARK    6  A    between atoms: N_25  and  C_26
REMARK                            x       y       z     vdW  Elec       q    Type
REMARK                         _______ _______ _______ _____ _____    ______ ____
ROOT
ATOM      1  C   UNL     1      -2.468  -0.654   0.554  0.00  0.00    +0.063 A 
ATOM      2  C   UNL     1      -3.381  -1.624   0.856  0.00  0.00    +0.075 A 
ATOM      3  S   UNL     1      -4.909  -0.729   0.606  0.00  0.00    -0.062 S 
ATOM      4  C   UNL     1      -4.180   0.831   0.130  0.00  0.00    +0.139 A 
ATOM      5  N   UNL     1      -4.801   2.020  -0.218  0.00  0.00    -0.322 N 
ATOM      6  N   UNL     1      -2.890   0.552   0.203  0.00  0.00    -0.319 N 
ATOM      7  H   UNL     1      -4.268   2.794  -0.456  0.00  0.00    +0.148 HD
ENDROOT
BRANCH   6   8
ATOM      8  C   UNL     1      -1.910   1.593  -0.114  0.00  0.00    +0.094 C 
ATOM      9  C   UNL     1      -1.994   2.710   0.931  0.00  0.00    +0.031 C 
ATOM     10  C   UNL     1      -0.813   3.669   0.748  0.00  0.00    +0.055 C 
ATOM     11  C   UNL     1      -0.739   4.070  -0.706  0.00  0.00    +0.020 A 
ATOM     12  C   UNL     1      -1.362   3.403  -1.701  0.00  0.00    -0.017 A 
ATOM     13  C   UNL     1      -1.052   4.093  -2.936  0.00  0.00    +0.003 A 
ATOM     14  C   UNL     1      -1.413   3.864  -4.268  0.00  0.00    +0.010 A 
ATOM     15  C   UNL     1      -0.925   4.743  -5.203  0.00  0.00    +0.001 A 
ATOM     16  C   UNL     1      -0.112   5.810  -4.857  0.00  0.00    +0.002 A 
ATOM     17  C   UNL     1       0.261   6.060  -3.548  0.00  0.00    +0.026 A 
ATOM     18  C   UNL     1      -0.220   5.184  -2.576  0.00  0.00    +0.047 A 
ATOM     19  N   UNL     1      -0.052   5.138  -1.222  0.00  0.00    -0.358 N 
ATOM     20  H   UNL     1       0.474   5.766  -0.704  0.00  0.00    +0.166 HD
ATOM     21  C   UNL     1      -2.209   2.172  -1.502  0.00  0.00    +0.062 C 
ENDBRANCH   6   8
BRANCH   1  24
ATOM     22  C   UNL     1      -0.480  -0.667  -1.853  0.00  0.00    +0.090 C 
ATOM     23  C   UNL     1      -0.141  -0.955  -0.413  0.00  0.00    +0.144 A 
ATOM     24  C   UNL     1      -1.015  -0.947   0.625  0.00  0.00    +0.068 A 
ATOM     25  C   UNL     1      -0.249  -1.282   1.831  0.00  0.00    +0.123 A 
ATOM     26  N   UNL     1       0.994  -1.464   1.458  0.00  0.00    -0.077 NA
ATOM     27  O   UNL     1       1.074  -1.268   0.059  0.00  0.00    -0.359 OA
BRANCH  25  28
ATOM     28  C   UNL     1      -0.780  -1.392   3.212  0.00  0.00    +0.004 A 
ATOM     29  C   UNL     1      -1.781  -0.525   3.647  0.00  0.00    +0.010 A 
ATOM     30  C   UNL     1      -2.272  -0.632   4.933  0.00  0.00    +0.001 A 
ATOM     31  C   UNL     1      -1.774  -1.599   5.788  0.00  0.00    +0.000 A 
ATOM     32  C   UNL     1      -0.781  -2.462   5.361  0.00  0.00    +0.001 A 
ATOM     33  C   UNL     1      -0.286  -2.367   4.076  0.00  0.00    +0.010 A 
ENDBRANCH  25  28
ENDBRANCH   1  24
BRANCH   5  34
ATOM     34  C   UNL     1      -6.263   2.107  -0.226  0.00  0.00    +0.135 C 
BRANCH  34  35
ATOM     35  C   UNL     1      -6.688   3.517  -0.643  0.00  0.00    +0.135 C 
ATOM     36  C   UNL     1      -8.222   3.654  -0.538  0.00  0.00    +0.035 C 
ATOM     37  C   UNL     1      -8.563   4.504  -1.792  0.00  0.00    +0.031 C 
ATOM     38  C   UNL     1      -7.503   3.986  -2.796  0.00  0.00    +0.160 C 
ATOM     39  O   UNL     1      -6.323   3.751  -2.008  0.00  0.00    -0.375 OA
ENDBRANCH  34  35
ENDBRANCH   5  34
TORSDOF 5
