REMARK  Name = ZINC38664466
REMARK  7 active torsions:
REMARK  status: ('A' for Active; 'I' for Inactive)
REMARK    1  A    between atoms: C_4  and  N_7
REMARK    2  A    between atoms: C_9  and  C_27
REMARK    3  A    between atoms: C_10  and  C_13
REMARK    4  A    between atoms: C_17  and  S_19
REMARK    5  A    between atoms: S_19  and  N_22
REMARK    6  A    between atoms: C_28  and  C_29
REMARK    7  A    between atoms: C_28  and  C_31
REMARK                            x       y       z     vdW  Elec       q    Type
REMARK                         _______ _______ _______ _____ _____    ______ ____
ROOT
ATOM      1  N   UNL     1       2.805  -0.853  -0.076  0.00  0.00    -0.242 N 
ATOM      2  C   UNL     1       3.975  -0.170   0.068  0.00  0.00    +0.099 C 
ATOM      3  C   UNL     1       5.027  -1.011   0.167  0.00  0.00    -0.008 C 
ATOM      4  C   UNL     1       4.460  -2.412   0.074  0.00  0.00    +0.134 C 
ATOM      5  N   UNL     1       3.006  -2.203  -0.077  0.00  0.00    -0.224 NA
ATOM      6  H   UNL     1       2.495  -2.645   0.672  0.00  0.00    +0.146 HD
ENDROOT
BRANCH   1  10
ATOM      7  C   UNL     1      -0.927   0.954  -0.453  0.00  0.00    +0.000 A 
ATOM      8  C   UNL     1       0.206   1.734  -0.317  0.00  0.00    +0.002 A 
ATOM      9  C   UNL     1       1.446   1.138  -0.191  0.00  0.00    +0.025 A 
ATOM     10  C   UNL     1       1.553  -0.247  -0.203  0.00  0.00    +0.049 A 
ATOM     11  C   UNL     1       0.412  -1.028  -0.340  0.00  0.00    +0.025 A 
ATOM     12  C   UNL     1      -0.824  -0.425  -0.465  0.00  0.00    +0.002 A 
ENDBRANCH   1  10
BRANCH   4  13
ATOM     13  C   UNL     1       4.752  -3.184   1.335  0.00  0.00    -0.023 A 
ATOM     14  C   UNL     1       4.055  -2.902   2.495  0.00  0.00    +0.005 A 
ATOM     15  C   UNL     1       4.323  -3.610   3.652  0.00  0.00    +0.002 A 
ATOM     16  C   UNL     1       5.286  -4.601   3.648  0.00  0.00    +0.028 A 
ATOM     17  C   UNL     1       5.982  -4.884   2.487  0.00  0.00    +0.106 A 
ATOM     18  C   UNL     1       5.711  -4.179   1.330  0.00  0.00    +0.034 A 
BRANCH  17  19
ATOM     19  S   UNL     1       7.211  -6.147   2.483  0.00  0.00    +0.061 S 
ATOM     20  O   UNL     1       8.163  -5.784   1.492  0.00  0.00    -0.153 OA
ATOM     21  O   UNL     1       7.570  -6.369   3.840  0.00  0.00    -0.153 OA
BRANCH  19  22
ATOM     22  N   UNL     1       6.482  -7.537   1.953  0.00  0.00    -0.177 NA
ATOM     23  C   UNL     1       5.816  -8.533   2.804  0.00  0.00    +0.109 C 
ATOM     24  C   UNL     1       5.313  -9.662   1.879  0.00  0.00    +0.018 C 
ATOM     25  C   UNL     1       6.218  -9.516   0.628  0.00  0.00    +0.018 C 
ATOM     26  C   UNL     1       6.390  -7.976   0.548  0.00  0.00    +0.109 C 
ENDBRANCH  19  22
ENDBRANCH  17  19
ENDBRANCH   4  13
BRANCH   3  27
ATOM     27  C   UNL     1       6.382  -0.656   0.325  0.00  0.00    +0.025 C 
ATOM     28  C   UNL     1       6.968   0.195  -0.558  0.00  0.00    +0.072 C 
BRANCH  28  29
ATOM     29  C   UNL     1       6.213   0.653  -1.780  0.00  0.00    +0.216 C 
ATOM     30  N   UNL     1       6.963   0.309  -2.994  0.00  0.00    -0.359 N 
ATOM     31  C   UNL     1       7.234   1.421  -3.613  0.00  0.00    +0.060 A 
ATOM     32  C   UNL     1       7.949   1.721  -4.862  0.00  0.00    +0.027 A 
ATOM     33  C   UNL     1       8.077   3.002  -5.264  0.00  0.00    +0.002 A 
ATOM     34  C   UNL     1       7.551   4.082  -4.534  0.00  0.00    +0.002 A 
ATOM     35  C   UNL     1       6.879   3.918  -3.376  0.00  0.00    +0.027 A 
ATOM     36  C   UNL     1       6.677   2.565  -2.840  0.00  0.00    +0.060 A 
ATOM     37  N   UNL     1       6.083   2.115  -1.773  0.00  0.00    -0.359 N 
ATOM     38  H   UNL     1       7.212  -0.583  -3.282  0.00  0.00    +0.162 HD
ATOM     39  H   UNL     1       5.636   2.648  -1.097  0.00  0.00    +0.162 HD
ENDBRANCH  28  29
BRANCH  28  40
ATOM     40  C   UNL     1       8.304   0.657  -0.328  0.00  0.00    +0.099 C 
ATOM     41  N   UNL     1       9.364   1.023  -0.145  0.00  0.00    -0.191 NA
ENDBRANCH  28  40
ENDBRANCH   3  27
TORSDOF 7
