REMARK  Name = ZINC01827740
REMARK  9 active torsions:
REMARK  status: ('A' for Active; 'I' for Inactive)
REMARK    1  A    between atoms: C_1  and  C_2
REMARK    2  A    between atoms: C_3  and  C_21
REMARK    3  A    between atoms: C_15  and  C_19
REMARK    4  A    between atoms: C_16  and  N_18
REMARK    5  A    between atoms: C_21  and  O_23
REMARK    6  A    between atoms: O_23  and  C_24
REMARK    7  A    between atoms: C_24  and  C_25
REMARK    8  A    between atoms: C_25  and  O_26
REMARK    9  A    between atoms: O_26  and  C_27
REMARK                            x       y       z     vdW  Elec       q    Type
REMARK                         _______ _______ _______ _____ _____    ______ ____
ROOT
ATOM      1  C   UNL     1       4.452  -3.177   2.468  0.00  0.00    +0.087 C 
ATOM      2  C   UNL     1       4.248  -2.462   1.157  0.00  0.00    +0.116 C 
ATOM      3  C   UNL     1       3.968  -1.151   1.170  0.00  0.00    +0.099 C 
ATOM      4  C   UNL     1       3.759  -0.397  -0.111  0.00  0.00    +0.148 C 
ATOM      5  C   UNL     1       2.297  -0.078  -0.303  0.00  0.00    -0.000 A 
ATOM      6  C   UNL     1       1.173  -0.862  -0.434  0.00  0.00    +0.022 A 
ATOM      7  C   UNL     1      -0.067  -0.270  -0.603  0.00  0.00    +0.018 A 
ATOM      8  C   UNL     1      -0.171   1.110  -0.640  0.00  0.00    +0.017 A 
ATOM      9  C   UNL     1       0.954   1.897  -0.509  0.00  0.00    +0.025 A 
ATOM     10  C   UNL     1       2.205   1.308  -0.338  0.00  0.00    +0.038 A 
ATOM     11  N   UNL     1       3.469   1.880  -0.185  0.00  0.00    -0.284 N 
ATOM     12  C   UNL     1       4.433   0.953  -0.045  0.00  0.00    +0.238 C 
ATOM     13  O   UNL     1       5.619   1.160   0.105  0.00  0.00    -0.274 OA
ATOM     14 BR   UNL     1      -1.614  -1.342  -0.784  0.00  0.00    -0.050 Br
ATOM     15  C   UNL     1       4.281  -1.187  -1.276  0.00  0.00    +0.110 C 
ATOM     16  C   UNL     1       4.547  -2.510  -1.145  0.00  0.00    +0.199 C 
ATOM     17  O   UNL     1       4.352  -3.159   0.016  0.00  0.00    -0.445 OA
ATOM     18  H   UNL     1       3.634   2.836  -0.180  0.00  0.00    +0.155 HD
ENDROOT
BRANCH  16  19
ATOM     19  N   UNL     1       5.029  -3.206  -2.227  0.00  0.00    -0.328 N 
ATOM     20  H   UNL     1       5.223  -4.153  -2.147  0.00  0.00    +0.145 HD
ATOM     21  H   UNL     1       5.174  -2.750  -3.070  0.00  0.00    +0.145 HD
ENDBRANCH  16  19
BRANCH  15  22
ATOM     22  C   UNL     1       4.501  -0.538  -2.534  0.00  0.00    +0.102 C 
ATOM     23  N   UNL     1       4.675  -0.024  -3.532  0.00  0.00    -0.191 NA
ENDBRANCH  15  22
BRANCH   3  24
ATOM     24  C   UNL     1       3.869  -0.469   2.408  0.00  0.00    +0.340 C 
ATOM     25  O   UNL     1       2.776  -0.249   2.895  0.00  0.00    -0.245 OA
BRANCH  24  26
ATOM     26  O   UNL     1       4.986  -0.064   3.046  0.00  0.00    -0.459 OA
BRANCH  26  27
ATOM     27  C   UNL     1       4.811   0.618   4.290  0.00  0.00    +0.260 C 
BRANCH  27  28
ATOM     28  C   UNL     1       6.180   0.996   4.861  0.00  0.00    +0.200 C 
BRANCH  28  29
ATOM     29  O   UNL     1       6.811   1.942   3.996  0.00  0.00    -0.380 OA
ATOM     30  C   UNL     1       8.102   2.364   4.440  0.00  0.00    +0.194 C 
ENDBRANCH  28  29
ENDBRANCH  27  28
ENDBRANCH  26  27
ENDBRANCH  24  26
ENDBRANCH   3  24
TORSDOF 7
