REMARK  Name = ZINC30542954
REMARK  11 active torsions:
REMARK  status: ('A' for Active; 'I' for Inactive)
REMARK    1  A    between atoms: C_1  and  C_2
REMARK    2  A    between atoms: C_5  and  N_8
REMARK    3  A    between atoms: C_9  and  C_11
REMARK    4  A    between atoms: C_11  and  N_12
REMARK    5  A    between atoms: N_12  and  C_13
REMARK    6  A    between atoms: N_12  and  C_14
REMARK    7  A    between atoms: C_14  and  C_16
REMARK    8  A    between atoms: C_14  and  C_17
REMARK    9  A    between atoms: N_19  and  C_20
REMARK   10  A    between atoms: C_21  and  C_28
REMARK   11  A    between atoms: C_23  and  C_27
REMARK                            x       y       z     vdW  Elec       q    Type
REMARK                         _______ _______ _______ _____ _____    ______ ____
ROOT
ATOM      1  N   UNL     1       1.675  -7.082   2.309  0.00  0.00    +0.391 N 
ATOM      2  C   UNL     1       3.110  -7.360   2.456  0.00  0.00    -0.094 C 
ATOM      3  H   UNL     1       1.385  -6.426   3.019  0.00  0.00    -0.080 HD
ENDROOT
BRANCH   1   4
ATOM      4  C   UNL     1       0.916  -8.331   2.456  0.00  0.00    +0.017 C 
ATOM      5  C   UNL     1      -0.566  -8.062   2.187  0.00  0.00    -0.004 C 
BRANCH   4   6
ATOM      6  C   UNL     1       1.085  -8.858   3.858  0.00  0.00    +0.203 C 
ATOM      7  O   UNL     1       1.514  -8.134   4.731  0.00  0.00    -0.277 OA
ATOM      8  N   UNL     1       0.758 -10.135   4.141  0.00  0.00    -0.285 N 
ATOM      9  H   UNL     1       0.468 -10.730   3.432  0.00  0.00    +0.155 HD
BRANCH   8  10
ATOM     10  C   UNL     1       0.839 -10.602   5.458  0.00  0.00    +0.055 A 
ATOM     11  C   UNL     1       1.391 -11.849   5.721  0.00  0.00    -0.028 A 
ATOM     12  C   UNL     1       1.469 -12.307   7.022  0.00  0.00    +0.008 A 
ATOM     13  C   UNL     1       0.998 -11.526   8.062  0.00  0.00    -0.049 A 
ATOM     14  C   UNL     1       0.448 -10.284   7.804  0.00  0.00    +0.025 A 
ATOM     15  C   UNL     1       0.372  -9.817   6.505  0.00  0.00    +0.063 A 
ATOM     16 CL   UNL     1      -0.313  -8.255   6.182  0.00  0.00    -0.082 Cl
ATOM     17  C   UNL     1       1.085 -12.030   9.479  0.00  0.00    +0.044 C 
ATOM     18  C   UNL     1       1.903 -12.701   4.589  0.00  0.00    +0.046 C 
ENDBRANCH   8  10
ENDBRANCH   4   6
ENDBRANCH   1   4
BRANCH   1  19
ATOM     19  C   UNL     1       1.421  -6.508   0.980  0.00  0.00    +0.020 C 
BRANCH  19  21
ATOM     20  N   UNL     1       2.005  -4.452  -0.265  0.00  0.00    -0.287 N 
ATOM     21  C   UNL     1       2.100  -5.167   0.873  0.00  0.00    +0.201 C 
ATOM     22  O   UNL     1       2.733  -4.732   1.812  0.00  0.00    -0.278 OA
ATOM     23  H   UNL     1       1.435  -4.762  -0.986  0.00  0.00    +0.155 HD
BRANCH  20  28
ATOM     24  C   UNL     1       4.937   0.371  -0.839  0.00  0.00    +0.044 C 
ATOM     25  C   UNL     1       4.158  -0.910  -0.686  0.00  0.00    -0.050 A 
ATOM     26  C   UNL     1       3.639  -1.260   0.547  0.00  0.00    +0.005 A 
ATOM     27  C   UNL     1       2.925  -2.433   0.690  0.00  0.00    +0.023 A 
ATOM     28  C   UNL     1       2.727  -3.262  -0.406  0.00  0.00    +0.033 A 
ATOM     29  C   UNL     1       3.249  -2.908  -1.644  0.00  0.00    +0.023 A 
ATOM     30  C   UNL     1       3.958  -1.731  -1.781  0.00  0.00    +0.005 A 
ENDBRANCH  20  28
ENDBRANCH  19  21
ENDBRANCH   1  19
TORSDOF 6
