REMARK  Name = ZINC01003127
REMARK  10 active torsions:
REMARK  status: ('A' for Active; 'I' for Inactive)
REMARK    1  A    between atoms: C_1  and  C_2
REMARK    2  A    between atoms: C_3  and  C_26
REMARK    3  A    between atoms: C_4  and  C_12
REMARK    4  A    between atoms: C_6  and  C_10
REMARK    5  A    between atoms: C_7  and  N_9
REMARK    6  A    between atoms: C_15  and  C_17
REMARK    7  A    between atoms: C_17  and  O_18
REMARK    8  A    between atoms: O_18  and  C_19
REMARK    9  A    between atoms: C_26  and  O_28
REMARK   10  A    between atoms: O_28  and  C_29
REMARK                            x       y       z     vdW  Elec       q    Type
REMARK                         _______ _______ _______ _____ _____    ______ ____
ROOT
ATOM      1  C   UNL     1      -5.578   7.339   4.899  0.00  0.00    +0.087 C 
ATOM      2  C   UNL     1      -6.359   6.439   3.976  0.00  0.00    +0.115 C 
ATOM      3  C   UNL     1      -6.603   6.850   2.726  0.00  0.00    +0.090 C 
ATOM      4  C   UNL     1      -7.379   5.993   1.763  0.00  0.00    +0.140 C 
ATOM      5  C   UNL     1      -8.115   4.919   2.518  0.00  0.00    +0.101 C 
ATOM      6  C   UNL     1      -7.780   4.616   3.795  0.00  0.00    +0.198 C 
ATOM      7  O   UNL     1      -6.785   5.254   4.436  0.00  0.00    -0.445 OA
ENDROOT
BRANCH   4   8
ATOM      8  C   UNL     1      -6.429   5.356   0.782  0.00  0.00    +0.118 A 
ATOM      9  C   UNL     1      -6.454   5.515  -0.553  0.00  0.00    +0.046 A 
ATOM     10  C   UNL     1      -5.389   4.747  -1.077  0.00  0.00    +0.048 A 
ATOM     11  C   UNL     1      -4.782   4.157  -0.031  0.00  0.00    +0.142 A 
ATOM     12  O   UNL     1      -5.415   4.532   1.093  0.00  0.00    -0.460 OA
BRANCH  11  13
ATOM     13  C   UNL     1      -3.591   3.237  -0.107  0.00  0.00    +0.303 C 
BRANCH  13  14
ATOM     14  O   UNL     1      -2.390   4.005  -0.019  0.00  0.00    -0.484 OA
BRANCH  14  15
ATOM     15  C   UNL     1      -1.216   3.322  -0.072  0.00  0.00    +0.121 A 
ATOM     16  C   UNL     1      -1.220   1.942  -0.211  0.00  0.00    +0.047 A 
ATOM     17  C   UNL     1      -0.026   1.250  -0.259  0.00  0.00    +0.019 A 
ATOM     18  C   UNL     1       1.174   1.933  -0.179  0.00  0.00    +0.018 A 
ATOM     19  C   UNL     1       1.181   3.310  -0.046  0.00  0.00    +0.019 A 
ATOM     20  C   UNL     1      -0.011   4.005   0.008  0.00  0.00    +0.047 A 
ATOM     21 BR   UNL     1       2.808   0.983  -0.252  0.00  0.00    -0.050 Br
ENDBRANCH  14  15
ENDBRANCH  13  14
ENDBRANCH  11  13
ENDBRANCH   4   8
BRANCH   6  22
ATOM     22  N   UNL     1      -8.476   3.632   4.452  0.00  0.00    -0.328 N 
ATOM     23  H   UNL     1      -8.247   3.405   5.367  0.00  0.00    +0.145 HD
ATOM     24  H   UNL     1      -9.196   3.164   4.001  0.00  0.00    +0.145 HD
ENDBRANCH   6  22
BRANCH   5  25
ATOM     25  C   UNL     1      -9.182   4.209   1.878  0.00  0.00    +0.101 C 
ATOM     26  N   UNL     1     -10.029   3.646   1.371  0.00  0.00    -0.191 NA
ENDBRANCH   5  25
BRANCH   3  27
ATOM     27  C   UNL     1      -6.123   8.114   2.302  0.00  0.00    +0.339 C 
ATOM     28  O   UNL     1      -5.588   8.860   3.100  0.00  0.00    -0.245 OA
BRANCH  27  29
ATOM     29  O   UNL     1      -6.258   8.489   1.013  0.00  0.00    -0.465 OA
ATOM     30  C   UNL     1      -5.751   9.777   0.656  0.00  0.00    +0.280 C 
ENDBRANCH  27  29
ENDBRANCH   3  27
TORSDOF 8
