REMARK  Name = ZINC62776064
REMARK  3 active torsions:
REMARK  status: ('A' for Active; 'I' for Inactive)
REMARK    1  A    between atoms: C_2  and  C_8
REMARK    2  A    between atoms: C_8  and  C_10
REMARK    3  A    between atoms: C_8  and  N_16
REMARK                            x       y       z     vdW  Elec       q    Type
REMARK                         _______ _______ _______ _____ _____    ______ ____
ROOT
ATOM      1  C   UNL     1       1.204   3.545   0.009  0.00  0.00    -0.008 C 
ENDROOT
BRANCH   1   3
ATOM      2  C   UNL     1      -0.016   1.352   0.009  0.00  0.00    +0.031 A 
ATOM      3  C   UNL     1       1.185   2.038   0.002  0.00  0.00    -0.031 A 
ATOM      4  C   UNL     1       2.344   1.335  -0.013  0.00  0.00    +0.081 A 
ATOM      5  S   UNL     1       1.753  -0.350  -0.017  0.00  0.00    -0.065 S 
ATOM      6  C   UNL     1       0.002  -0.004   0.002  0.00  0.00    +0.080 A 
ATOM      7 CL   UNL     1      -1.332  -1.115   0.010  0.00  0.00    -0.076 Cl
ATOM      8 CL   UNL     1       3.978   1.920  -0.026  0.00  0.00    -0.076 Cl
ENDBRANCH   1   3
BRANCH   1   9
ATOM      9  C   UNL     1       1.471   4.037   1.408  0.00  0.00    -0.020 A 
ATOM     10  C   UNL     1       2.660   4.469   1.888  0.00  0.00    +0.107 A 
ATOM     11  N   UNL     1       2.481   4.821   3.178  0.00  0.00    -0.285 N 
ATOM     12  H   UNL     1       3.162   5.167   3.775  0.00  0.00    +0.188 HD
ATOM     13  N   UNL     1       1.137   4.598   3.502  0.00  0.00    -0.182 NA
ATOM     14  C   UNL     1       0.531   4.134   2.439  0.00  0.00    +0.136 A 
ENDBRANCH   1   9
BRANCH   1  15
ATOM     15  N   UNL     1      -0.095   4.054  -0.450  0.00  0.00    +0.385 N 
ATOM     16  H   UNL     1      -0.822   3.725   0.167  0.00  0.00    -0.089 HD
ATOM     17  H   UNL     1      -0.082   5.063  -0.445  0.00  0.00    -0.089 HD
ATOM     18  H   UNL     1      -0.273   3.725  -1.387  0.00  0.00    -0.089 HD
ENDBRANCH   1  15
TORSDOF 3
