REMARK  Name = ZINC36029192
REMARK  7 active torsions:
REMARK  status: ('A' for Active; 'I' for Inactive)
REMARK    1  A    between atoms: C_1  and  C_2
REMARK    2  A    between atoms: C_2  and  C_3
REMARK    3  A    between atoms: C_3  and  C_5
REMARK    4  A    between atoms: C_3  and  C_6
REMARK    5  A    between atoms: N_10  and  C_31
REMARK    6  A    between atoms: N_15  and  S_18
REMARK    7  A    between atoms: S_18  and  C_21
REMARK                            x       y       z     vdW  Elec       q    Type
REMARK                         _______ _______ _______ _____ _____    ______ ____
ROOT
ATOM      1  C   UNL     1      -1.416  -2.057  -0.121  0.00  0.00    +0.022 C 
ATOM      2  C   UNL     1      -0.838  -2.691   1.126  0.00  0.00    +0.200 C 
ATOM      3  O   UNL     1       0.149  -2.322   1.722  0.00  0.00    -0.277 OA
ATOM      4  N   UNL     1      -1.617  -3.748   1.465  0.00  0.00    -0.317 N 
ATOM      5  C   UNL     1      -2.641  -3.938   0.439  0.00  0.00    +0.005 C 
ATOM      6  N   UNL     1      -2.800  -2.587  -0.184  0.00  0.00    +0.401 N 
ATOM      7  C   UNL     1      -2.164  -4.886  -0.653  0.00  0.00    +0.023 C 
ATOM      8  C   UNL     1      -2.177  -6.337  -0.174  0.00  0.00    +0.109 C 
ATOM      9  N   UNL     1      -3.525  -6.646   0.319  0.00  0.00    -0.177 NA
ATOM     10  C   UNL     1      -4.088  -5.811   1.385  0.00  0.00    +0.109 C 
ATOM     11  C   UNL     1      -3.986  -4.336   1.020  0.00  0.00    +0.023 C 
ATOM     12  C   UNL     1      -1.421  -4.534   2.684  0.00  0.00    +0.130 C 
ATOM     13  H   UNL     1      -3.428  -2.028   0.366  0.00  0.00    -0.082 HD
ATOM     14  H   UNL     1      -3.111  -2.682  -1.134  0.00  0.00    -0.082 HD
ENDROOT
BRANCH   9  15
ATOM     15  S   UNL     1      -4.388  -7.909  -0.316  0.00  0.00    +0.063 S 
ATOM     16  O   UNL     1      -5.760  -7.622  -0.081  0.00  0.00    -0.153 OA
ATOM     17  O   UNL     1      -3.870  -8.139  -1.619  0.00  0.00    -0.153 OA
BRANCH  15  18
ATOM     18  C   UNL     1      -4.000  -9.337   0.640  0.00  0.00    +0.131 A 
ATOM     19  C   UNL     1      -4.966  -9.945   1.382  0.00  0.00    +0.031 A 
ATOM     20  C   UNL     1      -4.681 -11.075   2.145  0.00  0.00    +0.003 A 
ATOM     21  C   UNL     1      -3.426 -11.604   2.170  0.00  0.00    +0.010 A 
ATOM     22  C   UNL     1      -2.406 -11.003   1.416  0.00  0.00    +0.002 A 
ATOM     23  C   UNL     1      -2.694  -9.857   0.635  0.00  0.00    +0.097 A 
ATOM     24  N   UNL     1      -1.727  -9.283  -0.088  0.00  0.00    -0.253 NA
ATOM     25  C   UNL     1      -0.507  -9.763  -0.096  0.00  0.00    +0.111 A 
ATOM     26  C   UNL     1      -0.158 -10.890   0.645  0.00  0.00    +0.020 A 
ATOM     27  C   UNL     1      -1.095 -11.518   1.414  0.00  0.00    +0.011 A 
ENDBRANCH  15  18
ENDBRANCH   9  15
BRANCH   1  28
ATOM     28  C   UNL     1      -1.433  -0.534   0.013  0.00  0.00    -0.020 C 
ATOM     29  C   UNL     1      -2.110  -0.145   1.329  0.00  0.00    +0.006 C 
BRANCH  28  31
ATOM     30  C   UNL     1      -0.019   1.526   0.010  0.00  0.00    +0.004 C 
ATOM     31  C   UNL     1       0.002  -0.004   0.002  0.00  0.00    -0.001 C 
ENDBRANCH  28  31
ENDBRANCH   1  28
TORSDOF 4
