REMARK  Name = ZINC11549342
REMARK  4 active torsions:
REMARK  status: ('A' for Active; 'I' for Inactive)
REMARK    1  A    between atoms: C_1  and  C_2
REMARK    2  A    between atoms: C_4  and  C_14
REMARK    3  A    between atoms: C_7  and  C_8
REMARK    4  A    between atoms: N_12  and  O_13
REMARK                            x       y       z     vdW  Elec       q    Type
REMARK                         _______ _______ _______ _____ _____    ______ ____
ROOT
ATOM      1  C   UNL     1      -0.018   1.503   0.010  0.00  0.00    +0.044 C 
ATOM      2  C   UNL     1       0.002  -0.004   0.002  0.00  0.00    -0.044 A 
ATOM      3  C   UNL     1       0.006  -0.684  -1.204  0.00  0.00    +0.007 A 
ATOM      4  C   UNL     1       0.025  -2.063  -1.219  0.00  0.00    -0.038 A 
ATOM      5  C   UNL     1       0.041  -2.769  -0.016  0.00  0.00    +0.048 A 
ATOM      6  C   UNL     1       0.037  -2.086   1.204  0.00  0.00    +0.133 A 
ATOM      7  C   UNL     1       0.023  -0.694   1.196  0.00  0.00    -0.005 A 
ATOM      8  C   UNL     1       0.024   0.063   2.499  0.00  0.00    +0.048 C 
ATOM      9  O   UNL     1       0.054  -2.950   2.249  0.00  0.00    -0.485 OA
ATOM     10  C   UNL     1       0.071  -4.301   1.786  0.00  0.00    +0.288 C 
ATOM     11  C   UNL     1       0.063  -4.219   0.274  0.00  0.00    +0.128 C 
ATOM     12  N   UNL     1       0.072  -5.198  -0.573  0.00  0.00    -0.088 NA
ATOM     13  C   UNL     1       0.028  -2.804  -2.531  0.00  0.00    +0.044 C 
ENDROOT
BRANCH  12  14
ATOM     14  O   UNL     1       0.093  -6.535  -0.109  0.00  0.00    -0.409 OA
ATOM     15  H   UNL     1       0.098  -7.197  -0.815  0.00  0.00    +0.328 HD
ENDBRANCH  12  14
TORSDOF 1
