REMARK  Name = ZINC13745961
REMARK  2 active torsions:
REMARK  status: ('A' for Active; 'I' for Inactive)
REMARK    1  A    between atoms: C_5  and  N_7
REMARK    2  A    between atoms: N_10  and  C_11
REMARK                            x       y       z     vdW  Elec       q    Type
REMARK                         _______ _______ _______ _____ _____    ______ ____
ROOT
ATOM      1  N   UNL     1      -1.237   2.069   0.028  0.00  0.00    -0.268 N 
ATOM      2  C   UNL     1      -1.256   3.413   0.130  0.00  0.00    +0.308 C 
ATOM      3  O   UNL     1      -0.213   4.038   0.123  0.00  0.00    -0.252 OA
ATOM      4  N   UNL     1      -2.430   4.064   0.239  0.00  0.00    -0.268 N 
ATOM      5  H   UNL     1      -2.070   1.576  -0.033  0.00  0.00    +0.156 HD
ATOM      6  H   UNL     1      -3.258   3.563   0.312  0.00  0.00    +0.156 HD
ENDROOT
BRANCH   1  11
ATOM      7  C   UNL     1       2.295   1.277  -0.623  0.00  0.00    +0.002 A 
ATOM      8  C   UNL     1       2.396   0.029  -0.034  0.00  0.00    +0.001 A 
ATOM      9  C   UNL     1       1.296  -0.542   0.577  0.00  0.00    +0.017 A 
ATOM     10  C   UNL     1       0.089   0.133   0.602  0.00  0.00    +0.039 A 
ATOM     11  C   UNL     1      -0.015   1.386   0.011  0.00  0.00    +0.049 A 
ATOM     12  C   UNL     1       1.092   1.956  -0.602  0.00  0.00    +0.024 A 
ATOM     13 BR   UNL     1      -1.416  -0.649   1.437  0.00  0.00    -0.048 Br
ENDBRANCH   1  11
BRANCH   4  14
ATOM     14  C   UNL     1      -2.457   5.464   0.247  0.00  0.00    +0.053 A 
ATOM     15  C   UNL     1      -1.431   6.186   0.851  0.00  0.00    +0.026 A 
ATOM     16  C   UNL     1      -1.499   7.570   0.829  0.00  0.00    +0.021 A 
ATOM     17  C   UNL     1      -2.579   8.183   0.222  0.00  0.00    +0.111 A 
ATOM     18  N   UNL     1      -3.537   7.470  -0.337  0.00  0.00    -0.261 NA
ATOM     19  C   UNL     1      -3.509   6.152  -0.343  0.00  0.00    +0.134 A 
ENDBRANCH   4  14
TORSDOF 2
