REMARK  Name = ZINC12660551
REMARK  10 active torsions:
REMARK  status: ('A' for Active; 'I' for Inactive)
REMARK    1  A    between atoms: C_1  and  N_67
REMARK    2  A    between atoms: C_8  and  O_32
REMARK    3  A    between atoms: C_10  and  C_12
REMARK    4  A    between atoms: C_12  and  C_13
REMARK    5  A    between atoms: C_13  and  C_15
REMARK    6  A    between atoms: C_15  and  C_16
REMARK    7  A    between atoms: C_23  and  O_24
REMARK    8  A    between atoms: O_24  and  C_25
REMARK    9  A    between atoms: C_31  and  N_69
REMARK   10  A    between atoms: O_32  and  C_33
REMARK                            x       y       z     vdW  Elec       q    Type
REMARK                         _______ _______ _______ _____ _____    ______ ____
ROOT
ATOM      1  C   UNL     1      -1.348   2.253  -3.870  0.00  0.00    +0.131 C 
ATOM      2  O   UNL     1      -0.737   1.817  -4.816  0.00  0.00    -0.298 OA
ENDROOT
BRANCH   1   3
ATOM      3  C   UNL     1      -1.838   3.679  -3.881  0.00  0.00    +0.063 C 
BRANCH   3  13
ATOM      4  C   UNL     1       0.545   5.335  -4.075  0.00  0.00    -0.095 C 
ATOM      5  C   UNL     1       0.555   4.968  -6.471  0.00  0.00    -0.074 C 
ATOM      6  C   UNL     1       0.368   3.862  -7.509  0.00  0.00    +0.017 C 
ATOM      7  C   UNL     1      -1.041   3.329  -7.444  0.00  0.00    -0.040 A 
ATOM      8  C   UNL     1      -1.515   2.587  -8.516  0.00  0.00    +0.053 A 
ATOM      9  C   UNL     1      -2.801   2.074  -8.501  0.00  0.00    +0.170 A 
ATOM     10  C   UNL     1      -3.622   2.303  -7.402  0.00  0.00    +0.208 A 
ATOM     11  C   UNL     1      -3.145   3.046  -6.332  0.00  0.00    +0.167 A 
ATOM     12  C   UNL     1      -1.852   3.561  -6.354  0.00  0.00    -0.012 A 
ATOM     13  C   UNL     1      -1.382   4.365  -5.170  0.00  0.00    -0.027 C 
ATOM     14  O   UNL     1      -4.828   1.700  -7.624  0.00  0.00    -0.449 OA
ATOM     15  C   UNL     1      -4.876   1.448  -9.041  0.00  0.00    +0.467 C 
ATOM     16  O   UNL     1      -3.490   1.328  -9.414  0.00  0.00    -0.452 OA
ATOM     17  N   UNL     1       0.088   4.449  -5.170  0.00  0.00    +0.383 N 
ATOM     18  H   UNL     1       0.478   3.510  -5.024  0.00  0.00    -0.081 HD
BRANCH  11  19
ATOM     19  O   UNL     1      -3.945   3.272  -5.255  0.00  0.00    -0.491 OA
ATOM     20  C   UNL     1      -4.854   4.371  -5.342  0.00  0.00    +0.277 C 
ENDBRANCH  11  19
ENDBRANCH   3  13
ENDBRANCH   1   3
BRANCH   1  21
ATOM     21  C   UNL     1      -1.621   1.372  -2.678  0.00  0.00    +0.063 C 
BRANCH  21  22
ATOM     22  C   UNL     1      -1.007  -0.009  -2.914  0.00  0.00    -0.027 C 
ATOM     23  C   UNL     1      -1.544  -0.573  -4.204  0.00  0.00    -0.012 A 
ATOM     24  C   UNL     1      -0.734  -1.238  -5.100  0.00  0.00    -0.040 A 
ATOM     25  C   UNL     1      -1.271  -1.756  -6.268  0.00  0.00    +0.053 A 
ATOM     26  C   UNL     1      -2.622  -1.616  -6.543  0.00  0.00    +0.170 A 
ATOM     27  C   UNL     1      -3.443  -0.949  -5.641  0.00  0.00    +0.208 A 
ATOM     28  C   UNL     1      -2.901  -0.431  -4.472  0.00  0.00    +0.167 A 
ATOM     29  O   UNL     1      -4.717  -0.942  -6.132  0.00  0.00    -0.449 OA
ATOM     30  C   UNL     1      -4.744  -1.965  -7.145  0.00  0.00    +0.467 C 
ATOM     31  O   UNL     1      -3.379  -2.028  -7.601  0.00  0.00    -0.452 OA
ATOM     32  C   UNL     1       0.743  -1.414  -4.851  0.00  0.00    +0.017 C 
ATOM     33  C   UNL     1       1.056  -1.167  -3.375  0.00  0.00    -0.074 C 
ATOM     34  C   UNL     1       0.998   0.578  -1.695  0.00  0.00    -0.095 C 
ATOM     35  N   UNL     1       0.457   0.129  -2.997  0.00  0.00    +0.383 N 
ATOM     36  H   UNL     1       0.688   0.828  -3.713  0.00  0.00    -0.081 HD
BRANCH  28  37
ATOM     37  O   UNL     1      -3.701   0.223  -3.588  0.00  0.00    -0.491 OA
ATOM     38  C   UNL     1      -4.321  -0.563  -2.569  0.00  0.00    +0.277 C 
ENDBRANCH  28  37
ENDBRANCH  21  22
ENDBRANCH   1  21
TORSDOF 6
