REMARK  Name = ZINC41837009
REMARK  7 active torsions:
REMARK  status: ('A' for Active; 'I' for Inactive)
REMARK    1  A    between atoms: C_1  and  C_2
REMARK    2  A    between atoms: C_2  and  C_3
REMARK    3  A    between atoms: C_2  and  C_4
REMARK    4  A    between atoms: C_4  and  C_6
REMARK    5  A    between atoms: C_4  and  N_18
REMARK    6  A    between atoms: C_6  and  N_8
REMARK    7  A    between atoms: C_19  and  C_21
REMARK                            x       y       z     vdW  Elec       q    Type
REMARK                         _______ _______ _______ _____ _____    ______ ____
ROOT
ATOM      1  C   UNL     1      -1.433  -0.534   0.013  0.00  0.00    +0.164 C 
ENDROOT
BRANCH   1   2
ATOM      2  N   UNL     1      -2.142  -0.048  -1.174  0.00  0.00    -0.299 N 
ATOM      3  C   UNL     1      -2.727   1.166  -1.160  0.00  0.00    +0.251 C 
ATOM      4  O   UNL     1      -2.667   1.859  -0.162  0.00  0.00    -0.270 OA
ATOM      5  H   UNL     1      -2.190  -0.601  -1.970  0.00  0.00    +0.150 HD
BRANCH   3   6
ATOM      6  C   UNL     1      -3.436   1.651  -2.348  0.00  0.00    +0.074 A 
ATOM      7  C   UNL     1      -4.093   2.857  -2.541  0.00  0.00    +0.021 A 
ATOM      8  C   UNL     1      -4.671   3.030  -3.776  0.00  0.00    +0.008 A 
ATOM      9  C   UNL     1      -4.565   2.042  -4.698  0.00  0.00    +0.046 A 
ATOM     10  S   UNL     1      -3.672   0.849  -3.922  0.00  0.00    -0.092 S 
ENDBRANCH   3   6
ENDBRANCH   1   2
BRANCH   1  12
ATOM     11  C   UNL     1      -0.019   1.526   0.010  0.00  0.00    +0.009 C 
ATOM     12  C   UNL     1       0.002  -0.004   0.002  0.00  0.00    +0.012 C 
ATOM     13  C   UNL     1       0.742  -0.511   1.242  0.00  0.00    +0.009 C 
ENDBRANCH   1  12
BRANCH   1  14
ATOM     14  C   UNL     1      -1.413  -2.041   0.005  0.00  0.00    +0.260 C 
ATOM     15  O   UNL     1      -1.940  -2.651  -0.906  0.00  0.00    -0.272 OA
BRANCH  14  16
ATOM     16  N   UNL     1      -0.821  -2.701   0.990  0.00  0.00    -0.144 NA
ATOM     17  C   UNL     1      -0.802  -4.037   0.982  0.00  0.00    +0.222 A 
ATOM     18  N   UNL     1      -1.339  -4.834   0.039  0.00  0.00    -0.246 N 
ATOM     19  N   UNL     1      -1.097  -6.162   0.415  0.00  0.00    -0.153 NA
ATOM     20  C   UNL     1      -0.436  -6.152   1.550  0.00  0.00    +0.160 A 
ATOM     21  N   UNL     1      -0.232  -4.839   1.926  0.00  0.00    -0.271 N 
ATOM     22  C   UNL     1       0.446  -4.553   3.084  0.00  0.00    +0.096 A 
ATOM     23  C   UNL     1       0.922  -5.541   3.863  0.00  0.00    +0.018 A 
ATOM     24  C   UNL     1       0.733  -6.890   3.504  0.00  0.00    +0.005 A 
ATOM     25  C   UNL     1       0.058  -7.198   2.369  0.00  0.00    +0.048 A 
ATOM     26  H   UNL     1      -1.809  -4.542  -0.758  0.00  0.00    +0.192 HD
ENDBRANCH  14  16
ENDBRANCH   1  14
TORSDOF 5
