REMARK  Name = ZINC55590361
REMARK  7 active torsions:
REMARK  status: ('A' for Active; 'I' for Inactive)
REMARK    1  A    between atoms: C_1  and  C_2
REMARK    2  A    between atoms: C_2  and  C_3
REMARK    3  A    between atoms: C_2  and  O_4
REMARK    4  A    between atoms: O_4  and  C_5
REMARK    5  A    between atoms: C_10  and  N_11
REMARK    6  A    between atoms: N_11  and  S_12
REMARK    7  A    between atoms: S_12  and  C_15
REMARK                            x       y       z     vdW  Elec       q    Type
REMARK                         _______ _______ _______ _____ _____    ______ ____
ROOT
ATOM      1  S   UNL     1      -5.166  -2.275   0.526  0.00  0.00    +0.073 S 
ATOM      2  O   UNL     1      -6.001  -1.312   1.154  0.00  0.00    -0.150 OA
ATOM      3  O   UNL     1      -5.657  -3.200  -0.434  0.00  0.00    -0.150 OA
ENDROOT
BRANCH   1   4
ATOM      4  C   UNL     1      -4.439  -3.228   1.818  0.00  0.00    +0.111 A 
ATOM      5  C   UNL     1      -3.983  -4.509   1.556  0.00  0.00    +0.031 A 
ATOM      6  C   UNL     1      -3.412  -5.264   2.562  0.00  0.00    +0.030 A 
ATOM      7  C   UNL     1      -3.294  -4.736   3.839  0.00  0.00    +0.067 A 
ATOM      8  C   UNL     1      -3.753  -3.444   4.102  0.00  0.00    +0.069 A 
ATOM      9  C   UNL     1      -4.320  -2.692   3.085  0.00  0.00    +0.056 A 
ATOM     10  N   UNL     1      -3.502  -3.195   5.449  0.00  0.00    -0.306 N 
ATOM     11  H   UNL     1      -3.713  -2.376   5.924  0.00  0.00    +0.170 HD
ATOM     12  C   UNL     1      -2.917  -4.285   5.981  0.00  0.00    +0.325 A 
ATOM     13  O   UNL     1      -2.567  -4.397   7.141  0.00  0.00    -0.247 OA
ATOM     14  N   UNL     1      -2.778  -5.232   5.034  0.00  0.00    -0.306 N 
ATOM     15  H   UNL     1      -2.385  -6.109   5.162  0.00  0.00    +0.170 HD
ENDBRANCH   1   4
BRANCH   1  16
ATOM     16  N   UNL     1      -3.944  -1.434  -0.209  0.00  0.00    -0.213 N 
ATOM     17  H   UNL     1      -3.960  -0.464  -0.219  0.00  0.00    +0.174 HD
BRANCH  16  23
ATOM     18  C   UNL     1      -1.597  -1.598  -0.778  0.00  0.00    +0.143 A 
ATOM     19  C   UNL     1      -0.555  -2.287  -1.376  0.00  0.00    +0.047 A 
ATOM     20  C   UNL     1      -0.796  -3.489  -2.015  0.00  0.00    +0.004 A 
ATOM     21  C   UNL     1      -2.077  -4.008  -2.058  0.00  0.00    +0.002 A 
ATOM     22  C   UNL     1      -3.123  -3.327  -1.464  0.00  0.00    +0.028 A 
ATOM     23  C   UNL     1      -2.887  -2.123  -0.817  0.00  0.00    +0.090 A 
BRANCH  18  24
ATOM     24  O   UNL     1      -1.361  -0.415  -0.150  0.00  0.00    -0.487 OA
BRANCH  24  26
ATOM     25  C   UNL     1      -0.086   1.637  -0.065  0.00  0.00    +0.051 C 
ATOM     26  C   UNL     1      -0.039   0.118  -0.246  0.00  0.00    +0.167 C 
ATOM     27  C   UNL     1       0.839  -0.499   0.845  0.00  0.00    +0.051 C 
ENDBRANCH  24  26
ENDBRANCH  18  24
ENDBRANCH  16  23
ENDBRANCH   1  16
TORSDOF 5
