REMARK  Name = ZINC49244796
REMARK  7 active torsions:
REMARK  status: ('A' for Active; 'I' for Inactive)
REMARK    1  A    between atoms: C_4  and  N_24
REMARK    2  A    between atoms: C_5  and  N_7
REMARK    3  A    between atoms: N_7  and  C_8
REMARK    4  A    between atoms: C_8  and  C_9
REMARK    5  A    between atoms: C_9  and  N_10
REMARK    6  A    between atoms: C_11  and  C_13
REMARK    7  A    between atoms: N_15  and  C_16
REMARK                            x       y       z     vdW  Elec       q    Type
REMARK                         _______ _______ _______ _____ _____    ______ ____
ROOT
ATOM      1  N   UNL     1      -1.622  -3.355   1.688  0.00  0.00    -0.306 N 
ATOM      2  C   UNL     1      -1.965  -4.658   1.705  0.00  0.00    +0.299 C 
ATOM      3  O   UNL     1      -1.120  -5.510   1.520  0.00  0.00    -0.265 OA
ATOM      4  H   UNL     1      -2.297  -2.674   1.836  0.00  0.00    +0.149 HD
ENDROOT
BRANCH   2   5
ATOM      5  C   UNL     1      -3.383  -5.054   1.953  0.00  0.00    +0.303 C 
ATOM      6  O   UNL     1      -4.228  -4.202   2.138  0.00  0.00    -0.265 OA
ATOM      7  N   UNL     1      -3.726  -6.358   1.970  0.00  0.00    -0.278 N 
ATOM      8  H   UNL     1      -3.041  -7.040   1.896  0.00  0.00    +0.155 HD
BRANCH   7   9
ATOM      9  C   UNL     1      -5.068  -6.726   2.094  0.00  0.00    +0.037 A 
ATOM     10  C   UNL     1      -5.415  -7.856   2.825  0.00  0.00    +0.025 A 
ATOM     11  C   UNL     1      -6.742  -8.218   2.948  0.00  0.00    +0.025 A 
ATOM     12  C   UNL     1      -7.728  -7.457   2.343  0.00  0.00    +0.076 A 
ATOM     13  C   UNL     1      -7.386  -6.329   1.613  0.00  0.00    +0.143 A 
ATOM     14  C   UNL     1      -6.058  -5.960   1.493  0.00  0.00    +0.063 A 
ATOM     15  F   UNL     1      -8.349  -5.588   1.024  0.00  0.00    -0.204 F 
ATOM     16 CL   UNL     1      -9.394  -7.916   2.498  0.00  0.00    -0.081 Cl
ENDBRANCH   7   9
ENDBRANCH   2   5
BRANCH   1  17
ATOM     17  C   UNL     1      -0.231  -2.966   1.445  0.00  0.00    +0.123 C 
BRANCH  17  18
ATOM     18  C   UNL     1      -0.114  -1.441   1.477  0.00  0.00    +0.120 C 
BRANCH  18  19
ATOM     19  N   UNL     1       1.278  -1.053   1.234  0.00  0.00    -0.341 N 
ATOM     20  H   UNL     1       1.953  -1.734   1.086  0.00  0.00    +0.146 HD
BRANCH  19  25
ATOM     21  C   UNL     1       1.050   2.603   1.528  0.00  0.00    +0.002 A 
ATOM     22  C   UNL     1       2.336   2.974   1.180  0.00  0.00    +0.002 A 
ATOM     23  C   UNL     1       3.271   2.010   0.850  0.00  0.00    +0.034 A 
ATOM     24  C   UNL     1       2.924   0.674   0.867  0.00  0.00    +0.147 A 
ATOM     25  C   UNL     1       1.633   0.298   1.217  0.00  0.00    +0.058 A 
ATOM     26  C   UNL     1       0.696   1.269   1.548  0.00  0.00    +0.025 A 
BRANCH  24  27
ATOM     27  N   UNL     1       3.925  -0.357   0.513  0.00  0.00    +0.058 N 
ATOM     28  O   UNL     1       5.076  -0.225   0.859  0.00  0.00    -0.126 OA
ATOM     29  O   UNL     1       3.592  -1.331  -0.121  0.00  0.00    -0.126 OA
ENDBRANCH  24  27
ENDBRANCH  19  25
ENDBRANCH  18  19
ENDBRANCH  17  18
ENDBRANCH   1  17
TORSDOF 7
