REMARK  Name = ZINC04947687
REMARK  7 active torsions:
REMARK  status: ('A' for Active; 'I' for Inactive)
REMARK    1  A    between atoms: C_1  and  C_2
REMARK    2  A    between atoms: C_10  and  C_12
REMARK    3  A    between atoms: C_12  and  S_13
REMARK    4  A    between atoms: S_13  and  C_14
REMARK    5  A    between atoms: C_17  and  C_20
REMARK    6  A    between atoms: N_18  and  C_19
REMARK    7  A    between atoms: C_24  and  C_25
REMARK                            x       y       z     vdW  Elec       q    Type
REMARK                         _______ _______ _______ _____ _____    ______ ____
ROOT
ATOM      1  C   UNL     1      -2.481   0.849   0.047  0.00  0.00    +0.173 C 
ENDROOT
BRANCH   1  11
ATOM      2  C   UNL     1       4.912   1.009  -0.096  0.00  0.00    +0.047 C 
ATOM      3  C   UNL     1       3.581   1.708   0.016  0.00  0.00    -0.009 A 
ATOM      4  C   UNL     1       3.514   3.086   0.178  0.00  0.00    +0.063 A 
ATOM      5  C   UNL     1       2.277   3.695   0.279  0.00  0.00    +0.133 A 
ATOM      6  N   UNL     1       1.167   2.985   0.222  0.00  0.00    -0.237 NA
ATOM      7  C   UNL     1       1.189   1.671   0.068  0.00  0.00    +0.144 A 
ATOM      8  C   UNL     1       2.398   0.990  -0.035  0.00  0.00    +0.085 A 
ATOM      9 CL   UNL     1       2.423  -0.735  -0.229  0.00  0.00    -0.080 Cl
ATOM     10  N   UNL     1      -0.010   0.961   0.014  0.00  0.00    -0.269 N 
ATOM     11  C   UNL     1      -1.185   1.615   0.112  0.00  0.00    +0.229 C 
ATOM     12  O   UNL     1      -1.199   2.819   0.253  0.00  0.00    -0.275 OA
ATOM     13 CL   UNL     1       4.967   4.032   0.255  0.00  0.00    -0.082 Cl
ATOM     14  H   UNL     1       0.001  -0.002  -0.099  0.00  0.00    +0.156 HD
ENDBRANCH   1  11
BRANCH   1  15
ATOM     15  S   UNL     1      -3.870   1.998   0.208  0.00  0.00    -0.077 S 
BRANCH  15  16
ATOM     16  C   UNL     1      -5.217   0.867   0.101  0.00  0.00    +0.192 A 
ATOM     17  N   UNL     1      -5.131  -0.434  -0.052  0.00  0.00    -0.122 NA
ATOM     18  N   UNL     1      -6.306  -0.953  -0.091  0.00  0.00    -0.128 NA
ATOM     19  C   UNL     1      -7.215  -0.015   0.035  0.00  0.00    +0.168 A 
ATOM     20  N   UNL     1      -6.546   1.180   0.168  0.00  0.00    -0.305 N 
ATOM     21  C   UNL     1      -7.135   2.510   0.342  0.00  0.00    +0.153 C 
BRANCH  19  22
ATOM     22  C   UNL     1      -8.682  -0.206   0.041  0.00  0.00    +0.060 A 
ATOM     23  C   UNL     1      -9.680   0.572  -0.704  0.00  0.00    +0.053 A 
ATOM     24  C   UNL     1     -10.873   0.040  -0.391  0.00  0.00    +0.196 A 
ATOM     25  O   UNL     1     -10.689  -0.977   0.464  0.00  0.00    -0.467 OA
ATOM     26  C   UNL     1      -9.385  -1.144   0.731  0.00  0.00    +0.112 A 
ATOM     27  C   UNL     1      -8.800  -2.190   1.643  0.00  0.00    +0.087 C 
ENDBRANCH  19  22
ENDBRANCH  15  16
ENDBRANCH   1  15
TORSDOF 4
