REMARK  Name = ZINC61592387
REMARK  7 active torsions:
REMARK  status: ('A' for Active; 'I' for Inactive)
REMARK    1  A    between atoms: C_1  and  N_2
REMARK    2  A    between atoms: C_8  and  S_9
REMARK    3  A    between atoms: S_9  and  C_10
REMARK    4  A    between atoms: C_10  and  C_11
REMARK    5  A    between atoms: N_13  and  C_14
REMARK    6  A    between atoms: N_13  and  C_15
REMARK    7  A    between atoms: C_18  and  N_21
REMARK                            x       y       z     vdW  Elec       q    Type
REMARK                         _______ _______ _______ _____ _____    ______ ____
ROOT
ATOM      1  C   UNL     1       0.115  -1.472   5.221  0.00  0.00    +0.230 C 
ATOM      2  O   UNL     1       0.137  -0.313   5.578  0.00  0.00    -0.274 OA
ATOM      3  N   UNL     1       0.094  -2.460   6.138  0.00  0.00    -0.274 N 
ATOM      4  C   UNL     1      -0.049  -3.854   5.710  0.00  0.00    +0.138 C 
ENDROOT
BRANCH   3   5
ATOM      5  C   UNL     1       0.209  -2.153   7.500  0.00  0.00    +0.036 A 
ATOM      6  C   UNL     1      -0.808  -1.461   8.144  0.00  0.00    +0.025 A 
ATOM      7  C   UNL     1      -0.695  -1.159   9.487  0.00  0.00    +0.024 A 
ATOM      8  C   UNL     1       0.436  -1.548  10.193  0.00  0.00    +0.025 A 
ATOM      9  C   UNL     1       1.453  -2.240   9.549  0.00  0.00    +0.024 A 
ATOM     10  C   UNL     1       1.337  -2.547   8.208  0.00  0.00    +0.025 A 
BRANCH   8  11
ATOM     11  N   UNL     1       0.550  -1.242  11.553  0.00  0.00    -0.358 N 
ATOM     12  H   UNL     1      -0.160  -0.758  12.003  0.00  0.00    +0.142 HD
ATOM     13  H   UNL     1       1.340  -1.514  12.047  0.00  0.00    +0.142 HD
ENDBRANCH   8  11
ENDBRANCH   3   5
BRANCH   1  14
ATOM     14  C   UNL     1       0.112  -1.808   3.751  0.00  0.00    +0.173 C 
BRANCH  14  15
ATOM     15  S   UNL     1       0.143  -0.276   2.781  0.00  0.00    -0.077 S 
BRANCH  15  23
ATOM     16  C   UNL     1       0.181   1.443  -0.002  0.00  0.00    +0.156 C 
ATOM     17  N   UNL     1       0.153  -0.022  -0.006  0.00  0.00    -0.274 N 
ATOM     18  C   UNL     1       0.147  -0.808  -1.100  0.00  0.00    +0.345 A 
ATOM     19  O   UNL     1       0.163  -0.430  -2.258  0.00  0.00    -0.245 OA
ATOM     20  N   UNL     1       0.119  -2.090  -0.681  0.00  0.00    -0.226 N 
ATOM     21  H   UNL     1       0.109  -2.879  -1.246  0.00  0.00    +0.194 HD
ATOM     22  N   UNL     1       0.109  -2.073   0.721  0.00  0.00    -0.145 NA
ATOM     23  C   UNL     1       0.136  -0.831   1.108  0.00  0.00    +0.192 A 
ENDBRANCH  15  23
ENDBRANCH  14  15
ENDBRANCH   1  14
TORSDOF 5
