REMARK  Name = ZINC52176839
REMARK  6 active torsions:
REMARK  status: ('A' for Active; 'I' for Inactive)
REMARK    1  A    between atoms: C_1  and  C_2
REMARK    2  A    between atoms: C_2  and  C_3
REMARK    3  A    between atoms: C_2  and  C_4
REMARK    4  A    between atoms: C_2  and  C_5
REMARK    5  A    between atoms: C_7  and  C_12
REMARK    6  A    between atoms: N_9  and  C_10
REMARK                            x       y       z     vdW  Elec       q    Type
REMARK                         _______ _______ _______ _____ _____    ______ ____
ROOT
ATOM      1  C   UNL     1       0.613  -0.538  -1.270  0.00  0.00    +0.081 C 
ATOM      2  N   UNL     1      -0.056  -1.195  -2.151  0.00  0.00    -0.366 N 
ATOM      3  C   UNL     1       0.822  -1.437  -3.307  0.00  0.00    +0.145 C 
ATOM      4  C   UNL     1       2.132  -0.785  -2.911  0.00  0.00    +0.096 C 
ATOM      5  N   UNL     1       1.894  -0.263  -1.657  0.00  0.00    -0.282 N 
ATOM      6  C   UNL     1       2.873   0.475  -0.855  0.00  0.00    +0.138 C 
ATOM      7  N   UNL     1       3.226  -0.727  -3.597  0.00  0.00    -0.388 N 
ATOM      8  H   UNL     1       3.269  -1.132  -4.477  0.00  0.00    +0.157 HD
ATOM      9  H   UNL     1      -0.979  -1.482  -2.067  0.00  0.00    +0.161 HD
ATOM     10  H   UNL     1       4.004  -0.277  -3.232  0.00  0.00    +0.157 HD
ENDROOT
BRANCH   3  11
ATOM     11  C   UNL     1       1.015  -2.938  -3.530  0.00  0.00    +0.023 C 
ATOM     12  C   UNL     1       1.489  -3.593  -2.228  0.00  0.00    +0.034 C 
ATOM     13  C   UNL     1       1.604  -5.105  -2.439  0.00  0.00    +0.160 C 
ATOM     14  O   UNL     1       0.340  -5.623  -2.857  0.00  0.00    -0.380 OA
ATOM     15  C   UNL     1      -0.132  -5.083  -4.093  0.00  0.00    +0.160 C 
ATOM     16  C   UNL     1      -0.316  -3.570  -3.949  0.00  0.00    +0.034 C 
ENDBRANCH   3  11
BRANCH   1  18
ATOM     17  C   UNL     1      -0.092   1.416   0.084  0.00  0.00    +0.018 C 
ATOM     18  C   UNL     1       0.038  -0.108   0.055  0.00  0.00    +0.016 C 
ATOM     19  C   UNL     1       0.964  -0.563   1.184  0.00  0.00    +0.018 C 
ATOM     20  C   UNL     1      -1.342  -0.742   0.241  0.00  0.00    +0.018 C 
ENDBRANCH   1  18
TORSDOF 2
