REMARK  Name = ZINC40367138
REMARK  6 active torsions:
REMARK  status: ('A' for Active; 'I' for Inactive)
REMARK    1  A    between atoms: C_1  and  C_2
REMARK    2  A    between atoms: C_3  and  S_8
REMARK    3  A    between atoms: C_4  and  C_7
REMARK    4  A    between atoms: S_8  and  N_11
REMARK    5  A    between atoms: N_11  and  C_12
REMARK    6  A    between atoms: C_12  and  C_20
REMARK                            x       y       z     vdW  Elec       q    Type
REMARK                         _______ _______ _______ _____ _____    ______ ____
ROOT
ATOM      1  N   UNL     1       1.570  -0.091  -3.285  0.00  0.00    -0.170 NA
ATOM      2  H   UNL     1       1.908   0.787  -3.523  0.00  0.00    +0.150 HD
ENDROOT
BRANCH   1   3
ATOM      3  C   UNL     1       2.486  -1.260  -3.266  0.00  0.00    +0.126 C 
ATOM      4  C   UNL     1       1.894  -2.292  -4.228  0.00  0.00    +0.039 C 
ATOM      5  C   UNL     1       2.811  -2.581  -5.423  0.00  0.00    +0.003 C 
ATOM      6  C   UNL     1       3.436  -3.977  -5.208  0.00  0.00    +0.000 C 
ATOM      7  C   UNL     1       4.470  -3.907  -4.094  0.00  0.00    +0.000 C 
ATOM      8  C   UNL     1       5.355  -2.679  -4.252  0.00  0.00    +0.000 C 
ATOM      9  C   UNL     1       5.019  -1.644  -3.185  0.00  0.00    +0.003 C 
ATOM     10  C   UNL     1       3.865  -0.759  -3.625  0.00  0.00    +0.039 C 
BRANCH   3  11
ATOM     11  C   UNL     1       2.438  -1.800  -1.894  0.00  0.00    +0.086 C 
ATOM     12  N   UNL     1       2.400  -2.216  -0.838  0.00  0.00    -0.195 NA
ENDBRANCH   3  11
ENDBRANCH   1   3
BRANCH   1  13
ATOM     13  S   UNL     1      -0.029  -0.285  -2.898  0.00  0.00    +0.065 S 
ATOM     14  O   UNL     1      -0.524  -1.327  -3.728  0.00  0.00    -0.153 OA
ATOM     15  O   UNL     1      -0.603   1.014  -2.882  0.00  0.00    -0.153 OA
BRANCH  13  18
ATOM     16  C   UNL     1      -0.190   1.409  -0.033  0.00  0.00    +0.071 C 
ATOM     17  C   UNL     1      -0.162  -0.097  -0.080  0.00  0.00    +0.107 A 
ATOM     18  C   UNL     1      -0.095  -0.886  -1.243  0.00  0.00    +0.169 A 
ATOM     19  C   UNL     1      -0.090  -2.180  -0.871  0.00  0.00    +0.161 A 
ATOM     20  O   UNL     1      -0.151  -2.227   0.469  0.00  0.00    -0.358 OA
ATOM     21  N   UNL     1      -0.191  -0.895   0.949  0.00  0.00    -0.081 NA
ATOM     22  C   UNL     1      -0.027  -3.368  -1.796  0.00  0.00    +0.091 C 
ENDBRANCH  13  18
ENDBRANCH   1  13
TORSDOF 4
