REMARK  Name = ZINC35523466
REMARK  5 active torsions:
REMARK  status: ('A' for Active; 'I' for Inactive)
REMARK    1  A    between atoms: C_11  and  C_13
REMARK    2  A    between atoms: C_16  and  C_18
REMARK    3  A    between atoms: C_18  and  N_19
REMARK    4  A    between atoms: C_27  and  C_29
REMARK    5  A    between atoms: C_32  and  N_35
REMARK                            x       y       z     vdW  Elec       q    Type
REMARK                         _______ _______ _______ _____ _____    ______ ____
ROOT
ATOM      1  C   UNL     1       7.626   0.863   2.246  0.00  0.00    +0.159 C 
ENDROOT
BRANCH   1   2
ATOM      2  N   UNL     1       8.586   1.013   1.144  0.00  0.00    -0.281 NA
ATOM      3  C   UNL     1       7.898   1.039  -0.154  0.00  0.00    +0.107 C 
ATOM      4  C   UNL     1       8.910   0.810  -1.283  0.00  0.00    +0.137 C 
ATOM      5  N   UNL     1      10.034   1.733  -1.085  0.00  0.00    -0.348 N 
ATOM      6  C   UNL     1      10.986   2.096  -1.983  0.00  0.00    +0.086 A 
ATOM      7  C   UNL     1      11.823   2.968  -1.379  0.00  0.00    +0.019 A 
ATOM      8  C   UNL     1      11.366   3.147  -0.056  0.00  0.00    +0.024 A 
ATOM      9  C   UNL     1      10.276   2.382   0.097  0.00  0.00    +0.041 A 
ATOM     10  C   UNL     1       9.419   2.214   1.328  0.00  0.00    +0.134 C 
BRANCH  10  11
ATOM     11  C   UNL     1      10.297   2.044   2.541  0.00  0.00    -0.024 A 
ATOM     12  C   UNL     1      10.894   0.823   2.796  0.00  0.00    +0.008 A 
ATOM     13  C   UNL     1      11.700   0.667   3.908  0.00  0.00    +0.033 A 
ATOM     14  C   UNL     1      11.909   1.731   4.765  0.00  0.00    +0.126 A 
ATOM     15  C   UNL     1      11.313   2.952   4.510  0.00  0.00    +0.033 A 
ATOM     16  C   UNL     1      10.511   3.109   3.395  0.00  0.00    +0.008 A 
BRANCH  14  17
ATOM     17  N   UNL     1      12.771   1.563   5.957  0.00  0.00    +0.056 N 
ATOM     18  O   UNL     1      13.292   0.495   6.181  0.00  0.00    -0.126 OA
ATOM     19  O   UNL     1      12.955   2.494   6.706  0.00  0.00    -0.126 OA
ENDBRANCH  14  17
ENDBRANCH  10  11
ENDBRANCH   1   2
BRANCH   1  23
ATOM     20  C   UNL     1       5.545  -2.074   1.628  0.00  0.00    +0.190 A 
ATOM     21  C   UNL     1       6.510  -2.643   2.410  0.00  0.00    +0.055 A 
ATOM     22  C   UNL     1       7.413  -1.622   2.743  0.00  0.00    +0.047 A 
ATOM     23  C   UNL     1       6.966  -0.489   2.158  0.00  0.00    +0.120 A 
ATOM     24  O   UNL     1       5.843  -0.766   1.483  0.00  0.00    -0.454 OA
BRANCH  20  35
ATOM     25  C   UNL     1      -0.437   1.019   1.140  0.00  0.00    +0.000 A 
ATOM     26  C   UNL     1       0.681   1.831   1.165  0.00  0.00    +0.000 A 
ATOM     27  C   UNL     1       1.927   1.289   0.924  0.00  0.00    +0.005 A 
ATOM     28  C   UNL     1       2.065  -0.067   0.660  0.00  0.00    -0.027 A 
ATOM     29  C   UNL     1       0.954  -0.879   0.644  0.00  0.00    -0.041 A 
ATOM     30  C   UNL     1      -0.300  -0.329   0.880  0.00  0.00    +0.004 A 
ATOM     31  C   UNL     1       1.029  -2.363   0.395  0.00  0.00    +0.054 C 
ATOM     32  C   UNL     1       2.336  -2.731  -0.306  0.00  0.00    +0.113 C 
ATOM     33  N   UNL     1       3.436  -2.060   0.405  0.00  0.00    -0.290 N 
ATOM     34  C   UNL     1       3.453  -0.593   0.390  0.00  0.00    +0.143 C 
ATOM     35  C   UNL     1       4.391  -2.765   1.044  0.00  0.00    +0.282 C 
ATOM     36  O   UNL     1       4.295  -3.974   1.137  0.00  0.00    -0.267 OA
ENDBRANCH  20  35
ENDBRANCH   1  23
TORSDOF 5
