REMARK  Name = ZINC20548776
REMARK  9 active torsions:
REMARK  status: ('A' for Active; 'I' for Inactive)
REMARK    1  A    between atoms: C_1  and  C_2
REMARK    2  A    between atoms: C_2  and  C_3
REMARK    3  A    between atoms: C_3  and  C_4
REMARK    4  A    between atoms: C_4  and  N_5
REMARK    5  A    between atoms: C_10  and  C_29
REMARK    6  A    between atoms: C_21  and  C_28
REMARK    7  A    between atoms: C_22  and  C_27
REMARK    8  A    between atoms: C_29  and  C_30
REMARK    9  A    between atoms: C_30  and  C_31
REMARK                            x       y       z     vdW  Elec       q    Type
REMARK                         _______ _______ _______ _____ _____    ______ ____
ROOT
ATOM      1  N   UNL     1       1.471  -2.526   2.420  0.00  0.00    -0.242 N 
ATOM      2  C   UNL     1       2.791  -2.744   2.436  0.00  0.00    +0.227 C 
ATOM      3  O   UNL     1       3.541  -2.571   1.499  0.00  0.00    -0.275 OA
ATOM      4  C   UNL     1       3.203  -3.240   3.804  0.00  0.00    +0.107 C 
ATOM      5  C   UNL     1       3.643  -4.715   3.697  0.00  0.00    +0.068 C 
ATOM      6  N   UNL     1       2.970  -5.397   4.835  0.00  0.00    -0.295 NA
ATOM      7  C   UNL     1       1.639  -4.766   4.899  0.00  0.00    +0.136 C 
ATOM      8  C   UNL     1       1.864  -3.264   4.593  0.00  0.00    +0.122 C 
ATOM      9  C   UNL     1       0.852  -2.782   3.578  0.00  0.00    +0.228 C 
ATOM     10  O   UNL     1      -0.336  -2.651   3.781  0.00  0.00    -0.275 OA
ATOM     11  C   UNL     1       0.682  -5.398   3.929  0.00  0.00    +0.004 A 
ATOM     12  C   UNL     1       0.683  -5.555   2.561  0.00  0.00    +0.008 A 
ATOM     13  C   UNL     1      -0.369  -6.202   1.937  0.00  0.00    +0.004 A 
ATOM     14  C   UNL     1      -1.421  -6.689   2.690  0.00  0.00    -0.046 A 
ATOM     15  C   UNL     1      -1.427  -6.533   4.061  0.00  0.00    -0.026 A 
ATOM     16  C   UNL     1      -0.372  -5.885   4.697  0.00  0.00    +0.042 A 
ATOM     17  N   UNL     1      -0.152  -5.609   6.048  0.00  0.00    -0.283 N 
ATOM     18  C   UNL     1       1.008  -4.955   6.251  0.00  0.00    +0.243 C 
ATOM     19  O   UNL     1       1.455  -4.588   7.317  0.00  0.00    -0.273 OA
ATOM     20  C   UNL     1      -2.580  -7.067   4.872  0.00  0.00    +0.046 C 
ATOM     21  C   UNL     1      -2.567  -7.394   2.010  0.00  0.00    +0.044 C 
ATOM     22  H   UNL     1       2.893  -6.389   4.667  0.00  0.00    +0.123 HD
ATOM     23  H   UNL     1      -0.763  -5.860   6.758  0.00  0.00    +0.155 HD
ENDROOT
BRANCH   1  24
ATOM     24  C   UNL     1       0.763  -2.041   1.233  0.00  0.00    +0.116 C 
BRANCH  24  25
ATOM     25  C   UNL     1       0.742  -0.511   1.242  0.00  0.00    +0.019 C 
BRANCH  25  27
ATOM     26  C   UNL     1      -0.019   1.526   0.010  0.00  0.00    +0.004 C 
ATOM     27  C   UNL     1       0.002  -0.004   0.002  0.00  0.00    -0.002 C 
ENDBRANCH  25  27
ENDBRANCH  24  25
ENDBRANCH   1  24
BRANCH   5  28
ATOM     28  C   UNL     1       5.163  -4.829   3.828  0.00  0.00    +0.028 C 
BRANCH  28  29
ATOM     29  C   UNL     1       5.588  -6.280   3.595  0.00  0.00    +0.097 C 
BRANCH  29  30
ATOM     30  C   UNL     1       7.085  -6.391   3.724  0.00  0.00    +0.211 C 
ATOM     31  O   UNL     1       7.747  -5.407   3.978  0.00  0.00    -0.276 OA
ATOM     32  N   UNL     1       7.689  -7.585   3.558  0.00  0.00    -0.329 N 
ATOM     33  H   UNL     1       7.160  -8.372   3.355  0.00  0.00    +0.145 HD
ATOM     34  H   UNL     1       8.653  -7.656   3.642  0.00  0.00    +0.145 HD
ENDBRANCH  29  30
ENDBRANCH  28  29
ENDBRANCH   5  28
TORSDOF 6
