REMARK  Name = ZINC02704163
REMARK  6 active torsions:
REMARK  status: ('A' for Active; 'I' for Inactive)
REMARK    1  A    between atoms: C_1  and  C_2
REMARK    2  A    between atoms: C_5  and  C_8
REMARK    3  A    between atoms: C_8  and  N_9
REMARK    4  A    between atoms: C_10  and  C_26
REMARK    5  A    between atoms: C_17  and  C_25
REMARK    6  A    between atoms: C_30  and  O_32
REMARK                            x       y       z     vdW  Elec       q    Type
REMARK                         _______ _______ _______ _____ _____    ______ ____
ROOT
ATOM      1  N   UNL     1      -0.760   2.005  -1.153  0.00  0.00    -0.279 N 
ATOM      2  C   UNL     1      -0.018   1.503   0.010  0.00  0.00    +0.145 C 
ATOM      3  C   UNL     1      -0.757   2.005   1.224  0.00  0.00    +0.072 A 
ATOM      4  C   UNL     1      -0.524   1.849   2.663  0.00  0.00    +0.199 A 
ATOM      5  O   UNL     1       0.420   1.210   3.092  0.00  0.00    -0.287 OA
ATOM      6  C   UNL     1      -1.490   2.507   3.565  0.00  0.00    +0.065 A 
ATOM      7  C   UNL     1      -1.363   2.425   4.950  0.00  0.00    +0.018 A 
ATOM      8  C   UNL     1      -2.279   3.049   5.751  0.00  0.00    -0.050 A 
ATOM      9  C   UNL     1      -3.331   3.760   5.191  0.00  0.00    +0.007 A 
ATOM     10  C   UNL     1      -3.472   3.852   3.823  0.00  0.00    +0.047 A 
ATOM     11  C   UNL     1      -2.551   3.225   2.988  0.00  0.00    +0.139 A 
ATOM     12  O   UNL     1      -2.674   3.305   1.651  0.00  0.00    -0.450 OA
ATOM     13  C   UNL     1      -1.819   2.724   0.786  0.00  0.00    +0.199 A 
ATOM     14  C   UNL     1      -1.809   2.715  -0.699  0.00  0.00    +0.283 C 
ATOM     15  O   UNL     1      -2.629   3.271  -1.402  0.00  0.00    -0.267 OA
ATOM     16  C   UNL     1      -2.147   2.963   7.250  0.00  0.00    +0.044 C 
ENDROOT
BRANCH   2  17
ATOM     17  C   UNL     1       0.002  -0.004   0.002  0.00  0.00    -0.019 A 
ATOM     18  C   UNL     1      -1.123  -0.708  -0.387  0.00  0.00    +0.006 A 
ATOM     19  C   UNL     1      -1.107  -2.090  -0.397  0.00  0.00    +0.004 A 
ATOM     20  C   UNL     1       0.033  -2.772  -0.016  0.00  0.00    +0.045 A 
ATOM     21  C   UNL     1       1.163  -2.068   0.375  0.00  0.00    +0.117 A 
ATOM     22  C   UNL     1       1.146  -0.681   0.378  0.00  0.00    +0.051 A 
BRANCH  21  23
ATOM     23  O   UNL     1       2.285  -2.736   0.749  0.00  0.00    -0.507 OA
ATOM     24  H   UNL     1       2.894  -2.921   0.020  0.00  0.00    +0.292 HD
ENDBRANCH  21  23
ENDBRANCH   2  17
BRANCH   1  25
ATOM     25  C   UNL     1      -0.419   1.772  -2.558  0.00  0.00    +0.144 C 
BRANCH  25  30
ATOM     26  C   UNL     1      -3.026  -3.043  -4.405  0.00  0.00    +0.044 C 
ATOM     27  C   UNL     1      -2.346  -1.787  -3.923  0.00  0.00    -0.050 A 
ATOM     28  C   UNL     1      -2.985  -0.567  -4.040  0.00  0.00    +0.003 A 
ATOM     29  C   UNL     1      -2.361   0.585  -3.598  0.00  0.00    +0.005 A 
ATOM     30  C   UNL     1      -1.099   0.517  -3.040  0.00  0.00    -0.030 A 
ATOM     31  C   UNL     1      -0.457  -0.703  -2.928  0.00  0.00    +0.005 A 
ATOM     32  C   UNL     1      -1.083  -1.855  -3.365  0.00  0.00    +0.003 A 
ENDBRANCH  25  30
ENDBRANCH   1  25
TORSDOF 4
