REMARK  Name = ZINC15862643
REMARK  7 active torsions:
REMARK  status: ('A' for Active; 'I' for Inactive)
REMARK    1  A    between atoms: C_6  and  N_7
REMARK    2  A    between atoms: N_7  and  S_8
REMARK    3  A    between atoms: S_8  and  C_11
REMARK    4  A    between atoms: C_19  and  C_33
REMARK    5  A    between atoms: N_26  and  C_29
REMARK    6  A    between atoms: C_29  and  C_30
REMARK    7  A    between atoms: C_30  and  C_31
REMARK                            x       y       z     vdW  Elec       q    Type
REMARK                         _______ _______ _______ _____ _____    ______ ____
ROOT
ATOM      1  C   UNL     1       2.124   3.084  -2.380  0.00  0.00    +0.029 A 
ATOM      2  C   UNL     1       1.334   3.796  -3.227  0.00  0.00    +0.028 A 
ATOM      3  C   UNL     1       1.917   4.603  -4.221  0.00  0.00    +0.049 A 
ATOM      4  C   UNL     1       3.330   4.665  -4.319  0.00  0.00    +0.014 A 
ATOM      5  C   UNL     1       4.123   3.930  -3.434  0.00  0.00    +0.037 A 
ATOM      6  C   UNL     1       3.519   3.148  -2.470  0.00  0.00    +0.075 A 
ATOM      7  C   UNL     1       3.925   5.510  -5.357  0.00  0.00    +0.075 A 
ATOM      8  C   UNL     1       3.056   6.203  -6.188  0.00  0.00    +0.057 A 
ATOM      9  C   UNL     1       1.674   6.070  -6.004  0.00  0.00    +0.100 A 
ATOM     10  N   UNL     1       1.159   5.307  -5.066  0.00  0.00    -0.343 N 
ATOM     11  N   UNL     1       0.816   6.770  -6.843  0.00  0.00    -0.314 N 
ATOM     12  C   UNL     1       1.103   8.211  -6.805  0.00  0.00    +0.122 C 
ATOM     13  C   UNL     1       0.192   8.935  -7.800  0.00  0.00    +0.103 C 
ATOM     14  N   UNL     1      -1.212   8.671  -7.456  0.00  0.00    -0.298 NA
ATOM     15  C   UNL     1      -1.498   7.230  -7.493  0.00  0.00    +0.103 C 
ATOM     16  C   UNL     1      -0.588   6.506  -6.499  0.00  0.00    +0.122 C 
ATOM     17  H   UNL     1       0.063   5.260  -4.992  0.00  0.00    +0.167 HD
ENDROOT
BRANCH   7  18
ATOM     18  C   UNL     1       5.389   5.618  -5.513  0.00  0.00    +0.387 C 
ATOM     19  O   UNL     1       6.127   5.084  -4.710  0.00  0.00    -0.241 OA
ATOM     20  O   UNL     1       5.907   6.310  -6.547  0.00  0.00    -0.241 OA
ENDBRANCH   7  18
BRANCH   6  21
ATOM     21  N   UNL     1       4.305   2.411  -1.584  0.00  0.00    -0.098 NA
BRANCH  21  22
ATOM     22  S   UNL     1       5.109   3.178  -0.356  0.00  0.00    +0.092 S 
ATOM     23  O   UNL     1       5.813   4.262  -0.946  0.00  0.00    -0.148 OA
ATOM     24  O   UNL     1       5.763   2.165   0.397  0.00  0.00    -0.148 OA
BRANCH  22  25
ATOM     25  C   UNL     1       3.891   3.885   0.703  0.00  0.00    +0.113 A 
ATOM     26  C   UNL     1       3.514   5.205   0.537  0.00  0.00    +0.032 A 
ATOM     27  C   UNL     1       2.559   5.761   1.366  0.00  0.00    +0.043 A 
ATOM     28  C   UNL     1       1.977   4.997   2.363  0.00  0.00    +0.159 A 
ATOM     29  C   UNL     1       2.355   3.674   2.529  0.00  0.00    +0.160 A 
ATOM     30  C   UNL     1       3.312   3.119   1.697  0.00  0.00    +0.070 A 
ATOM     31  F   UNL     1       1.789   2.926   3.502  0.00  0.00    -0.202 F 
ATOM     32  F   UNL     1       1.043   5.541   3.173  0.00  0.00    -0.202 F 
ENDBRANCH  22  25
ENDBRANCH  21  22
ENDBRANCH   6  21
BRANCH  14  33
ATOM     33  C   UNL     1      -2.119   9.412  -8.343  0.00  0.00    +0.099 C 
BRANCH  33  34
ATOM     34  C   UNL     1      -1.638  10.858  -8.472  0.00  0.00    +0.134 C 
BRANCH  34  35
ATOM     35  C   UNL     1      -2.547  11.600  -9.361  0.00  0.00    +0.064 C 
ATOM     36  N   UNL     1      -3.249  12.173 -10.047  0.00  0.00    -0.197 NA
ENDBRANCH  34  35
ENDBRANCH  33  34
ENDBRANCH  14  33
TORSDOF 7
