REMARK  Name = ZINC33812734
REMARK  13 active torsions:
REMARK  status: ('A' for Active; 'I' for Inactive)
REMARK    1  A    between atoms: C_1  and  C_2
REMARK    2  A    between atoms: C_2  and  C_3
REMARK    3  A    between atoms: C_3  and  C_4
REMARK    4  A    between atoms: C_4  and  N_5
REMARK    5  A    between atoms: C_6  and  N_28
REMARK    6  A    between atoms: C_7  and  C_15
REMARK    7  A    between atoms: C_8  and  C_14
REMARK    8  A    between atoms: C_9  and  C_12
REMARK    9  A    between atoms: N_19  and  C_23
REMARK   10  A    between atoms: C_23  and  C_25
REMARK   11  A    between atoms: C_23  and  C_26
REMARK   12  A    between atoms: C_26  and  C_27
REMARK   13  A    between atoms: N_31  and  C_34
REMARK                            x       y       z     vdW  Elec       q    Type
REMARK                         _______ _______ _______ _____ _____    ______ ____
ROOT
ATOM      1  N   UNL     1      -3.154  -2.636  -0.404  0.00  0.00    -0.295 N 
ATOM      2  C   UNL     1      -3.611  -2.818   0.861  0.00  0.00    +0.112 A 
ATOM      3  C   UNL     1      -4.746  -3.610   1.103  0.00  0.00    +0.019 A 
ATOM      4  C   UNL     1      -5.410  -4.215   0.023  0.00  0.00    -0.017 A 
ATOM      5  C   UNL     1      -4.922  -4.012  -1.265  0.00  0.00    +0.120 A 
ATOM      6  C   UNL     1      -3.775  -3.200  -1.456  0.00  0.00    +0.270 A 
ATOM      7  O   UNL     1      -3.346  -3.014  -2.582  0.00  0.00    -0.266 OA
ATOM      8  C   UNL     1      -6.629  -5.069   0.254  0.00  0.00    +0.046 C 
ENDROOT
BRANCH   3   9
ATOM      9  C   UNL     1      -5.233  -3.804   2.470  0.00  0.00    +0.032 C 
ATOM     10  C   UNL     1      -6.442  -3.300   2.840  0.00  0.00    +0.077 C 
ATOM     11  C   UNL     1      -7.344  -2.471   2.105  0.00  0.00    +0.259 C 
ATOM     12  O   UNL     1      -7.082  -2.109   0.972  0.00  0.00    -0.269 OA
ATOM     13  N   UNL     1      -8.472  -2.110   2.692  0.00  0.00    -0.252 N 
ATOM     14  C   UNL     1      -8.762  -2.512   3.949  0.00  0.00    +0.121 C 
ATOM     15  S   UNL     1     -10.149  -2.167   4.892  0.00  0.00    -0.027 S 
ATOM     16  S   UNL     1      -7.336  -3.500   4.375  0.00  0.00    -0.061 S 
BRANCH  13  17
ATOM     17  C   UNL     1      -9.421  -1.261   1.968  0.00  0.00    +0.080 C 
ATOM     18  C   UNL     1     -10.758  -1.993   1.829  0.00  0.00    +0.028 C 
BRANCH  17  19
ATOM     19  C   UNL     1      -9.632   0.043   2.741  0.00  0.00    +0.019 C 
ATOM     20  C   UNL     1      -8.323   0.834   2.772  0.00  0.00    +0.006 C 
ENDBRANCH  17  19
ENDBRANCH  13  17
ENDBRANCH   3   9
BRANCH   2  21
ATOM     21  N   UNL     1      -2.962  -2.228   1.907  0.00  0.00    -0.320 N 
ATOM     22  C   UNL     1      -3.407  -0.931   2.438  0.00  0.00    +0.088 C 
ATOM     23  C   UNL     1      -3.551  -1.052   3.958  0.00  0.00    -0.060 C 
ATOM     24  N   UNL     1      -2.291  -1.542   4.531  0.00  0.00    +0.380 N 
ATOM     25  C   UNL     1      -2.018  -2.902   4.051  0.00  0.00    -0.060 C 
ATOM     26  C   UNL     1      -1.801  -2.875   2.538  0.00  0.00    +0.088 C 
ATOM     27  C   UNL     1      -2.393  -1.553   5.997  0.00  0.00    -0.096 C 
ATOM     28  H   UNL     1      -1.537  -0.931   4.254  0.00  0.00    -0.082 HD
ENDBRANCH   2  21
BRANCH   5  29
ATOM     29  C   UNL     1      -5.575  -4.614  -2.388  0.00  0.00    +0.105 C 
ATOM     30  N   UNL     1      -6.094  -5.092  -3.279  0.00  0.00    -0.191 NA
ENDBRANCH   5  29
BRANCH   1  31
ATOM     31  C   UNL     1      -1.968  -1.806  -0.629  0.00  0.00    +0.126 C 
BRANCH  31  32
ATOM     32  C   UNL     1      -2.401  -0.377  -0.961  0.00  0.00    +0.021 C 
BRANCH  32  34
ATOM     33  C   UNL     1      -1.596   1.920  -1.527  0.00  0.00    +0.004 C 
ATOM     34  C   UNL     1      -1.163   0.490  -1.195  0.00  0.00    -0.002 C 
ENDBRANCH  32  34
ENDBRANCH  31  32
ENDBRANCH   1  31
TORSDOF 8
