REMARK  Name = ZINC14882646
REMARK  6 active torsions:
REMARK  status: ('A' for Active; 'I' for Inactive)
REMARK    1  A    between atoms: C_15  and  O_18
REMARK    2  A    between atoms: O_18  and  C_19
REMARK    3  A    between atoms: C_19  and  C_20
REMARK    4  A    between atoms: C_25  and  C_28
REMARK    5  A    between atoms: C_28  and  C_30
REMARK    6  A    between atoms: C_28  and  O_35
REMARK                            x       y       z     vdW  Elec       q    Type
REMARK                         _______ _______ _______ _____ _____    ______ ____
ROOT
ATOM      1  C   UNL     1       1.043  -8.119  -2.101  0.00  0.00    +0.005 A 
ATOM      2  C   UNL     1       0.355  -8.759  -1.077  0.00  0.00    +0.018 A 
ATOM      3  C   UNL     1      -0.264  -8.002  -0.103  0.00  0.00    +0.084 A 
ATOM      4  C   UNL     1       0.435  -6.038  -1.093  0.00  0.00    +0.099 A 
ATOM      5  C   UNL     1       1.082  -6.737  -2.107  0.00  0.00    +0.042 A 
ATOM      6  N   UNL     1       0.466  -4.648  -1.086  0.00  0.00    -0.314 N 
ATOM      7  C   UNL     1      -0.274  -4.110   0.064  0.00  0.00    +0.125 C 
ATOM      8  C   UNL     1      -0.283  -2.581  -0.008  0.00  0.00    +0.125 C 
ATOM      9  N   UNL     1       1.100  -2.086  -0.019  0.00  0.00    -0.311 N 
ATOM     10  C   UNL     1       1.840  -2.623  -1.169  0.00  0.00    +0.125 C 
ATOM     11  C   UNL     1       1.850  -4.152  -1.097  0.00  0.00    +0.125 C 
ATOM     12  C   UNL     1       1.132  -0.693  -0.013  0.00  0.00    +0.144 A 
ATOM     13  C   UNL     1       2.354  -0.021  -0.021  0.00  0.00    +0.051 A 
ATOM     14  C   UNL     1       2.334   1.363  -0.013  0.00  0.00    +0.072 A 
ATOM     15  C   UNL     1       1.093   1.999   0.002  0.00  0.00    +0.235 A 
ATOM     16  N   UNL     1      -0.015   1.279   0.009  0.00  0.00    -0.110 NA
ATOM     17  N   UNL     1       0.002  -0.004   0.002  0.00  0.00    -0.131 NA
ATOM     18  N   UNL     1      -0.241  -6.643  -0.074  0.00  0.00    -0.350 N 
ATOM     19  H   UNL     1      -0.704  -6.106   0.669  0.00  0.00    +0.166 HD
ENDROOT
BRANCH  15  20
ATOM     20  O   UNL     1       1.023   3.355   0.010  0.00  0.00    -0.466 OA
BRANCH  20  21
ATOM     21  C   UNL     1      -0.281   3.938   0.025  0.00  0.00    +0.326 C 
BRANCH  21  22
ATOM     22  C   UNL     1      -0.161   5.440   0.031  0.00  0.00    +0.253 C 
ATOM     23  O   UNL     1       0.935   5.960   0.024  0.00  0.00    -0.272 OA
ATOM     24  N   UNL     1      -1.270   6.205   0.046  0.00  0.00    -0.299 N 
ATOM     25  C   UNL     1      -2.604   5.589   0.049  0.00  0.00    +0.108 C 
ATOM     26  C   UNL     1      -3.423   6.170  -1.103  0.00  0.00    +0.025 C 
ATOM     27  C   UNL     1      -3.434   7.696  -0.999  0.00  0.00    +0.026 C 
ATOM     28  C   UNL     1      -2.003   8.228  -1.105  0.00  0.00    +0.025 C 
ATOM     29  C   UNL     1      -1.169   7.671   0.052  0.00  0.00    +0.108 C 
BRANCH  27  30
ATOM     30  C   UNL     1      -4.280   8.278  -2.134  0.00  0.00    +0.154 C 
BRANCH  30  31
ATOM     31  C   UNL     1      -5.689   7.755  -2.029  0.00  0.00    +0.018 A 
ATOM     32  C   UNL     1      -6.254   6.692  -2.653  0.00  0.00    +0.014 A 
ATOM     33  C   UNL     1      -7.580   6.394  -2.402  0.00  0.00    +0.008 A 
ATOM     34  C   UNL     1      -8.277   7.174  -1.538  0.00  0.00    +0.045 A 
ATOM     35  S   UNL     1      -7.046   8.369  -1.045  0.00  0.00    -0.099 S 
ENDBRANCH  30  31
BRANCH  30  36
ATOM     36  O   UNL     1      -4.293   9.704  -2.036  0.00  0.00    -0.386 OA
ATOM     37  H   UNL     1      -4.660  10.038  -1.206  0.00  0.00    +0.210 HD
ENDBRANCH  30  36
ENDBRANCH  27  30
ENDBRANCH  21  22
ENDBRANCH  20  21
ENDBRANCH  15  20
TORSDOF 6
