REMARK  Name = ZINC18057172
REMARK  11 active torsions:
REMARK  status: ('A' for Active; 'I' for Inactive)
REMARK    1  A    between atoms: C_1  and  C_2
REMARK    2  A    between atoms: C_5  and  N_9
REMARK    3  A    between atoms: C_6  and  C_8
REMARK    4  A    between atoms: N_9  and  S_10
REMARK    5  A    between atoms: S_10  and  C_13
REMARK    6  A    between atoms: C_16  and  N_22
REMARK    7  A    between atoms: C_17  and  N_19
REMARK    8  A    between atoms: N_22  and  C_23
REMARK    9  A    between atoms: N_22  and  C_24
REMARK   10  A    between atoms: C_24  and  C_25
REMARK   11  A    between atoms: N_27  and  C_28
REMARK                            x       y       z     vdW  Elec       q    Type
REMARK                         _______ _______ _______ _____ _____    ______ ____
ROOT
ATOM      1  C   UNL     1       1.495   2.886   1.279  0.00  0.00    +0.111 A 
ATOM      2  C   UNL     1       0.974   4.165   1.193  0.00  0.00    +0.031 A 
ATOM      3  C   UNL     1       1.034   5.011   2.283  0.00  0.00    +0.027 A 
ATOM      4  C   UNL     1       1.628   4.580   3.463  0.00  0.00    +0.061 A 
ATOM      5  C   UNL     1       2.155   3.297   3.543  0.00  0.00    +0.149 A 
ATOM      6  C   UNL     1       2.087   2.455   2.451  0.00  0.00    +0.063 A 
ENDROOT
BRANCH   1   7
ATOM      7  S   UNL     1       1.410   1.808  -0.112  0.00  0.00    +0.072 S 
ATOM      8  O   UNL     1       2.458   0.861   0.044  0.00  0.00    -0.150 OA
ATOM      9  O   UNL     1       1.296   2.636  -1.261  0.00  0.00    -0.150 OA
BRANCH   7  10
ATOM     10  N   UNL     1      -0.011   0.966   0.007  0.00  0.00    -0.216 N 
ATOM     11  H   UNL     1       0.003  -0.002   0.070  0.00  0.00    +0.174 HD
BRANCH  10  16
ATOM     12  C   UNL     1      -4.959   3.737   0.022  0.00  0.00    +0.044 C 
ATOM     13  C   UNL     1      -3.644   3.001   0.018  0.00  0.00    -0.050 A 
ATOM     14  C   UNL     1      -2.596   3.463  -0.757  0.00  0.00    +0.005 A 
ATOM     15  C   UNL     1      -1.390   2.791  -0.763  0.00  0.00    +0.025 A 
ATOM     16  C   UNL     1      -1.230   1.649   0.011  0.00  0.00    +0.051 A 
ATOM     17  C   UNL     1      -2.285   1.185   0.786  0.00  0.00    -0.028 A 
ATOM     18  C   UNL     1      -3.487   1.865   0.791  0.00  0.00    +0.008 A 
ATOM     19  C   UNL     1      -2.117  -0.057   1.623  0.00  0.00    +0.046 C 
ENDBRANCH  10  16
ENDBRANCH   7  10
ENDBRANCH   1   7
BRANCH   5  20
ATOM     20  N   UNL     1       2.788   2.834   4.798  0.00  0.00    +0.058 N 
ATOM     21  O   UNL     1       3.250   1.709   4.868  0.00  0.00    -0.126 OA
ATOM     22  O   UNL     1       2.848   3.578   5.761  0.00  0.00    -0.126 OA
ENDBRANCH   5  20
BRANCH   4  23
ATOM     23  N   UNL     1       1.695   5.435   4.566  0.00  0.00    -0.322 N 
ATOM     24  C   UNL     1       0.351   5.763   5.059  0.00  0.00    +0.130 C 
BRANCH  23  25
ATOM     25  C   UNL     1       2.449   6.653   4.242  0.00  0.00    +0.200 C 
BRANCH  25  26
ATOM     26  C   UNL     1       2.712   7.431   5.506  0.00  0.00    +0.230 C 
ATOM     27  O   UNL     1       2.310   7.013   6.571  0.00  0.00    -0.274 OA
ATOM     28  N   UNL     1       3.393   8.593   5.453  0.00  0.00    -0.317 N 
ATOM     29  C   UNL     1       3.648   9.350   6.681  0.00  0.00    +0.128 C 
ATOM     30  H   UNL     1       3.715   8.928   4.601  0.00  0.00    +0.148 HD
ENDBRANCH  25  26
ENDBRANCH  23  25
ENDBRANCH   4  23
TORSDOF 7
