REMARK  Name = ZINC61979697
REMARK  6 active torsions:
REMARK  status: ('A' for Active; 'I' for Inactive)
REMARK    1  A    between atoms: C_1  and  N_2
REMARK    2  A    between atoms: N_2  and  C_3
REMARK    3  A    between atoms: N_2  and  S_11
REMARK    4  A    between atoms: C_6  and  C_9
REMARK    5  A    between atoms: S_11  and  C_14
REMARK    6  A    between atoms: C_19  and  N_20
REMARK                            x       y       z     vdW  Elec       q    Type
REMARK                         _______ _______ _______ _____ _____    ______ ____
ROOT
ATOM      1  S   UNL     1      -0.000  -0.824  -1.437  0.00  0.00    +0.076 S 
ATOM      2  O   UNL     1      -0.531  -2.115  -1.167  0.00  0.00    -0.150 OA
ATOM      3  O   UNL     1      -0.572   0.049  -2.401  0.00  0.00    -0.150 OA
ENDROOT
BRANCH   1   4
ATOM      4  C   UNL     1       1.682  -1.059  -1.905  0.00  0.00    +0.132 A 
ATOM      5  C   UNL     1       2.208  -2.335  -1.976  0.00  0.00    +0.069 A 
ATOM      6  C   UNL     1       3.530  -2.520  -2.344  0.00  0.00    +0.125 A 
ATOM      7  C   UNL     1       4.327  -1.428  -2.642  0.00  0.00    +0.040 A 
ATOM      8  C   UNL     1       3.805  -0.151  -2.573  0.00  0.00    +0.027 A 
ATOM      9  C   UNL     1       2.478   0.037  -2.209  0.00  0.00    +0.052 A 
ATOM     10  F   UNL     1       4.042  -3.768  -2.413  0.00  0.00    -0.205 F 
BRANCH   9  11
ATOM     11  N   UNL     1       1.946   1.328  -2.144  0.00  0.00    -0.356 N 
ATOM     12  H   UNL     1       1.020   1.459  -1.886  0.00  0.00    +0.142 HD
ATOM     13  H   UNL     1       2.503   2.093  -2.357  0.00  0.00    +0.142 HD
ENDBRANCH   9  11
ENDBRANCH   1   4
BRANCH   1  15
ATOM     14  C   UNL     1      -0.018   1.461   0.010  0.00  0.00    +0.157 C 
ATOM     15  N   UNL     1       0.002  -0.004   0.002  0.00  0.00    -0.206 N 
BRANCH  15  16
ATOM     16  C   UNL     1       0.023  -0.706   1.204  0.00  0.00    +0.051 A 
ATOM     17  C   UNL     1       0.556  -1.991   1.247  0.00  0.00    +0.026 A 
ATOM     18  C   UNL     1       0.578  -2.689   2.434  0.00  0.00    +0.021 A 
ATOM     19  C   UNL     1       0.065  -2.105   3.596  0.00  0.00    +0.052 A 
ATOM     20  C   UNL     1      -0.470  -0.814   3.548  0.00  0.00    +0.021 A 
ATOM     21  C   UNL     1      -0.484  -0.120   2.360  0.00  0.00    +0.026 A 
BRANCH  19  22
ATOM     22  C   UNL     1       0.086  -2.828   4.832  0.00  0.00    +0.099 C 
ATOM     23  N   UNL     1       0.103  -3.401   5.812  0.00  0.00    -0.191 NA
ENDBRANCH  19  22
ENDBRANCH  15  16
ENDBRANCH   1  15
TORSDOF 5
