REMARK  Name = ZINC02778300
REMARK  8 active torsions:
REMARK  status: ('A' for Active; 'I' for Inactive)
REMARK    1  A    between atoms: C_1  and  C_2
REMARK    2  A    between atoms: C_3  and  C_21
REMARK    3  A    between atoms: C_4  and  N_12
REMARK    4  A    between atoms: C_6  and  C_7
REMARK    5  A    between atoms: N_9  and  C_10
REMARK    6  A    between atoms: N_9  and  C_11
REMARK    7  A    between atoms: C_13  and  C_15
REMARK    8  A    between atoms: N_18  and  C_20
REMARK                            x       y       z     vdW  Elec       q    Type
REMARK                         _______ _______ _______ _____ _____    ______ ____
ROOT
ATOM      1  C   UNL     1       6.744  -2.973   0.588  0.00  0.00    +0.046 C 
ATOM      2  C   UNL     1       6.136  -1.597   0.692  0.00  0.00    -0.012 A 
ATOM      3  C   UNL     1       4.796  -1.427   1.000  0.00  0.00    +0.084 A 
ATOM      4  C   UNL     1       4.308  -0.119   1.079  0.00  0.00    +0.090 A 
ATOM      5  S   UNL     1       5.705   0.840   0.718  0.00  0.00    -0.067 S 
ATOM      6  C   UNL     1       6.890  -0.472   0.484  0.00  0.00    +0.080 A 
ENDROOT
BRANCH   6   7
ATOM      7  C   UNL     1       8.311  -0.373   0.148  0.00  0.00    +0.253 C 
ATOM      8  O   UNL     1       9.011  -1.368   0.164  0.00  0.00    -0.269 OA
ATOM      9  N   UNL     1       8.844   0.822  -0.178  0.00  0.00    -0.303 N 
ATOM     10  C   UNL     1      10.258   0.916  -0.547  0.00  0.00    +0.132 C 
ATOM     11  C   UNL     1       8.008   2.025  -0.163  0.00  0.00    +0.132 C 
ENDBRANCH   6   7
BRANCH   4  12
ATOM     12  N   UNL     1       3.024   0.304   1.367  0.00  0.00    -0.275 N 
ATOM     13  C   UNL     1       2.740   1.621   1.398  0.00  0.00    +0.252 C 
ATOM     14  O   UNL     1       3.613   2.437   1.171  0.00  0.00    -0.270 OA
ATOM     15  H   UNL     1       2.328  -0.347   1.548  0.00  0.00    +0.156 HD
BRANCH  13  16
ATOM     16  C   UNL     1       1.371   2.072   1.706  0.00  0.00    +0.074 A 
ATOM     17  C   UNL     1       0.260   1.247   1.989  0.00  0.00    +0.147 A 
ATOM     18  N   UNL     1      -0.771   2.018   2.203  0.00  0.00    -0.179 NA
ATOM     19  N   UNL     1      -0.372   3.353   2.079  0.00  0.00    -0.274 N 
ATOM     20  C   UNL     1       0.935   3.381   1.772  0.00  0.00    +0.121 A 
ATOM     21  C   UNL     1      -1.236   4.524   2.249  0.00  0.00    +0.172 C 
ENDBRANCH  13  16
ENDBRANCH   4  12
BRANCH   3  22
ATOM     22  C   UNL     1       3.941  -2.552   1.232  0.00  0.00    +0.102 C 
ATOM     23  N   UNL     1       3.263  -3.444   1.415  0.00  0.00    -0.191 NA
ENDBRANCH   3  22
TORSDOF 4
