REMARK  Name = ZINC04576455
REMARK  10 active torsions:
REMARK  status: ('A' for Active; 'I' for Inactive)
REMARK    1  A    between atoms: C_4  and  C_7
REMARK    2  A    between atoms: C_7  and  C_9
REMARK    3  A    between atoms: C_10  and  O_28
REMARK    4  A    between atoms: N_13  and  C_23
REMARK    5  A    between atoms: C_14  and  C_16
REMARK    6  A    between atoms: C_23  and  C_24
REMARK    7  A    between atoms: C_24  and  N_48
REMARK    8  A    between atoms: C_25  and  C_26
REMARK    9  A    between atoms: C_25  and  N_48
REMARK   10  A    between atoms: C_26  and  O_27
REMARK                            x       y       z     vdW  Elec       q    Type
REMARK                         _______ _______ _______ _____ _____    ______ ____
ROOT
ATOM      1  C   UNL     1      -6.360   2.394   5.252  0.00  0.00    +0.071 C 
ATOM      2  C   UNL     1      -5.433   1.473   5.605  0.00  0.00    +0.188 C 
ATOM      3  C   UNL     1      -4.854   0.874   4.384  0.00  0.00    +0.282 C 
ATOM      4  O   UNL     1      -3.999   0.012   4.368  0.00  0.00    -0.267 OA
ATOM      5  N   UNL     1      -5.413   1.428   3.292  0.00  0.00    -0.285 N 
ATOM      6  C   UNL     1      -6.399   2.417   3.742  0.00  0.00    +0.144 C 
ENDROOT
BRANCH   6   7
ATOM      7  C   UNL     1      -7.774   2.038   3.254  0.00  0.00    -0.022 A 
ATOM      8  C   UNL     1      -8.188   0.721   3.313  0.00  0.00    +0.007 A 
ATOM      9  C   UNL     1      -9.451   0.373   2.870  0.00  0.00    +0.020 A 
ATOM     10  C   UNL     1     -10.295   1.342   2.358  0.00  0.00    +0.041 A 
ATOM     11  C   UNL     1      -9.877   2.659   2.294  0.00  0.00    +0.020 A 
ATOM     12  C   UNL     1      -8.617   3.007   2.742  0.00  0.00    +0.007 A 
ATOM     13 CL   UNL     1     -11.878   0.905   1.794  0.00  0.00    -0.084 Cl
ENDBRANCH   6   7
BRANCH   1  14
ATOM     14  C   UNL     1      -7.170   3.212   6.160  0.00  0.00    +0.195 C 
ATOM     15  O   UNL     1      -7.971   2.682   6.906  0.00  0.00    -0.287 OA
BRANCH  14  19
ATOM     16  C   UNL     1      -6.717   7.436   6.188  0.00  0.00    +0.000 A 
ATOM     17  C   UNL     1      -7.709   6.845   6.951  0.00  0.00    +0.001 A 
ATOM     18  C   UNL     1      -7.861   5.474   6.946  0.00  0.00    +0.012 A 
ATOM     19  C   UNL     1      -7.012   4.683   6.170  0.00  0.00    +0.022 A 
ATOM     20  C   UNL     1      -6.010   5.286   5.407  0.00  0.00    +0.012 A 
ATOM     21  C   UNL     1      -5.872   6.658   5.416  0.00  0.00    +0.001 A 
ENDBRANCH  14  19
ENDBRANCH   1  14
BRANCH   2  22
ATOM     22  O   UNL     1      -5.094   1.149   6.874  0.00  0.00    -0.502 OA
ATOM     23  H   UNL     1      -4.387   0.442   6.860  0.00  0.00    +0.292 HD
ENDBRANCH   2  22
BRANCH   5  24
ATOM     24  C   UNL     1      -5.097   1.097   1.901  0.00  0.00    +0.090 C 
BRANCH  24  25
ATOM     25  C   UNL     1      -3.968   2.003   1.405  0.00  0.00    -0.063 C 
BRANCH  25  26
ATOM     26  N   UNL     1      -3.656   1.663   0.003  0.00  0.00    +0.382 N 
ATOM     27  H   UNL     1      -4.495   1.803  -0.574  0.00  0.00    -0.086 HD
ATOM     28  H   UNL     1      -3.364   0.680  -0.050  0.00  0.00    -0.086 HD
BRANCH  26  29
ATOM     29  C   UNL     1      -2.569   2.522  -0.502  0.00  0.00    -0.054 C 
BRANCH  29  30
ATOM     30  C   UNL     1      -2.268   2.148  -1.955  0.00  0.00    +0.137 C 
BRANCH  30  31
ATOM     31  O   UNL     1      -3.403   2.449  -2.769  0.00  0.00    -0.397 OA
ATOM     32  H   UNL     1      -3.283   2.237  -3.705  0.00  0.00    +0.209 HD
ENDBRANCH  30  31
ENDBRANCH  29  30
ENDBRANCH  26  29
ENDBRANCH  25  26
ENDBRANCH  24  25
ENDBRANCH   5  24
TORSDOF 10
