REMARK  Name = ZINC66178485
REMARK  8 active torsions:
REMARK  status: ('A' for Active; 'I' for Inactive)
REMARK    1  A    between atoms: C_1  and  C_2
REMARK    2  A    between atoms: C_5  and  C_29
REMARK    3  A    between atoms: N_8  and  C_10
REMARK    4  A    between atoms: C_10  and  C_11
REMARK    5  A    between atoms: C_11  and  N_12
REMARK    6  A    between atoms: N_15  and  C_16
REMARK    7  A    between atoms: N_15  and  C_17
REMARK    8  A    between atoms: N_20  and  C_23
REMARK                            x       y       z     vdW  Elec       q    Type
REMARK                         _______ _______ _______ _____ _____    ______ ____
ROOT
ATOM      1  N   UNL     1       2.819  -0.203   4.893  0.00  0.00    -0.301 N 
ATOM      2  C   UNL     1       2.398   0.248   6.091  0.00  0.00    +0.302 C 
ATOM      3  O   UNL     1       1.450   1.007   6.155  0.00  0.00    -0.253 OA
ATOM      4  N   UNL     1       3.026  -0.142   7.217  0.00  0.00    -0.286 N 
ATOM      5  C   UNL     1       4.168  -1.057   7.140  0.00  0.00    +0.134 C 
ATOM      6  H   UNL     1       3.575  -0.809   4.842  0.00  0.00    +0.150 HD
ENDROOT
BRANCH   4   7
ATOM      7  C   UNL     1       2.568   0.348   8.519  0.00  0.00    +0.074 C 
ATOM      8  C   UNL     1       3.706   1.106   9.210  0.00  0.00    +0.004 C 
ATOM      9  C   UNL     1       3.246   1.547  10.602  0.00  0.00    -0.077 C 
ATOM     10  N   UNL     1       2.887   0.368  11.399  0.00  0.00    +0.382 N 
ATOM     11  C   UNL     1       1.750  -0.323  10.780  0.00  0.00    -0.077 C 
ATOM     12  C   UNL     1       2.151  -0.836   9.396  0.00  0.00    +0.004 C 
ATOM     13  H   UNL     1       3.676  -0.259  11.444  0.00  0.00    -0.081 HD
BRANCH  10  14
ATOM     14  C   UNL     1       2.521   0.790  12.757  0.00  0.00    -0.064 C 
ATOM     15  C   UNL     1       3.713   1.495  13.413  0.00  0.00    +0.013 C 
ATOM     16  C   UNL     1       3.349   1.861  14.855  0.00  0.00    +0.158 C 
ATOM     17  O   UNL     1       2.980   0.678  15.566  0.00  0.00    -0.380 OA
ATOM     18  C   UNL     1       1.842   0.003  15.026  0.00  0.00    +0.158 C 
ATOM     19  C   UNL     1       2.146  -0.438  13.592  0.00  0.00    +0.013 C 
ENDBRANCH  10  14
ENDBRANCH   4   7
BRANCH   1  20
ATOM     20  C   UNL     1       2.136   0.221   3.668  0.00  0.00    +0.087 C 
BRANCH  20  21
ATOM     21  C   UNL     1       2.808  -0.431   2.458  0.00  0.00    -0.060 C 
BRANCH  21  27
ATOM     22  C   UNL     1      -0.019   1.526   0.010  0.00  0.00    +0.005 C 
ATOM     23  C   UNL     1       0.002  -0.004   0.002  0.00  0.00    -0.031 C 
ATOM     24  C   UNL     1       0.721  -0.499  -1.257  0.00  0.00    +0.003 C 
ATOM     25  C   UNL     1       2.177  -0.027  -1.220  0.00  0.00    -0.031 C 
ATOM     26  C   UNL     1       2.839  -0.534   0.063  0.00  0.00    -0.076 C 
ATOM     27  N   UNL     1       2.123  -0.005   1.230  0.00  0.00    +0.381 N 
ATOM     28  C   UNL     1       0.744  -0.512   1.240  0.00  0.00    -0.076 C 
ATOM     29  C   UNL     1       2.924  -0.581  -2.434  0.00  0.00    +0.005 C 
ATOM     30  H   UNL     1       2.109   1.003   1.187  0.00  0.00    -0.082 HD
ENDBRANCH  21  27
ENDBRANCH  20  21
ENDBRANCH   1  20
TORSDOF 5
