REMARK  Name = ZINC59463983
REMARK  10 active torsions:
REMARK  status: ('A' for Active; 'I' for Inactive)
REMARK    1  A    between atoms: C_1  and  O_2
REMARK    2  A    between atoms: O_2  and  C_3
REMARK    3  A    between atoms: C_5  and  C_10
REMARK    4  A    between atoms: C_8  and  O_9
REMARK    5  A    between atoms: N_11  and  N_12
REMARK    6  A    between atoms: C_13  and  C_15
REMARK    7  A    between atoms: C_15  and  N_16
REMARK    8  A    between atoms: N_16  and  C_17
REMARK    9  A    between atoms: N_16  and  S_29
REMARK   10  A    between atoms: S_29  and  C_32
REMARK                            x       y       z     vdW  Elec       q    Type
REMARK                         _______ _______ _______ _____ _____    ______ ____
ROOT
ATOM      1  C   UNL     1       4.797   0.860  -8.454  0.00  0.00    +0.228 C 
ENDROOT
BRANCH   1   3
ATOM      2  N   UNL     1       3.369   0.825  -6.435  0.00  0.00    -0.206 N 
ATOM      3  C   UNL     1       3.996   0.132  -7.406  0.00  0.00    +0.251 C 
ATOM      4  O   UNL     1       3.915  -1.078  -7.436  0.00  0.00    -0.272 OA
ATOM      5  H   UNL     1       3.434   1.793  -6.411  0.00  0.00    +0.177 HD
BRANCH   2   7
ATOM      6  C   UNL     1       2.020   0.816  -4.525  0.00  0.00    +0.138 C 
ATOM      7  N   UNL     1       2.624   0.149  -5.460  0.00  0.00    -0.188 NA
BRANCH   6  10
ATOM      8  C   UNL     1      -0.148   0.149  -1.533  0.00  0.00    +0.162 A 
ATOM      9  C   UNL     1       0.586   0.821  -2.492  0.00  0.00    +0.058 A 
ATOM     10  C   UNL     1       1.236   0.104  -3.500  0.00  0.00    -0.002 A 
ATOM     11  C   UNL     1       1.142  -1.289  -3.533  0.00  0.00    +0.013 A 
ATOM     12  C   UNL     1       0.408  -1.953  -2.573  0.00  0.00    +0.050 A 
ATOM     13  C   UNL     1      -0.234  -1.241  -1.570  0.00  0.00    +0.158 A 
BRANCH   8  15
ATOM     14  C   UNL     1      -0.651   2.266  -0.575  0.00  0.00    +0.277 C 
ATOM     15  O   UNL     1      -0.782   0.844  -0.551  0.00  0.00    -0.491 OA
ENDBRANCH   8  15
BRANCH  13  16
ATOM     16  O   UNL     1      -0.951  -1.901  -0.623  0.00  0.00    -0.503 OA
ATOM     17  H   UNL     1      -1.881  -2.035  -0.855  0.00  0.00    +0.292 HD
ENDBRANCH  13  16
ENDBRANCH   6  10
ENDBRANCH   2   7
ENDBRANCH   1   3
BRANCH   1  18
ATOM     18  N   UNL     1       5.443  -0.114  -9.338  0.00  0.00    -0.198 N 
BRANCH  18  19
ATOM     19  C   UNL     1       4.753  -0.626 -10.434  0.00  0.00    +0.059 A 
ATOM     20  C   UNL     1       3.917  -1.718 -10.294  0.00  0.00    +0.025 A 
ATOM     21  C   UNL     1       3.212  -2.254 -11.372  0.00  0.00    +0.006 A 
ATOM     22  C   UNL     1       3.328  -1.706 -12.614  0.00  0.00    -0.039 A 
ATOM     23  C   UNL     1       4.165  -0.606 -12.773  0.00  0.00    -0.010 A 
ATOM     24  C   UNL     1       4.886  -0.037 -11.709  0.00  0.00    +0.005 A 
ATOM     25  C   UNL     1       5.695   1.076 -11.984  0.00  0.00    +0.010 A 
ATOM     26  C   UNL     1       5.742   1.556 -13.261  0.00  0.00    +0.001 A 
ATOM     27  C   UNL     1       5.013   0.978 -14.303  0.00  0.00    +0.004 A 
ATOM     28  C   UNL     1       4.226  -0.109 -14.072  0.00  0.00    -0.039 A 
ATOM     29  C   UNL     1       3.323  -0.965 -14.926  0.00  0.00    +0.040 C 
ATOM     30  C   UNL     1       2.731  -2.018 -13.966  0.00  0.00    +0.040 C 
ENDBRANCH  18  19
BRANCH  18  31
ATOM     31  S   UNL     1       6.995  -0.605  -9.034  0.00  0.00    +0.043 S 
ATOM     32  O   UNL     1       7.536  -0.909 -10.312  0.00  0.00    -0.155 OA
ATOM     33  O   UNL     1       7.555   0.431  -8.239  0.00  0.00    -0.155 OA
ATOM     34  C   UNL     1       6.821  -2.121  -8.053  0.00  0.00    +0.218 C 
ENDBRANCH  18  31
ENDBRANCH   1  18
TORSDOF 8
