REMARK  Name = ZINC63295333
REMARK  8 active torsions:
REMARK  status: ('A' for Active; 'I' for Inactive)
REMARK    1  A    between atoms: C_1  and  O_2
REMARK    2  A    between atoms: O_2  and  C_3
REMARK    3  A    between atoms: C_9  and  C_12
REMARK    4  A    between atoms: C_12  and  C_13
REMARK    5  A    between atoms: C_13  and  N_14
REMARK    6  A    between atoms: C_15  and  C_17
REMARK    7  A    between atoms: C_20  and  C_24
REMARK    8  A    between atoms: C_24  and  C_25
REMARK                            x       y       z     vdW  Elec       q    Type
REMARK                         _______ _______ _______ _____ _____    ______ ____
ROOT
ATOM      1  N   UNL     1      -0.759  -6.798   1.434  0.00  0.00    -0.312 N 
ATOM      2  C   UNL     1      -0.408  -7.389   2.593  0.00  0.00    +0.259 C 
ATOM      3  O   UNL     1      -0.851  -6.975   3.644  0.00  0.00    -0.271 OA
ATOM      4  H   UNL     1      -0.405  -7.128   0.594  0.00  0.00    +0.149 HD
ENDROOT
BRANCH   2   5
ATOM      5  C   UNL     1       0.535  -8.564   2.584  0.00  0.00    +0.297 C 
ATOM      6  N   UNL     1      -0.118  -9.746   1.965  0.00  0.00    -0.265 NA
ATOM      7  C   UNL     1       1.042 -10.557   1.506  0.00  0.00    +0.154 C 
ATOM      8  N   UNL     1       2.021  -9.540   1.056  0.00  0.00    -0.181 NA
ATOM      9  O   UNL     1       1.672  -8.288   1.746  0.00  0.00    -0.270 OA
ATOM     10  H   UNL     1      -0.668 -10.253   2.643  0.00  0.00    +0.126 HD
ATOM     11  H   UNL     1       2.964  -9.823   1.277  0.00  0.00    +0.156 HD
BRANCH   7  12
ATOM     12  C   UNL     1       0.637 -11.470   0.347  0.00  0.00    +0.070 C 
BRANCH  12  13
ATOM     13  C   UNL     1       1.794 -12.365  -0.015  0.00  0.00    -0.039 C 
ATOM     14  C   UNL     1       2.013 -13.626   0.419  0.00  0.00    -0.001 A 
ATOM     15  C   UNL     1       1.270 -14.509   1.327  0.00  0.00    +0.010 A 
ATOM     16  C   UNL     1       1.750 -15.748   1.577  0.00  0.00    +0.001 A 
ATOM     17  C   UNL     1       2.938 -16.209   0.993  0.00  0.00    +0.002 A 
ATOM     18  C   UNL     1       3.676 -15.457   0.150  0.00  0.00    +0.026 A 
ATOM     19  C   UNL     1       3.264 -14.137  -0.184  0.00  0.00    +0.043 A 
ATOM     20  N   UNL     1       3.798 -13.227  -0.962  0.00  0.00    -0.380 N 
ATOM     21  C   UNL     1       2.941 -12.036  -0.945  0.00  0.00    +0.144 C 
ATOM     22  H   UNL     1       4.620 -13.325  -1.468  0.00  0.00    +0.160 HD
ENDBRANCH  12  13
ENDBRANCH   7  12
ENDBRANCH   2   5
BRANCH   1  23
ATOM     23  C   UNL     1      -1.676  -5.655   1.443  0.00  0.00    +0.108 C 
BRANCH  23  24
ATOM     24  C   UNL     1      -1.908  -5.176   0.009  0.00  0.00    +0.052 C 
BRANCH  24  31
ATOM     25  C   UNL     1      -1.200  -0.637   0.010  0.00  0.00    +0.121 A 
ATOM     26  C   UNL     1      -2.375   0.135   0.020  0.00  0.00    +0.047 A 
ATOM     27  C   UNL     1      -3.607  -0.415   0.028  0.00  0.00    +0.029 A 
ATOM     28  C   UNL     1      -3.753  -1.875   0.027  0.00  0.00    +0.043 A 
ATOM     29  N   UNL     1      -4.809  -2.650   0.034  0.00  0.00    -0.380 N 
ATOM     30  C   UNL     1      -4.362  -4.047   0.029  0.00  0.00    +0.144 C 
ATOM     31  C   UNL     1      -2.851  -4.000   0.018  0.00  0.00    -0.040 C 
ATOM     32  C   UNL     1      -2.516  -2.690   0.016  0.00  0.00    +0.002 A 
ATOM     33  C   UNL     1      -1.226  -1.992   0.003  0.00  0.00    +0.055 A 
ATOM     34  H   UNL     1      -5.731  -2.350   0.042  0.00  0.00    +0.160 HD
BRANCH  25  36
ATOM     35  C   UNL     1      -0.017   1.425   0.010  0.00  0.00    +0.277 C 
ATOM     36  O   UNL     1       0.002  -0.004   0.002  0.00  0.00    -0.495 OA
ENDBRANCH  25  36
ENDBRANCH  24  31
ENDBRANCH  23  24
ENDBRANCH   1  23
TORSDOF 7
