REMARK  Name = ZINC36153801
REMARK  3 active torsions:
REMARK  status: ('A' for Active; 'I' for Inactive)
REMARK    1  A    between atoms: C_3  and  N_19
REMARK    2  A    between atoms: C_6  and  C_7
REMARK    3  A    between atoms: C_10  and  C_15
REMARK                            x       y       z     vdW  Elec       q    Type
REMARK                         _______ _______ _______ _____ _____    ______ ____
ROOT
ATOM      1  C   UNL     1      -1.268  -0.762   0.010  0.00  0.00    +0.132 A 
ATOM      2  N   UNL     1      -1.452  -2.058   0.010  0.00  0.00    -0.155 NA
ATOM      3  N   UNL     1      -2.729  -2.603   0.019  0.00  0.00    -0.182 N 
ATOM      4  C   UNL     1      -3.349  -3.836   0.023  0.00  0.00    +0.259 A 
ATOM      5  N   UNL     1      -4.638  -3.639   0.033  0.00  0.00    -0.122 NA
ATOM      6  N   UNL     1      -4.892  -2.377   0.036  0.00  0.00    -0.120 NA
ATOM      7  C   UNL     1      -3.776  -1.713   0.028  0.00  0.00    +0.219 A 
ATOM      8  S   UNL     1      -2.943  -0.144   0.030  0.00  0.00    -0.026 S 
ENDROOT
BRANCH   1  14
ATOM      9  C   UNL     1      -0.017   1.392   0.010  0.00  0.00    +0.012 A 
ATOM     10  C   UNL     1       1.168   2.095   0.002  0.00  0.00    +0.023 A 
ATOM     11  C   UNL     1       2.381   1.417  -0.013  0.00  0.00    +0.025 A 
ATOM     12  C   UNL     1       2.403   0.026  -0.021  0.00  0.00    +0.023 A 
ATOM     13  C   UNL     1       1.222  -0.683  -0.014  0.00  0.00    +0.012 A 
ATOM     14  C   UNL     1       0.002  -0.004   0.002  0.00  0.00    +0.009 A 
BRANCH  11  15
ATOM     15  N   UNL     1       3.579   2.131  -0.021  0.00  0.00    -0.358 N 
ATOM     16  H   UNL     1       3.564   3.101  -0.015  0.00  0.00    +0.142 HD
ATOM     17  H   UNL     1       4.426   1.659  -0.031  0.00  0.00    +0.142 HD
ENDBRANCH  11  15
ENDBRANCH   1  14
BRANCH   4  18
ATOM     18  C   UNL     1      -2.657  -5.174   0.016  0.00  0.00    +0.454 C 
ATOM     19  F   UNL     1      -3.578  -6.173  -0.319  0.00  0.00    -0.163 F 
ATOM     20  F   UNL     1      -1.622  -5.159  -0.925  0.00  0.00    -0.163 F 
ATOM     21  F   UNL     1      -2.130  -5.433   1.286  0.00  0.00    -0.163 F 
ENDBRANCH   4  18
TORSDOF 3
