REMARK  Name = ZINC09165689
REMARK  10 active torsions:
REMARK  status: ('A' for Active; 'I' for Inactive)
REMARK    1  A    between atoms: C_1  and  C_2
REMARK    2  A    between atoms: C_4  and  O_28
REMARK    3  A    between atoms: C_5  and  S_9
REMARK    4  A    between atoms: C_7  and  C_8
REMARK    5  A    between atoms: S_9  and  N_12
REMARK    6  A    between atoms: N_12  and  C_13
REMARK    7  A    between atoms: C_21  and  C_26
REMARK    8  A    between atoms: C_21  and  C_27
REMARK    9  A    between atoms: N_24  and  C_25
REMARK   10  A    between atoms: O_28  and  C_29
REMARK                            x       y       z     vdW  Elec       q    Type
REMARK                         _______ _______ _______ _____ _____    ______ ____
ROOT
ATOM      1  N   UNL     1      -0.878   2.097   0.833  0.00  0.00    -0.216 N 
ATOM      2  H   UNL     1      -0.597   1.946  -0.083  0.00  0.00    +0.174 HD
ENDROOT
BRANCH   1   3
ATOM      3  C   UNL     1      -2.033   1.477   1.321  0.00  0.00    +0.052 A 
ATOM      4  C   UNL     1      -2.022   0.117   1.605  0.00  0.00    +0.026 A 
ATOM      5  C   UNL     1      -3.161  -0.499   2.088  0.00  0.00    +0.029 A 
ATOM      6  C   UNL     1      -4.314   0.241   2.291  0.00  0.00    +0.078 A 
ATOM      7  C   UNL     1      -4.329   1.606   2.005  0.00  0.00    +0.144 A 
ATOM      8  C   UNL     1      -3.186   2.222   1.527  0.00  0.00    +0.072 A 
ATOM      9  O   UNL     1      -5.468   2.322   2.198  0.00  0.00    -0.489 OA
ATOM     10  C   UNL     1      -6.514   2.152   1.245  0.00  0.00    +0.244 C 
ATOM     11  C   UNL     1      -6.697   0.674   0.909  0.00  0.00    +0.076 C 
ATOM     12  C   UNL     1      -6.657  -0.152   2.170  0.00  0.00    +0.229 C 
ATOM     13  O   UNL     1      -7.680  -0.618   2.625  0.00  0.00    -0.275 OA
ATOM     14  N   UNL     1      -5.476  -0.370   2.790  0.00  0.00    -0.271 N 
ATOM     15  C   UNL     1      -5.408  -1.235   3.970  0.00  0.00    +0.138 C 
ATOM     16  C   UNL     1      -8.045   0.473   0.214  0.00  0.00    +0.024 C 
ATOM     17  C   UNL     1      -5.572   0.223  -0.025  0.00  0.00    +0.024 C 
ENDBRANCH   1   3
BRANCH   1  18
ATOM     18  S   UNL     1       0.008   3.091   1.818  0.00  0.00    +0.076 S 
ATOM     19  O   UNL     1      -0.915   3.974   2.441  0.00  0.00    -0.150 OA
ATOM     20  O   UNL     1       1.105   3.557   1.044  0.00  0.00    -0.150 OA
BRANCH  18  25
ATOM     21  C   UNL     1       2.333  -0.350   6.200  0.00  0.00    +0.044 C 
ATOM     22  C   UNL     1       1.750   0.508   5.107  0.00  0.00    -0.044 A 
ATOM     23  C   UNL     1       0.386   0.722   5.051  0.00  0.00    +0.051 A 
ATOM     24  C   UNL     1      -0.150   1.512   4.045  0.00  0.00    +0.147 A 
ATOM     25  C   UNL     1       0.685   2.086   3.098  0.00  0.00    +0.150 A 
ATOM     26  C   UNL     1       2.047   1.865   3.155  0.00  0.00    +0.036 A 
ATOM     27  C   UNL     1       2.580   1.082   4.163  0.00  0.00    -0.045 A 
ATOM     28  C   UNL     1       4.067   0.848   4.226  0.00  0.00    +0.044 C 
BRANCH  24  29
ATOM     29  O   UNL     1      -1.492   1.723   3.988  0.00  0.00    -0.493 OA
ATOM     30  C   UNL     1      -2.278   1.194   5.057  0.00  0.00    +0.277 C 
ENDBRANCH  24  29
ENDBRANCH  18  25
ENDBRANCH   1  18
TORSDOF 4
