REMARK  Name = ZINC05297075
REMARK  6 active torsions:
REMARK  status: ('A' for Active; 'I' for Inactive)
REMARK    1  A    between atoms: C_1  and  C_2
REMARK    2  A    between atoms: C_2  and  C_25
REMARK    3  A    between atoms: N_3  and  N_4
REMARK    4  A    between atoms: C_5  and  C_7
REMARK    5  A    between atoms: C_9  and  C_13
REMARK    6  A    between atoms: C_30  and  O_31
REMARK                            x       y       z     vdW  Elec       q    Type
REMARK                         _______ _______ _______ _____ _____    ______ ____
ROOT
ATOM      1  C   UNL     1       0.046   0.083   4.782  0.00  0.00    +0.122 A 
ATOM      2  C   UNL     1       0.071  -0.468   6.048  0.00  0.00    +0.062 A 
ATOM      3  C   UNL     1       0.063   0.628   6.931  0.00  0.00    +0.094 A 
ATOM      4  N   UNL     1       0.035   1.725   6.202  0.00  0.00    -0.173 NA
ATOM      5  N   UNL     1       0.030   1.440   4.950  0.00  0.00    -0.272 N 
ATOM      6  H   UNL     1       0.014   2.090   4.231  0.00  0.00    +0.189 HD
ENDROOT
BRANCH   3   7
ATOM      7  C   UNL     1       0.082   0.560   8.412  0.00  0.00    +0.010 A 
ATOM      8  C   UNL     1       0.116  -0.662   9.066  0.00  0.00    +0.011 A 
ATOM      9  C   UNL     1       0.135  -0.756  10.455  0.00  0.00    +0.005 A 
ATOM     10  C   UNL     1       0.118   0.369  11.226  0.00  0.00    -0.039 A 
ATOM     11  C   UNL     1       0.084   1.605  10.588  0.00  0.00    -0.011 A 
ATOM     12  C   UNL     1       0.071   1.741   9.190  0.00  0.00    -0.008 A 
ATOM     13  C   UNL     1       0.043   3.037   8.656  0.00  0.00    +0.009 A 
ATOM     14  C   UNL     1       0.035   4.102   9.511  0.00  0.00    +0.001 A 
ATOM     15  C   UNL     1       0.054   3.944  10.898  0.00  0.00    +0.004 A 
ATOM     16  C   UNL     1       0.070   2.699  11.448  0.00  0.00    -0.039 A 
ATOM     17  C   UNL     1       0.098   2.165  12.860  0.00  0.00    +0.040 C 
ATOM     18  C   UNL     1       0.130   0.628  12.713  0.00  0.00    +0.040 C 
ENDBRANCH   3   7
BRANCH   1  20
ATOM     19  N   UNL     1       0.024   0.035   2.340  0.00  0.00    -0.201 N 
ATOM     20  C   UNL     1       0.044  -0.645   3.503  0.00  0.00    +0.281 C 
ATOM     21  O   UNL     1       0.060  -1.862   3.497  0.00  0.00    -0.267 OA
ATOM     22  H   UNL     1       0.011   1.005   2.345  0.00  0.00    +0.178 HD
BRANCH  19  25
ATOM     23  C   UNL     1      -0.018   1.503   0.010  0.00  0.00    +0.068 C 
ATOM     24  C   UNL     1       0.002  -0.004   0.002  0.00  0.00    +0.067 C 
ATOM     25  N   UNL     1       0.022  -0.659   1.123  0.00  0.00    -0.184 NA
BRANCH  24  26
ATOM     26  C   UNL     1      -0.000  -0.734  -1.278  0.00  0.00    +0.039 A 
ATOM     27  C   UNL     1      -0.015  -0.033  -2.486  0.00  0.00    +0.013 A 
ATOM     28  C   UNL     1      -0.017  -0.722  -3.681  0.00  0.00    +0.001 A 
ATOM     29  C   UNL     1      -0.004  -2.107  -3.688  0.00  0.00    +0.004 A 
ATOM     30  C   UNL     1       0.010  -2.812  -2.499  0.00  0.00    +0.046 A 
ATOM     31  C   UNL     1       0.019  -2.135  -1.290  0.00  0.00    +0.126 A 
BRANCH  31  32
ATOM     32  O   UNL     1       0.040  -2.827  -0.122  0.00  0.00    -0.506 OA
ATOM     33  H   UNL     1      -0.837  -3.040   0.225  0.00  0.00    +0.292 HD
ENDBRANCH  31  32
ENDBRANCH  24  26
ENDBRANCH  19  25
ENDBRANCH   1  20
TORSDOF 5
