REMARK  Name = ZINC27972688
REMARK  5 active torsions:
REMARK  status: ('A' for Active; 'I' for Inactive)
REMARK    1  A    between atoms: C_4  and  O_8
REMARK    2  A    between atoms: O_8  and  C_9
REMARK    3  A    between atoms: C_9  and  N_10
REMARK    4  A    between atoms: C_13  and  C_15
REMARK    5  A    between atoms: N_17  and  C_18
REMARK                            x       y       z     vdW  Elec       q    Type
REMARK                         _______ _______ _______ _____ _____    ______ ____
ROOT
ATOM      1  N   UNL     1      -3.775  -0.859   0.311  0.00  0.00    -0.235 N 
ATOM      2  C   UNL     1      -4.573   0.229   0.269  0.00  0.00    +0.113 A 
ATOM      3  C   UNL     1      -3.769   1.312   0.160  0.00  0.00    +0.054 A 
ATOM      4  C   UNL     1      -2.450   0.802   0.130  0.00  0.00    +0.147 A 
ATOM      5  N   UNL     1      -2.542  -0.509   0.229  0.00  0.00    -0.164 NA
ENDROOT
BRANCH   4   6
ATOM      6  C   UNL     1      -1.206   1.590   0.017  0.00  0.00    +0.268 C 
ATOM      7  O   UNL     1      -1.259   2.802  -0.067  0.00  0.00    -0.268 OA
ATOM      8  N   UNL     1      -0.011   0.966   0.007  0.00  0.00    -0.280 N 
ATOM      9  H   UNL     1       0.035  -0.133   0.011  0.00  0.00    +0.155 HD
BRANCH   8  10
ATOM     10  C   UNL     1       1.171   1.716  -0.008  0.00  0.00    +0.037 A 
ATOM     11  C   UNL     1       1.224   2.914  -0.709  0.00  0.00    +0.027 A 
ATOM     12  C   UNL     1       2.389   3.658  -0.721  0.00  0.00    +0.051 A 
ATOM     13  C   UNL     1       3.509   3.207  -0.042  0.00  0.00    +0.166 A 
ATOM     14  C   UNL     1       3.460   2.003   0.658  0.00  0.00    +0.168 A 
ATOM     15  C   UNL     1       2.292   1.260   0.673  0.00  0.00    +0.072 A 
ATOM     16  O   UNL     1       4.678   1.783   1.233  0.00  0.00    -0.453 OA
ATOM     17  C   UNL     1       5.593   2.656   0.544  0.00  0.00    +0.466 C 
ATOM     18  O   UNL     1       4.759   3.741   0.096  0.00  0.00    -0.453 OA
ENDBRANCH   8  10
ENDBRANCH   4   6
BRANCH   1  19
ATOM     19  C   UNL     1      -4.247  -2.241   0.431  0.00  0.00    +0.374 C 
BRANCH  19  20
ATOM     20  O   UNL     1      -5.674  -2.253   0.497  0.00  0.00    -0.467 OA
BRANCH  20  24
ATOM     21  C   UNL     1      -7.504  -5.936   0.845  0.00  0.00    +0.003 A 
ATOM     22  C   UNL     1      -7.144  -5.234   1.980  0.00  0.00    +0.024 A 
ATOM     23  C   UNL     1      -6.531  -4.000   1.867  0.00  0.00    +0.084 A 
ATOM     24  C   UNL     1      -6.277  -3.466   0.612  0.00  0.00    +0.160 A 
ATOM     25  C   UNL     1      -6.645  -4.170  -0.527  0.00  0.00    +0.084 A 
ATOM     26  C   UNL     1      -7.253  -5.406  -0.407  0.00  0.00    +0.024 A 
ATOM     27 CL   UNL     1      -6.336  -3.502  -2.099  0.00  0.00    -0.080 Cl
ATOM     28 CL   UNL     1      -6.079  -3.120   3.294  0.00  0.00    -0.080 Cl
ENDBRANCH  20  24
ENDBRANCH  19  20
ENDBRANCH   1  19
TORSDOF 5
