REMARK  Name = ZINC21581501
REMARK  7 active torsions:
REMARK  status: ('A' for Active; 'I' for Inactive)
REMARK    1  A    between atoms: C_1  and  C_2
REMARK    2  A    between atoms: C_2  and  C_3
REMARK    3  A    between atoms: C_3  and  C_28
REMARK    4  A    between atoms: N_6  and  N_10
REMARK    5  A    between atoms: C_11  and  C_13
REMARK    6  A    between atoms: C_13  and  N_14
REMARK    7  A    between atoms: C_20  and  C_22
REMARK                            x       y       z     vdW  Elec       q    Type
REMARK                         _______ _______ _______ _____ _____    ______ ____
ROOT
ATOM      1  N   UNL     1       0.737  -2.993  -7.087  0.00  0.00    -0.225 N 
ATOM      2  C   UNL     1       0.750  -1.985  -6.192  0.00  0.00    +0.213 C 
ATOM      3  O   UNL     1       1.804  -1.583  -5.747  0.00  0.00    -0.276 OA
ATOM      4  H   UNL     1      -0.219  -3.358  -7.490  0.00  0.00    +0.173 HD
ENDROOT
BRANCH   1   8
ATOM      5  C   UNL     1       3.706  -4.995  -7.797  0.00  0.00    +0.139 C 
ATOM      6  C   UNL     1       2.379  -4.783  -7.096  0.00  0.00    +0.268 C 
ATOM      7  O   UNL     1       1.827  -5.542  -6.330  0.00  0.00    -0.271 OA
ATOM      8  N   UNL     1       1.941  -3.575  -7.503  0.00  0.00    -0.137 N 
ATOM      9  C   UNL     1       2.796  -3.003  -8.359  0.00  0.00    +0.327 C 
ATOM     10  O   UNL     1       2.616  -1.913  -8.866  0.00  0.00    -0.251 OA
ATOM     11  N   UNL     1       3.878  -3.767  -8.593  0.00  0.00    -0.280 N 
ATOM     12  H   UNL     1       4.775  -3.636  -9.216  0.00  0.00    +0.152 HD
BRANCH   5  13
ATOM     13  C   UNL     1       4.820  -5.136  -6.792  0.00  0.00    -0.015 A 
ATOM     14  C   UNL     1       5.162  -6.386  -6.310  0.00  0.00    +0.006 A 
ATOM     15  C   UNL     1       6.187  -6.515  -5.392  0.00  0.00    +0.000 A 
ATOM     16  C   UNL     1       6.864  -5.394  -4.948  0.00  0.00    +0.000 A 
ATOM     17  C   UNL     1       6.518  -4.144  -5.426  0.00  0.00    +0.000 A 
ATOM     18  C   UNL     1       5.497  -4.015  -6.348  0.00  0.00    +0.006 A 
ENDBRANCH   5  13
BRANCH   5  20
ATOM     19  C   UNL     1       2.629  -5.982  -9.824  0.00  0.00    +0.007 C 
ATOM     20  C   UNL     1       3.645  -6.224  -8.706  0.00  0.00    +0.037 C 
ENDBRANCH   5  20
ENDBRANCH   1   8
BRANCH   2  21
ATOM     21  C   UNL     1      -0.546  -1.359  -5.743  0.00  0.00    +0.020 C 
BRANCH  21  22
ATOM     22  N   UNL     1      -0.264  -0.293  -4.774  0.00  0.00    +0.387 N 
ATOM     23  C   UNL     1      -1.472   0.496  -4.493  0.00  0.00    -0.059 C 
ATOM     24  C   UNL     1      -1.100   1.702  -3.624  0.00  0.00    +0.089 C 
ATOM     25  N   UNL     1      -0.383   1.217  -2.434  0.00  0.00    -0.303 N 
ATOM     26  C   UNL     1       0.761   0.314  -2.631  0.00  0.00    +0.089 C 
ATOM     27  C   UNL     1       0.312  -0.842  -3.539  0.00  0.00    -0.059 C 
ATOM     28  C   UNL     1      -0.761   1.595  -1.197  0.00  0.00    +0.244 C 
ATOM     29  O   UNL     1      -1.704   2.344  -1.053  0.00  0.00    -0.273 OA
ATOM     30  H   UNL     1       0.480   0.383  -5.219  0.00  0.00    -0.081 HD
BRANCH  28  31
ATOM     31  C   UNL     1      -0.013   1.086   0.008  0.00  0.00    +0.204 C 
ATOM     32  C   UNL     1       1.429   1.629  -0.003  0.00  0.00    +0.043 C 
ATOM     33  C   UNL     1       1.553   2.402   1.333  0.00  0.00    +0.031 C 
ATOM     34  C   UNL     1       0.413   1.778   2.177  0.00  0.00    +0.161 C 
ATOM     35  O   UNL     1      -0.639   1.560   1.212  0.00  0.00    -0.367 OA
ENDBRANCH  28  31
ENDBRANCH  21  22
ENDBRANCH   2  21
TORSDOF 6
