REMARK  Name = ZINC40081887
REMARK  7 active torsions:
REMARK  status: ('A' for Active; 'I' for Inactive)
REMARK    1  A    between atoms: C_1  and  C_2
REMARK    2  A    between atoms: C_5  and  S_9
REMARK    3  A    between atoms: C_6  and  C_8
REMARK    4  A    between atoms: S_9  and  N_12
REMARK    5  A    between atoms: N_12  and  C_13
REMARK    6  A    between atoms: C_16  and  C_19
REMARK    7  A    between atoms: C_19  and  C_26
REMARK                            x       y       z     vdW  Elec       q    Type
REMARK                         _______ _______ _______ _____ _____    ______ ____
ROOT
ATOM      1  C   UNL     1       1.725  -4.768   1.964  0.00  0.00    +0.048 A 
ATOM      2  C   UNL     1       1.503  -3.511   2.512  0.00  0.00    +0.025 A 
ATOM      3  C   UNL     1       1.782  -3.282   3.845  0.00  0.00    +0.008 A 
ATOM      4  C   UNL     1       2.283  -4.302   4.634  0.00  0.00    -0.015 A 
ATOM      5  C   UNL     1       2.505  -5.554   4.091  0.00  0.00    +0.008 A 
ATOM      6  C   UNL     1       2.222  -5.791   2.760  0.00  0.00    +0.025 A 
ENDROOT
BRANCH   4   7
ATOM      7  C   UNL     1       2.588  -4.048   6.087  0.00  0.00    +0.135 C 
ATOM      8  C   UNL     1       3.727  -3.058   6.229  0.00  0.00    +0.248 C 
ATOM      9  O   UNL     1       3.750  -1.908   5.843  0.00  0.00    -0.273 OA
ATOM     10  N   UNL     1       4.708  -3.720   6.873  0.00  0.00    -0.238 N 
ATOM     11  C   UNL     1       4.351  -4.978   7.155  0.00  0.00    +0.307 C 
ATOM     12  O   UNL     1       5.069  -5.770   7.733  0.00  0.00    -0.252 OA
ATOM     13  N   UNL     1       3.108  -5.268   6.729  0.00  0.00    -0.282 N 
ATOM     14  C   UNL     1       1.341  -3.546   6.818  0.00  0.00    +0.047 C 
ATOM     15  H   UNL     1       5.567  -3.333   7.103  0.00  0.00    +0.159 HD
ATOM     16  H   UNL     1       2.645  -6.114   6.825  0.00  0.00    +0.152 HD
ENDBRANCH   4   7
BRANCH   1  17
ATOM     17  N   UNL     1       1.443  -5.003   0.616  0.00  0.00    -0.216 N 
ATOM     18  H   UNL     1       2.083  -5.476   0.062  0.00  0.00    +0.174 HD
BRANCH  17  19
ATOM     19  S   UNL     1       0.015  -4.473  -0.036  0.00  0.00    +0.073 S 
ATOM     20  O   UNL     1      -1.011  -4.855   0.870  0.00  0.00    -0.150 OA
ATOM     21  O   UNL     1       0.017  -4.876  -1.399  0.00  0.00    -0.150 OA
BRANCH  19  26
ATOM     22  C   UNL     1       0.177   1.558  -0.015  0.00  0.00    +0.044 C 
ATOM     23  C   UNL     1       0.136   0.052  -0.021  0.00  0.00    -0.050 A 
ATOM     24  C   UNL     1      -0.803  -0.617   0.742  0.00  0.00    +0.005 A 
ATOM     25  C   UNL     1      -0.841  -1.999   0.737  0.00  0.00    +0.029 A 
ATOM     26  C   UNL     1       0.062  -2.712  -0.030  0.00  0.00    +0.111 A 
ATOM     27  C   UNL     1       1.001  -2.043  -0.793  0.00  0.00    -0.024 A 
ATOM     28  C   UNL     1       1.035  -0.661  -0.791  0.00  0.00    +0.008 A 
ATOM     29  C   UNL     1       1.985  -2.821  -1.629  0.00  0.00    +0.046 C 
ENDBRANCH  19  26
ENDBRANCH  17  19
ENDBRANCH   1  17
TORSDOF 4
