REMARK  Name = ZINC20745640
REMARK  5 active torsions:
REMARK  status: ('A' for Active; 'I' for Inactive)
REMARK    1  A    between atoms: C_1  and  C_2
REMARK    2  A    between atoms: C_2  and  C_3
REMARK    3  A    between atoms: C_2  and  C_4
REMARK    4  A    between atoms: C_7  and  C_10
REMARK    5  A    between atoms: C_19  and  O_22
REMARK                            x       y       z     vdW  Elec       q    Type
REMARK                         _______ _______ _______ _____ _____    ______ ____
ROOT
ATOM      1  C   UNL     1      -5.419  -2.005   0.043  0.00  0.00    +0.112 C 
ATOM      2  C   UNL     1      -5.381  -3.503   0.079  0.00  0.00    +0.033 A 
ATOM      3  C   UNL     1      -4.330  -4.194   0.602  0.00  0.00    +0.112 A 
ATOM      4  N   UNL     1      -4.596  -5.508   0.499  0.00  0.00    -0.282 N 
ATOM      5  H   UNL     1      -4.021  -6.231   0.793  0.00  0.00    +0.188 HD
ATOM      6  N   UNL     1      -5.846  -5.648  -0.106  0.00  0.00    -0.154 NA
ATOM      7  C   UNL     1      -6.328  -4.432  -0.369  0.00  0.00    +0.182 A 
ATOM      8  N   UNL     1      -7.525  -4.270  -0.977  0.00  0.00    -0.195 NA
ATOM      9  C   UNL     1      -8.226  -3.302  -1.346  0.00  0.00    +0.199 C 
ATOM     10  C   UNL     1      -8.003  -1.851  -1.192  0.00  0.00    +0.165 C 
ATOM     11  S   UNL     1      -6.283  -1.369  -1.397  0.00  0.00    -0.138 S 
ENDROOT
BRANCH   1  15
ATOM     12  C   UNL     1      -1.412  -0.526   0.013  0.00  0.00    -0.045 A 
ATOM     13  C   UNL     1      -2.259  -0.204   1.056  0.00  0.00    +0.004 A 
ATOM     14  C   UNL     1      -3.556  -0.683   1.066  0.00  0.00    +0.005 A 
ATOM     15  C   UNL     1      -4.006  -1.482   0.032  0.00  0.00    -0.030 A 
ATOM     16  C   UNL     1      -3.159  -1.803  -1.012  0.00  0.00    +0.005 A 
ATOM     17  C   UNL     1      -1.863  -1.321  -1.024  0.00  0.00    +0.004 A 
BRANCH  12  19
ATOM     18  C   UNL     1      -0.019   1.526   0.010  0.00  0.00    +0.012 C 
ATOM     19  C   UNL     1       0.002  -0.004   0.002  0.00  0.00    +0.013 C 
ATOM     20  C   UNL     1       0.742  -0.511   1.242  0.00  0.00    +0.012 C 
ENDBRANCH  12  19
ENDBRANCH   1  15
BRANCH   9  21
ATOM     21  O   UNL     1      -9.365  -3.637  -1.985  0.00  0.00    -0.495 OA
ATOM     22  H   UNL     1      -9.498  -4.591  -2.079  0.00  0.00    +0.293 HD
ENDBRANCH   9  21
TORSDOF 3
