REMARK  Name = ZINC38784368
REMARK  8 active torsions:
REMARK  status: ('A' for Active; 'I' for Inactive)
REMARK    1  A    between atoms: C_1  and  C_2
REMARK    2  A    between atoms: C_2  and  C_3
REMARK    3  A    between atoms: C_2  and  C_4
REMARK    4  A    between atoms: C_4  and  N_5
REMARK    5  A    between atoms: C_6  and  N_14
REMARK    6  A    between atoms: C_15  and  C_17
REMARK    7  A    between atoms: C_17  and  S_18
REMARK    8  A    between atoms: S_18  and  C_19
REMARK                            x       y       z     vdW  Elec       q    Type
REMARK                         _______ _______ _______ _____ _____    ______ ____
ROOT
ATOM      1  N   UNL     1       1.211   0.941   4.194  0.00  0.00    -0.296 N 
ATOM      2  C   UNL     1       2.496   1.323   4.053  0.00  0.00    +0.225 C 
ATOM      3  O   UNL     1       2.866   1.834   3.017  0.00  0.00    -0.275 OA
ATOM      4  H   UNL     1       0.915   0.532   5.022  0.00  0.00    +0.151 HD
ENDROOT
BRANCH   1   6
ATOM      5  N   UNL     1      -0.008  -0.140   2.444  0.00  0.00    -0.266 N 
ATOM      6  C   UNL     1       0.262   1.142   3.097  0.00  0.00    +0.173 C 
ATOM      7  C   UNL     1      -1.042   1.719   3.651  0.00  0.00    +0.138 C 
ATOM      8  C   UNL     1      -1.788   0.637   4.391  0.00  0.00    +0.224 C 
ATOM      9  O   UNL     1      -2.444   0.915   5.372  0.00  0.00    -0.275 OA
ATOM     10  N   UNL     1      -1.725  -0.636   3.962  0.00  0.00    -0.240 N 
ATOM     11  C   UNL     1      -0.938  -0.979   2.929  0.00  0.00    +0.310 C 
ATOM     12  O   UNL     1      -1.069  -2.076   2.423  0.00  0.00    -0.252 OA
ATOM     13  H   UNL     1      -2.258  -1.316   4.404  0.00  0.00    +0.159 HD
BRANCH   5  14
ATOM     14  C   UNL     1       0.742  -0.511   1.242  0.00  0.00    +0.114 C 
BRANCH  14  16
ATOM     15  C   UNL     1      -0.019   1.526   0.010  0.00  0.00    +0.009 C 
ATOM     16  C   UNL     1       0.002  -0.004   0.002  0.00  0.00    +0.000 C 
ATOM     17  C   UNL     1       0.718  -0.497  -1.257  0.00  0.00    +0.009 C 
ENDBRANCH  14  16
ENDBRANCH   5  14
ENDBRANCH   1   6
BRANCH   2  18
ATOM     18  C   UNL     1       3.472   1.116   5.182  0.00  0.00    +0.173 C 
BRANCH  18  19
ATOM     19  S   UNL     1       5.107   1.729   4.688  0.00  0.00    -0.075 S 
BRANCH  19  20
ATOM     20  C   UNL     1       6.121   1.419   6.095  0.00  0.00    +0.208 C 
ATOM     21  N   UNL     1       5.570   0.852   7.141  0.00  0.00    -0.227 NA
ATOM     22  C   UNL     1       6.398   0.671   8.331  0.00  0.00    +0.252 C 
ATOM     23  C   UNL     1       7.832   0.538   7.839  0.00  0.00    +0.117 C 
ATOM     24  C   UNL     1       8.333  -0.564   8.464  0.00  0.00    +0.025 A 
ATOM     25  C   UNL     1       9.630  -1.132   8.497  0.00  0.00    +0.012 A 
ATOM     26  C   UNL     1       9.796  -2.271   9.221  0.00  0.00    +0.001 A 
ATOM     27  C   UNL     1       8.773  -2.909   9.928  0.00  0.00    +0.002 A 
ATOM     28  C   UNL     1       7.494  -2.451   9.973  0.00  0.00    +0.026 A 
ATOM     29  C   UNL     1       7.220  -1.214   9.221  0.00  0.00    +0.046 A 
ATOM     30  N   UNL     1       6.119  -0.538   9.094  0.00  0.00    -0.358 N 
ATOM     31  N   UNL     1       8.309   1.329   6.872  0.00  0.00    -0.147 NA
ATOM     32  N   UNL     1       7.428   1.776   6.032  0.00  0.00    -0.122 NA
ATOM     33  H   UNL     1       5.254  -0.794   9.450  0.00  0.00    +0.162 HD
ENDBRANCH  19  20
ENDBRANCH  18  19
ENDBRANCH   2  18
TORSDOF 6
