REMARK  Name = ZINC09832181
REMARK  11 active torsions:
REMARK  status: ('A' for Active; 'I' for Inactive)
REMARK    1  A    between atoms: C_1  and  C_2
REMARK    2  A    between atoms: C_2  and  O_3
REMARK    3  A    between atoms: O_3  and  C_4
REMARK    4  A    between atoms: N_10  and  C_34
REMARK    5  A    between atoms: N_12  and  C_13
REMARK    6  A    between atoms: C_13  and  C_15
REMARK    7  A    between atoms: C_18  and  S_21
REMARK    8  A    between atoms: S_21  and  N_24
REMARK    9  A    between atoms: N_24  and  C_25
REMARK   10  A    between atoms: N_24  and  C_26
REMARK   11  A    between atoms: C_26  and  C_27
REMARK                            x       y       z     vdW  Elec       q    Type
REMARK                         _______ _______ _______ _____ _____    ______ ____
ROOT
ATOM      1  C   UNL     1      -5.072   4.684  -3.498  0.00  0.00    +0.039 A 
ATOM      2  C   UNL     1      -5.772   4.784  -4.700  0.00  0.00    +0.015 A 
ATOM      3  C   UNL     1      -6.998   5.416  -4.731  0.00  0.00    +0.029 A 
ATOM      4  C   UNL     1      -7.529   5.958  -3.574  0.00  0.00    +0.106 A 
ATOM      5  C   UNL     1      -6.837   5.867  -2.379  0.00  0.00    +0.029 A 
ATOM      6  C   UNL     1      -5.612   5.233  -2.336  0.00  0.00    +0.015 A 
ENDROOT
BRANCH   4   7
ATOM      7  S   UNL     1      -9.092   6.770  -3.622  0.00  0.00    +0.061 S 
ATOM      8  O   UNL     1      -9.788   6.245  -4.744  0.00  0.00    -0.153 OA
ATOM      9  O   UNL     1      -9.620   6.713  -2.304  0.00  0.00    -0.153 OA
BRANCH   7  10
ATOM     10  N   UNL     1      -8.805   8.368  -3.948  0.00  0.00    -0.177 NA
ATOM     11  C   UNL     1      -8.763   8.836  -5.336  0.00  0.00    +0.131 C 
BRANCH  10  12
ATOM     12  C   UNL     1      -8.592   9.313  -2.849  0.00  0.00    +0.140 C 
BRANCH  12  13
ATOM     13  C   UNL     1      -7.091   9.472  -2.597  0.00  0.00    +0.134 C 
ATOM     14  C   UNL     1      -6.856  10.465  -1.442  0.00  0.00    +0.035 C 
ATOM     15  C   UNL     1      -6.064   9.647  -0.393  0.00  0.00    +0.031 C 
ATOM     16  C   UNL     1      -5.473   8.501  -1.254  0.00  0.00    +0.160 C 
ATOM     17  O   UNL     1      -6.527   8.211  -2.198  0.00  0.00    -0.375 OA
ENDBRANCH  12  13
ENDBRANCH  10  12
ENDBRANCH   7  10
ENDBRANCH   4   7
BRANCH   1  18
ATOM     18  C   UNL     1      -3.757   4.002  -3.458  0.00  0.00    +0.269 C 
ATOM     19  O   UNL     1      -3.145   3.920  -2.408  0.00  0.00    -0.268 OA
BRANCH  18  28
ATOM     20  C   UNL     1       1.038   5.902  -4.597  0.00  0.00    +0.145 A 
ATOM     21  C   UNL     1       2.255   5.957  -5.245  0.00  0.00    +0.048 A 
ATOM     22  C   UNL     1       2.551   5.096  -6.288  0.00  0.00    +0.005 A 
ATOM     23  C   UNL     1       1.608   4.165  -6.686  0.00  0.00    +0.017 A 
ATOM     24  C   UNL     1       0.394   4.107  -6.041  0.00  0.00    +0.042 A 
ATOM     25  C   UNL     1       0.065   4.959  -4.979  0.00  0.00    +0.099 A 
ATOM     26  N   UNL     1      -1.200   4.768  -4.449  0.00  0.00    -0.321 N 
ATOM     27  C   UNL     1      -2.012   3.803  -4.956  0.00  0.00    +0.167 A 
ATOM     28  N   UNL     1      -3.243   3.477  -4.574  0.00  0.00    -0.152 NA
ATOM     29  S   UNL     1      -1.057   3.100  -6.221  0.00  0.00    -0.052 S 
ATOM     30  C   UNL     1      -1.661   5.603  -3.337  0.00  0.00    +0.151 C 
BRANCH  20  31
ATOM     31  O   UNL     1       0.779   6.761  -3.577  0.00  0.00    -0.490 OA
BRANCH  31  33
ATOM     32  C   UNL     1       1.339   8.568  -2.072  0.00  0.00    +0.048 C 
ATOM     33  C   UNL     1       1.810   7.690  -3.233  0.00  0.00    +0.226 C 
ENDBRANCH  31  33
ENDBRANCH  20  31
ENDBRANCH  18  28
ENDBRANCH   1  18
TORSDOF 8
