REMARK  Name = ZINC09857335
REMARK  6 active torsions:
REMARK  status: ('A' for Active; 'I' for Inactive)
REMARK    1  A    between atoms: C_1  and  C_2
REMARK    2  A    between atoms: C_2  and  N_3
REMARK    3  A    between atoms: N_14  and  N_15
REMARK    4  A    between atoms: C_16  and  C_18
REMARK    5  A    between atoms: C_18  and  N_19
REMARK    6  A    between atoms: C_27  and  C_28
REMARK                            x       y       z     vdW  Elec       q    Type
REMARK                         _______ _______ _______ _____ _____    ______ ____
ROOT
ATOM      1  N   UNL     1       1.343   5.737   1.682  0.00  0.00    -0.233 N 
ATOM      2  C   UNL     1       2.347   4.876   1.421  0.00  0.00    +0.249 C 
ATOM      3  O   UNL     1       3.014   4.430   2.331  0.00  0.00    -0.272 OA
ATOM      4  H   UNL     1       0.810   6.094   0.955  0.00  0.00    +0.173 HD
ENDROOT
BRANCH   1  16
ATOM      5  N   UNL     1      -0.191   7.338   4.566  0.00  0.00    -0.280 N 
ATOM      6  C   UNL     1      -1.185   8.203   4.875  0.00  0.00    +0.263 A 
ATOM      7  O   UNL     1      -1.408   8.521   6.029  0.00  0.00    -0.267 OA
ATOM      8  C   UNL     1      -1.988   8.739   3.768  0.00  0.00    +0.065 A 
ATOM      9  C   UNL     1      -3.038   9.631   3.983  0.00  0.00    +0.015 A 
ATOM     10  C   UNL     1      -3.753  10.099   2.915  0.00  0.00    +0.001 A 
ATOM     11  C   UNL     1      -3.446   9.694   1.623  0.00  0.00    +0.002 A 
ATOM     12  C   UNL     1      -2.423   8.821   1.384  0.00  0.00    +0.028 A 
ATOM     13  C   UNL     1      -1.673   8.325   2.454  0.00  0.00    +0.080 A 
ATOM     14  N   UNL     1      -0.651   7.457   2.263  0.00  0.00    -0.214 NA
ATOM     15  C   UNL     1       0.050   6.994   3.268  0.00  0.00    +0.216 A 
ATOM     16  N   UNL     1       1.071   6.117   3.003  0.00  0.00    -0.234 N 
ATOM     17  H   UNL     1       1.605   5.760   3.730  0.00  0.00    +0.173 HD
BRANCH   5  19
ATOM     18  C   UNL     1       1.841   7.678   5.883  0.00  0.00    +0.027 C 
ATOM     19  C   UNL     1       0.636   6.770   5.633  0.00  0.00    +0.125 C 
ENDBRANCH   5  19
ENDBRANCH   1  16
BRANCH   2  20
ATOM     20  C   UNL     1       2.640   4.468   0.001  0.00  0.00    +0.219 C 
BRANCH  20  21
ATOM     21  N   UNL     1       3.767   3.532  -0.016  0.00  0.00    -0.331 N 
ATOM     22  C   UNL     1       5.096   3.893  -0.029  0.00  0.00    +0.050 A 
ATOM     23  C   UNL     1       5.751   5.121  -0.030  0.00  0.00    +0.026 A 
ATOM     24  C   UNL     1       7.128   5.163  -0.045  0.00  0.00    +0.002 A 
ATOM     25  C   UNL     1       7.872   3.991  -0.057  0.00  0.00    +0.001 A 
ATOM     26  C   UNL     1       7.252   2.775  -0.056  0.00  0.00    +0.010 A 
ATOM     27  C   UNL     1       5.855   2.708  -0.042  0.00  0.00    +0.000 A 
ATOM     28  C   UNL     1       4.894   1.606  -0.030  0.00  0.00    +0.036 A 
ATOM     29  C   UNL     1       3.657   2.161  -0.020  0.00  0.00    +0.051 A 
BRANCH  29  30
ATOM     30  C   UNL     1       2.385   1.407  -0.010  0.00  0.00    -0.001 A 
ATOM     31  C   UNL     1       2.338   0.104  -0.507  0.00  0.00    +0.010 A 
ATOM     32  C   UNL     1       1.148  -0.594  -0.494  0.00  0.00    +0.001 A 
ATOM     33  C   UNL     1       0.002  -0.004   0.011  0.00  0.00    +0.000 A 
ATOM     34  C   UNL     1       0.042   1.287   0.505  0.00  0.00    +0.001 A 
ATOM     35  C   UNL     1       1.226   1.996   0.498  0.00  0.00    +0.010 A 
ENDBRANCH  29  30
ENDBRANCH  20  21
ENDBRANCH   2  20
TORSDOF 5
