REMARK  Name = ZINC00635483
REMARK  12 active torsions:
REMARK  status: ('A' for Active; 'I' for Inactive)
REMARK    1  A    between atoms: C_1  and  C_2
REMARK    2  A    between atoms: C_2  and  O_3
REMARK    3  A    between atoms: O_3  and  C_4
REMARK    4  A    between atoms: C_4  and  C_6
REMARK    5  A    between atoms: C_7  and  C_40
REMARK    6  A    between atoms: N_21  and  C_24
REMARK    7  A    between atoms: C_26  and  C_28
REMARK    8  A    between atoms: C_31  and  O_36
REMARK    9  A    between atoms: C_32  and  O_34
REMARK   10  A    between atoms: O_34  and  C_35
REMARK   11  A    between atoms: O_36  and  C_37
REMARK   12  A    between atoms: C_37  and  C_39
REMARK                            x       y       z     vdW  Elec       q    Type
REMARK                         _______ _______ _______ _____ _____    ______ ____
ROOT
ATOM      1  C   UNL     1       0.836  -2.705  -3.002  0.00  0.00    +0.085 C 
ATOM      2  C   UNL     1       0.999  -4.052  -3.155  0.00  0.00    +0.053 C 
ATOM      3  N   UNL     1       1.730  -4.535  -4.153  0.00  0.00    -0.228 NA
ATOM      4  C   UNL     1       2.340  -3.809  -5.052  0.00  0.00    +0.178 A 
ATOM      5  N   UNL     1       2.305  -2.433  -5.083  0.00  0.00    -0.275 N 
ATOM      6  C   UNL     1       2.970  -1.793  -6.053  0.00  0.00    +0.269 A 
ATOM      7  O   UNL     1       2.969  -0.579  -6.122  0.00  0.00    -0.266 OA
ATOM      8  C   UNL     1       3.706  -2.615  -7.041  0.00  0.00    +0.093 A 
ATOM      9  C   UNL     1       4.463  -2.216  -8.126  0.00  0.00    +0.065 C 
ATOM     10  C   UNL     1       5.177  -3.079  -9.090  0.00  0.00    +0.010 A 
ATOM     11  C   UNL     1       5.314  -4.459  -9.215  0.00  0.00    +0.010 A 
ATOM     12  C   UNL     1       6.065  -4.981 -10.248  0.00  0.00    +0.001 A 
ATOM     13  C   UNL     1       6.680  -4.135 -11.156  0.00  0.00    +0.002 A 
ATOM     14  C   UNL     1       6.551  -2.765 -11.041  0.00  0.00    +0.024 A 
ATOM     15  C   UNL     1       5.798  -2.219 -10.008  0.00  0.00    +0.044 A 
ATOM     16  N   UNL     1       5.511  -0.902  -9.669  0.00  0.00    -0.270 N 
ATOM     17  C   UNL     1       4.728  -0.835  -8.579  0.00  0.00    +0.252 C 
ATOM     18  O   UNL     1       4.314   0.182  -8.056  0.00  0.00    -0.270 OA
ATOM     19  C   UNL     1       5.996   0.266 -10.410  0.00  0.00    +0.138 C 
ATOM     20  S   UNL     1       3.351  -4.262  -6.448  0.00  0.00    -0.045 S 
ATOM     21  C   UNL     1       1.504  -1.790  -4.003  0.00  0.00    +0.162 C 
ATOM     22  C   UNL     1       0.346  -4.998  -2.181  0.00  0.00    +0.066 C 
ENDROOT
BRANCH  21  23
ATOM     23  C   UNL     1       0.432  -0.952  -4.651  0.00  0.00    -0.016 A 
ATOM     24  C   UNL     1      -0.443  -1.528  -5.554  0.00  0.00    +0.010 A 
ATOM     25  C   UNL     1      -1.427  -0.763  -6.151  0.00  0.00    +0.050 A 
ATOM     26  C   UNL     1      -1.540   0.584  -5.845  0.00  0.00    +0.173 A 
ATOM     27  C   UNL     1      -0.659   1.163  -4.936  0.00  0.00    +0.163 A 
ATOM     28  C   UNL     1       0.323   0.390  -4.337  0.00  0.00    +0.055 A 
BRANCH  27  29
ATOM     29  O   UNL     1      -0.765   2.485  -4.633  0.00  0.00    -0.491 OA
ATOM     30  C   UNL     1       0.239   3.037  -3.779  0.00  0.00    +0.277 C 
ENDBRANCH  27  29
BRANCH  26  31
ATOM     31  O   UNL     1      -2.508   1.337  -6.431  0.00  0.00    -0.422 OA
BRANCH  31  32
ATOM     32  C   UNL     1      -2.187   2.023  -7.540  0.00  0.00    +0.309 C 
ATOM     33  O   UNL     1      -1.095   1.887  -8.040  0.00  0.00    -0.251 OA
ATOM     34  C   UNL     1      -3.189   2.962  -8.161  0.00  0.00    +0.136 C 
ENDBRANCH  31  32
ENDBRANCH  26  31
ENDBRANCH  21  23
BRANCH   1  35
ATOM     35  C   UNL     1       0.065  -2.184  -1.947  0.00  0.00    +0.339 C 
ATOM     36  O   UNL     1      -0.578  -2.934  -1.235  0.00  0.00    -0.245 OA
BRANCH  35  37
ATOM     37  O   UNL     1       0.036  -0.852  -1.725  0.00  0.00    -0.462 OA
BRANCH  37  39
ATOM     38  C   UNL     1      -0.704   1.127  -0.553  0.00  0.00    +0.048 C 
ATOM     39  C   UNL     1      -0.676  -0.402  -0.571  0.00  0.00    +0.229 C 
ENDBRANCH  37  39
ENDBRANCH  35  37
ENDBRANCH   1  35
TORSDOF 7
