REMARK  Name = ZINC13041029
REMARK  10 active torsions:
REMARK  status: ('A' for Active; 'I' for Inactive)
REMARK    1  A    between atoms: C_1  and  C_2
REMARK    2  A    between atoms: C_2  and  N_3
REMARK    3  A    between atoms: N_3  and  C_4
REMARK    4  A    between atoms: N_3  and  S_6
REMARK    5  A    between atoms: C_4  and  C_5
REMARK    6  A    between atoms: S_6  and  C_9
REMARK    7  A    between atoms: C_13  and  N_15
REMARK    8  A    between atoms: N_15  and  S_16
REMARK    9  A    between atoms: S_16  and  C_19
REMARK   10  A    between atoms: C_21  and  C_26
REMARK                            x       y       z     vdW  Elec       q    Type
REMARK                         _______ _______ _______ _____ _____    ______ ____
ROOT
ATOM      1  N   UNL     1       4.250  -3.426  -1.892  0.00  0.00    -0.216 N 
ATOM      2  H   UNL     1       4.271  -3.652  -0.949  0.00  0.00    +0.174 HD
ENDROOT
BRANCH   1   7
ATOM      3  C   UNL     1       1.724  -0.782  -2.250  0.00  0.00    +0.107 A 
ATOM      4  C   UNL     1       2.346   0.052  -3.162  0.00  0.00    +0.028 A 
ATOM      5  C   UNL     1       3.602  -0.262  -3.646  0.00  0.00    +0.004 A 
ATOM      6  C   UNL     1       4.236  -1.416  -3.228  0.00  0.00    +0.024 A 
ATOM      7  C   UNL     1       3.612  -2.258  -2.317  0.00  0.00    +0.050 A 
ATOM      8  C   UNL     1       2.352  -1.937  -1.828  0.00  0.00    +0.053 A 
BRANCH   3   9
ATOM      9  S   UNL     1       0.125  -0.373  -1.632  0.00  0.00    +0.061 S 
ATOM     10  O   UNL     1      -0.472  -1.592  -1.214  0.00  0.00    -0.153 OA
ATOM     11  O   UNL     1      -0.477   0.479  -2.596  0.00  0.00    -0.153 OA
BRANCH   9  12
ATOM     12  N   UNL     1       0.347   0.538  -0.267  0.00  0.00    -0.177 NA
BRANCH  12  14
ATOM     13  C   UNL     1       1.914   2.408  -0.440  0.00  0.00    +0.022 C 
ATOM     14  C   UNL     1       0.442   1.997  -0.368  0.00  0.00    +0.106 C 
ENDBRANCH  12  14
BRANCH  12  15
ATOM     15  C   UNL     1       0.447  -0.114   1.041  0.00  0.00    +0.106 C 
ATOM     16  C   UNL     1      -0.927  -0.124   1.712  0.00  0.00    +0.022 C 
ENDBRANCH  12  15
ENDBRANCH   9  12
ENDBRANCH   3   9
ENDBRANCH   1   7
BRANCH   1  17
ATOM     17  S   UNL     1       4.970  -4.425  -2.999  0.00  0.00    +0.074 S 
ATOM     18  O   UNL     1       5.844  -3.613  -3.771  0.00  0.00    -0.150 OA
ATOM     19  O   UNL     1       5.424  -5.565  -2.283  0.00  0.00    -0.150 OA
BRANCH  17  20
ATOM     20  C   UNL     1       3.708  -4.987  -4.092  0.00  0.00    +0.127 A 
ATOM     21  C   UNL     1       3.749  -4.642  -5.427  0.00  0.00    +0.045 A 
ATOM     22  C   UNL     1       2.748  -5.088  -6.292  0.00  0.00    +0.065 A 
ATOM     23  C   UNL     1       1.711  -5.883  -5.799  0.00  0.00    +0.016 A 
ATOM     24  C   UNL     1       1.681  -6.222  -4.463  0.00  0.00    +0.023 A 
ATOM     25  C   UNL     1       2.679  -5.780  -3.611  0.00  0.00    +0.068 A 
ATOM     26 CL   UNL     1       2.638  -6.217  -1.931  0.00  0.00    -0.082 Cl
BRANCH  22  27
ATOM     27  C   UNL     1       2.786  -4.722  -7.722  0.00  0.00    +0.387 C 
ATOM     28  O   UNL     1       3.690  -4.031  -8.148  0.00  0.00    -0.241 OA
ATOM     29  O   UNL     1       1.819  -5.155  -8.554  0.00  0.00    -0.241 OA
ENDBRANCH  22  27
ENDBRANCH  17  20
ENDBRANCH   1  17
TORSDOF 8
