REMARK  Name = ZINC13678544
REMARK  8 active torsions:
REMARK  status: ('A' for Active; 'I' for Inactive)
REMARK    1  A    between atoms: C_1  and  C_2
REMARK    2  A    between atoms: C_5  and  C_32
REMARK    3  A    between atoms: C_7  and  N_8
REMARK    4  A    between atoms: C_9  and  C_11
REMARK    5  A    between atoms: N_14  and  S_22
REMARK    6  A    between atoms: S_22  and  C_25
REMARK    7  A    between atoms: C_32  and  O_34
REMARK    8  A    between atoms: O_34  and  C_35
REMARK                            x       y       z     vdW  Elec       q    Type
REMARK                         _______ _______ _______ _____ _____    ______ ____
ROOT
ATOM      1  C   UNL     1       6.044   2.285   0.173  0.00  0.00    +0.278 C 
ATOM      2  C   UNL     1       6.071   3.051   1.503  0.00  0.00    +0.186 C 
ATOM      3  N   UNL     1       7.359   3.762   1.581  0.00  0.00    -0.195 N 
ATOM      4  C   UNL     1       8.510   3.075   1.165  0.00  0.00    +0.093 A 
ATOM      5  C   UNL     1       9.766   3.573   1.472  0.00  0.00    +0.028 A 
ATOM      6  C   UNL     1      10.897   2.896   1.054  0.00  0.00    +0.002 A 
ATOM      7  C   UNL     1      10.775   1.724   0.331  0.00  0.00    +0.004 A 
ATOM      8  C   UNL     1       9.524   1.222   0.023  0.00  0.00    +0.047 A 
ATOM      9  C   UNL     1       8.385   1.893   0.439  0.00  0.00    +0.144 A 
ATOM     10  O   UNL     1       7.159   1.391   0.134  0.00  0.00    -0.476 OA
ENDROOT
BRANCH   1  12
ATOM     11  N   UNL     1       3.582   2.144  -0.017  0.00  0.00    -0.282 N 
ATOM     12  C   UNL     1       4.763   1.499   0.069  0.00  0.00    +0.260 C 
ATOM     13  O   UNL     1       4.793   0.287   0.062  0.00  0.00    -0.271 OA
ATOM     14  H   UNL     1       3.562   3.111  -0.092  0.00  0.00    +0.155 HD
BRANCH  11  21
ATOM     15  C   UNL     1       1.292   3.306  -1.234  0.00  0.00    +0.045 C 
ATOM     16  C   UNL     1       1.242   1.949  -0.581  0.00  0.00    -0.029 A 
ATOM     17  C   UNL     1       0.057   1.237  -0.564  0.00  0.00    +0.006 A 
ATOM     18  C   UNL     1       0.002  -0.006   0.032  0.00  0.00    +0.015 A 
ATOM     19  C   UNL     1       1.146  -0.549   0.621  0.00  0.00    +0.061 A 
ATOM     20  C   UNL     1       2.341   0.170   0.604  0.00  0.00    +0.038 A 
ATOM     21  C   UNL     1       2.385   1.418   0.003  0.00  0.00    +0.037 A 
BRANCH  19  22
ATOM     22  C   UNL     1       1.091  -1.880   1.260  0.00  0.00    +0.339 C 
ATOM     23  O   UNL     1       2.087  -2.350   1.772  0.00  0.00    -0.245 OA
BRANCH  22  24
ATOM     24  O   UNL     1      -0.065  -2.573   1.274  0.00  0.00    -0.464 OA
ATOM     25  C   UNL     1      -0.045  -3.873   1.919  0.00  0.00    +0.280 C 
ENDBRANCH  22  24
ENDBRANCH  19  22
ENDBRANCH  11  21
ENDBRANCH   1  12
BRANCH   3  26
ATOM     26  S   UNL     1       7.446   5.319   2.139  0.00  0.00    +0.075 S 
ATOM     27  O   UNL     1       8.561   5.920   1.496  0.00  0.00    -0.150 OA
ATOM     28  O   UNL     1       6.134   5.857   2.049  0.00  0.00    -0.150 OA
BRANCH  26  29
ATOM     29  C   UNL     1       7.839   5.236   3.855  0.00  0.00    +0.109 A 
ATOM     30  C   UNL     1       6.826   5.179   4.794  0.00  0.00    +0.030 A 
ATOM     31  C   UNL     1       7.133   5.108   6.139  0.00  0.00    +0.022 A 
ATOM     32  C   UNL     1       8.455   5.106   6.547  0.00  0.00    +0.041 A 
ATOM     33  C   UNL     1       9.469   5.168   5.607  0.00  0.00    +0.022 A 
ATOM     34  C   UNL     1       9.160   5.234   4.262  0.00  0.00    +0.030 A 
ATOM     35 CL   UNL     1       8.842   5.023   8.238  0.00  0.00    -0.084 Cl
ENDBRANCH  26  29
ENDBRANCH   3  26
TORSDOF 6
