REMARK  Name = ZINC19973370
REMARK  10 active torsions:
REMARK  status: ('A' for Active; 'I' for Inactive)
REMARK    1  A    between atoms: C_1  and  C_2
REMARK    2  A    between atoms: C_2  and  C_3
REMARK    3  A    between atoms: C_3  and  N_4
REMARK    4  A    between atoms: N_7  and  C_10
REMARK    5  A    between atoms: C_10  and  C_12
REMARK    6  A    between atoms: C_10  and  C_27
REMARK    7  A    between atoms: N_31  and  C_32
REMARK    8  A    between atoms: C_32  and  C_33
REMARK    9  A    between atoms: C_32  and  C_34
REMARK   10  A    between atoms: C_32  and  C_35
REMARK                            x       y       z     vdW  Elec       q    Type
REMARK                         _______ _______ _______ _____ _____    ______ ____
ROOT
ATOM      1  C   UNL     1       0.156  -5.897  -2.468  0.00  0.00    +0.162 C 
ENDROOT
BRANCH   1   2
ATOM      2  C   UNL     1       0.966  -6.083  -3.725  0.00  0.00    +0.042 A 
ATOM      3  C   UNL     1       2.029  -6.926  -3.726  0.00  0.00    +0.021 A 
ATOM      4  C   UNL     1       2.796  -7.085  -4.961  0.00  0.00    +0.003 A 
ATOM      5  C   UNL     1       3.903  -7.941  -5.020  0.00  0.00    +0.059 A 
ATOM      6  C   UNL     1       4.606  -8.068  -6.197  0.00  0.00    +0.167 A 
ATOM      7  C   UNL     1       4.217  -7.346  -7.333  0.00  0.00    +0.168 A 
ATOM      8  C   UNL     1       3.125  -6.499  -7.284  0.00  0.00    +0.075 A 
ATOM      9  C   UNL     1       2.406  -6.359  -6.104  0.00  0.00    +0.053 A 
ATOM     10  N   UNL     1       1.314  -5.518  -6.036  0.00  0.00    -0.322 N 
ATOM     11  H   UNL     1       1.046  -5.019  -6.824  0.00  0.00    +0.169 HD
ATOM     12  C   UNL     1       0.614  -5.383  -4.897  0.00  0.00    +0.254 A 
ATOM     13  O   UNL     1      -0.348  -4.634  -4.875  0.00  0.00    -0.268 OA
ATOM     14  O   UNL     1       5.071  -7.652  -8.352  0.00  0.00    -0.453 OA
ATOM     15  C   UNL     1       6.224  -8.243  -7.726  0.00  0.00    +0.466 C 
ATOM     16  O   UNL     1       5.701  -8.819  -6.515  0.00  0.00    -0.453 OA
ENDBRANCH   1   2
BRANCH   1  20
ATOM     17  N   UNL     1       0.570  -2.197  -0.467  0.00  0.00    +0.381 N 
ATOM     18  C   UNL     1      -0.782  -2.748  -0.626  0.00  0.00    -0.063 C 
ATOM     19  C   UNL     1      -0.691  -4.250  -0.908  0.00  0.00    +0.067 C 
ATOM     20  N   UNL     1       0.093  -4.469  -2.131  0.00  0.00    -0.292 NA
ATOM     21  C   UNL     1       1.442  -3.900  -1.996  0.00  0.00    +0.067 C 
ATOM     22  C   UNL     1       1.333  -2.402  -1.705  0.00  0.00    -0.063 C 
ATOM     23  H   UNL     1       1.036  -2.665   0.296  0.00  0.00    -0.082 HD
BRANCH  17  24
ATOM     24  C   UNL     1       0.482  -0.759  -0.178  0.00  0.00    -0.079 C 
BRANCH  24  26
ATOM     25  C   UNL     1      -0.296   0.946   1.474  0.00  0.00    +0.002 C 
ATOM     26  C   UNL     1      -0.204  -0.552   1.173  0.00  0.00    -0.022 C 
ENDBRANCH  24  26
ENDBRANCH  17  24
ENDBRANCH   1  20
BRANCH   1  27
ATOM     27  C   UNL     1      -1.239  -6.423  -2.687  0.00  0.00    +0.174 A 
ATOM     28  N   UNL     1      -2.157  -5.906  -3.467  0.00  0.00    -0.111 NA
ATOM     29  N   UNL     1      -3.211  -6.642  -3.384  0.00  0.00    -0.023 NA
ATOM     30  N   UNL     1      -2.989  -7.616  -2.572  0.00  0.00    -0.043 NA
ATOM     31  N   UNL     1      -1.783  -7.519  -2.126  0.00  0.00    -0.222 N 
BRANCH  31  32
ATOM     32  C   UNL     1      -1.128  -8.429  -1.182  0.00  0.00    +0.059 C 
ATOM     33  C   UNL     1      -0.771  -7.668   0.096  0.00  0.00    +0.036 C 
ATOM     34  C   UNL     1      -2.077  -9.580  -0.842  0.00  0.00    +0.036 C 
ATOM     35  C   UNL     1       0.147  -8.989  -1.815  0.00  0.00    +0.036 C 
ENDBRANCH  31  32
ENDBRANCH   1  27
TORSDOF 6
