REMARK  Name = ZINC64697450
REMARK  6 active torsions:
REMARK  status: ('A' for Active; 'I' for Inactive)
REMARK    1  A    between atoms: C_1  and  C_2
REMARK    2  A    between atoms: C_2  and  S_3
REMARK    3  A    between atoms: S_3  and  C_6
REMARK    4  A    between atoms: C_6  and  C_7
REMARK    5  A    between atoms: N_9  and  C_10
REMARK    6  A    between atoms: C_14  and  N_16
REMARK                            x       y       z     vdW  Elec       q    Type
REMARK                         _______ _______ _______ _____ _____    ______ ____
ROOT
ATOM      1  C   UNL     1      -2.807  -3.114   0.014  0.00  0.00    +0.238 C 
ATOM      2  O   UNL     1      -3.823  -2.452   0.036  0.00  0.00    -0.274 OA
ATOM      3  N   UNL     1      -2.878  -4.460   0.006  0.00  0.00    -0.284 N 
ATOM      4  H   UNL     1      -2.069  -4.988  -0.080  0.00  0.00    +0.155 HD
ENDROOT
BRANCH   3   5
ATOM      5  C   UNL     1      -4.120  -5.095   0.120  0.00  0.00    +0.036 A 
ATOM      6  C   UNL     1      -4.228  -6.292   0.816  0.00  0.00    +0.025 A 
ATOM      7  C   UNL     1      -5.454  -6.917   0.927  0.00  0.00    +0.024 A 
ATOM      8  C   UNL     1      -6.576  -6.351   0.346  0.00  0.00    +0.071 A 
ATOM      9  C   UNL     1      -6.471  -5.158  -0.348  0.00  0.00    +0.146 A 
ATOM     10  C   UNL     1      -5.248  -4.527  -0.458  0.00  0.00    +0.057 A 
ATOM     11 CL   UNL     1      -8.116  -7.139   0.487  0.00  0.00    -0.081 Cl
BRANCH   9  12
ATOM     12  N   UNL     1      -7.672  -4.556  -0.969  0.00  0.00    +0.058 N 
ATOM     13  O   UNL     1      -7.582  -3.515  -1.576  0.00  0.00    -0.126 OA
ATOM     14  O   UNL     1      -8.744  -5.107  -0.870  0.00  0.00    -0.126 OA
ENDBRANCH   9  12
ENDBRANCH   3   5
BRANCH   1  15
ATOM     15  C   UNL     1      -1.463  -2.431  -0.004  0.00  0.00    +0.261 C 
BRANCH  15  16
ATOM     16  S   UNL     1      -1.699  -0.632   0.013  0.00  0.00    -0.023 S 
ATOM     17  O   UNL     1      -2.295  -0.268   1.251  0.00  0.00    -0.174 OA
ATOM     18  O   UNL     1      -2.336  -0.251  -1.199  0.00  0.00    -0.174 OA
BRANCH  16  20
ATOM     19  C   UNL     1      -0.018   1.526  -0.000  0.00  0.00    +0.028 C 
ATOM     20  C   UNL     1       0.002  -0.004  -0.011  0.00  0.00    +0.163 C 
ENDBRANCH  16  20
ENDBRANCH  15  16
ENDBRANCH   1  15
TORSDOF 5
