REMARK  Name = ZINC33350929
REMARK  5 active torsions:
REMARK  status: ('A' for Active; 'I' for Inactive)
REMARK    1  A    between atoms: C_3  and  N_24
REMARK    2  A    between atoms: C_6  and  C_7
REMARK    3  A    between atoms: C_10  and  C_12
REMARK    4  A    between atoms: N_13  and  N_14
REMARK    5  A    between atoms: C_15  and  C_17
REMARK                            x       y       z     vdW  Elec       q    Type
REMARK                         _______ _______ _______ _____ _____    ______ ____
ROOT
ATOM      1  C   UNL     1      -1.268  -0.573   1.093  0.00  0.00    +0.136 A 
ATOM      2  C   UNL     1      -1.316  -1.988   1.089  0.00  0.00    +0.050 A 
ATOM      3  C   UNL     1      -2.600  -2.353   0.841  0.00  0.00    +0.051 A 
ATOM      4  C   UNL     1      -3.362  -1.105   0.688  0.00  0.00    +0.148 A 
ATOM      5  O   UNL     1      -2.496  -0.082   0.858  0.00  0.00    -0.454 OA
ENDROOT
BRANCH   1  11
ATOM      6  C   UNL     1      -0.171   1.611   1.266  0.00  0.00    +0.014 A 
ATOM      7  C   UNL     1       0.961   2.354   1.483  0.00  0.00    +0.033 A 
ATOM      8  C   UNL     1       2.168   1.726   1.752  0.00  0.00    +0.126 A 
ATOM      9  C   UNL     1       2.245   0.342   1.804  0.00  0.00    +0.033 A 
ATOM     10  C   UNL     1       1.127  -0.421   1.590  0.00  0.00    +0.014 A 
ATOM     11  C   UNL     1      -0.104   0.206   1.316  0.00  0.00    +0.017 A 
BRANCH   8  12
ATOM     12  N   UNL     1       3.383   2.539   1.985  0.00  0.00    +0.056 N 
ATOM     13  O   UNL     1       3.316   3.853   1.936  0.00  0.00    -0.126 OA
ATOM     14  O   UNL     1       4.532   1.947   2.240  0.00  0.00    -0.126 OA
ENDBRANCH   8  12
ENDBRANCH   1  11
BRANCH   4  15
ATOM     15  C   UNL     1      -4.720  -0.997   0.424  0.00  0.00    +0.176 C 
ATOM     16  N   UNL     1      -5.263   0.196   0.209  0.00  0.00    -0.184 NA
BRANCH  16  17
ATOM     17  N   UNL     1      -4.507   1.230   0.057  0.00  0.00    -0.203 N 
ATOM     18  C   UNL     1      -5.056   2.457  -0.044  0.00  0.00    +0.263 C 
ATOM     19  O   UNL     1      -6.253   2.601   0.104  0.00  0.00    -0.268 OA
ATOM     20  H   UNL     1      -3.544   1.125   0.014  0.00  0.00    +0.178 HD
BRANCH  18  21
ATOM     21  C   UNL     1      -4.202   3.626  -0.332  0.00  0.00    +0.038 A 
ATOM     22  C   UNL     1      -2.849   3.450  -0.631  0.00  0.00    +0.014 A 
ATOM     23  C   UNL     1      -2.057   4.546  -0.899  0.00  0.00    +0.016 A 
ATOM     24  C   UNL     1      -2.600   5.820  -0.874  0.00  0.00    +0.018 A 
ATOM     25  C   UNL     1      -3.942   6.002  -0.579  0.00  0.00    +0.016 A 
ATOM     26  C   UNL     1      -4.746   4.914  -0.314  0.00  0.00    +0.014 A 
ATOM     27 BR   UNL     1      -1.507   7.318  -1.243  0.00  0.00    -0.050 Br
ENDBRANCH  18  21
ENDBRANCH  16  17
ENDBRANCH   4  15
TORSDOF 5
