REMARK  Name = ZINC15349211
REMARK  5 active torsions:
REMARK  status: ('A' for Active; 'I' for Inactive)
REMARK    1  A    between atoms: C_1  and  C_2
REMARK    2  A    between atoms: C_2  and  C_3
REMARK    3  A    between atoms: C_3  and  N_4
REMARK    4  A    between atoms: N_9  and  C_12
REMARK    5  A    between atoms: C_16  and  C_17
REMARK                            x       y       z     vdW  Elec       q    Type
REMARK                         _______ _______ _______ _____ _____    ______ ____
ROOT
ATOM      1  N   UNL     1      -2.624   4.506   6.114  0.00  0.00    -0.281 N 
ATOM      2  C   UNL     1      -2.930   5.181   4.958  0.00  0.00    +0.123 A 
ATOM      3  C   UNL     1      -3.651   6.374   5.058  0.00  0.00    +0.126 A 
ATOM      4  C   UNL     1      -4.047   6.851   6.382  0.00  0.00    +0.269 A 
ATOM      5  O   UNL     1      -4.676   7.886   6.510  0.00  0.00    -0.267 OA
ATOM      6  N   UNL     1      -3.697   6.116   7.460  0.00  0.00    -0.263 N 
ATOM      7  C   UNL     1      -3.004   4.975   7.313  0.00  0.00    +0.333 A 
ATOM      8  O   UNL     1      -2.708   4.341   8.307  0.00  0.00    -0.246 OA
ATOM      9  C   UNL     1      -4.078   6.567   8.801  0.00  0.00    +0.157 C 
ATOM     10  C   UNL     1      -3.845   6.886   3.702  0.00  0.00    +0.216 C 
ATOM     11  O   UNL     1      -4.426   7.906   3.368  0.00  0.00    -0.285 OA
ATOM     12  C   UNL     1      -3.184   5.903   2.827  0.00  0.00    +0.081 C 
ATOM     13  C   UNL     1      -3.100   5.952   1.472  0.00  0.00    +0.036 C 
ATOM     14  N   UNL     1      -2.666   4.909   3.655  0.00  0.00    -0.297 N 
ATOM     15  H   UNL     1      -2.180   4.129   3.342  0.00  0.00    +0.154 HD
ENDROOT
BRANCH  13  16
ATOM     16  C   UNL     1      -2.275   4.976   0.752  0.00  0.00    -0.006 A 
ATOM     17  C   UNL     1      -1.151   4.413   1.371  0.00  0.00    +0.058 A 
ATOM     18  C   UNL     1      -0.378   3.495   0.689  0.00  0.00    +0.167 A 
ATOM     19  C   UNL     1      -0.716   3.129  -0.616  0.00  0.00    +0.167 A 
ATOM     20  C   UNL     1      -1.829   3.686  -1.230  0.00  0.00    +0.065 A 
ATOM     21  C   UNL     1      -2.607   4.604  -0.557  0.00  0.00    +0.029 A 
ATOM     22 BR   UNL     1      -4.122   5.360  -1.401  0.00  0.00    -0.050 Br
ATOM     23  O   UNL     1       0.197   2.218  -1.061  0.00  0.00    -0.453 OA
ATOM     24  C   UNL     1       1.325   2.337  -0.174  0.00  0.00    +0.466 C 
ATOM     25  O   UNL     1       0.749   2.814   1.056  0.00  0.00    -0.453 OA
ENDBRANCH  13  16
BRANCH   1  26
ATOM     26  C   UNL     1      -1.869   3.253   6.038  0.00  0.00    +0.128 C 
BRANCH  26  28
ATOM     27  C   UNL     1      -2.053   0.770   5.829  0.00  0.00    +0.005 C 
ATOM     28  C   UNL     1      -2.841   2.079   5.909  0.00  0.00    +0.018 C 
ENDBRANCH  26  28
ENDBRANCH   1  26
TORSDOF 3
