REMARK  Name = ZINC13203932
REMARK  9 active torsions:
REMARK  status: ('A' for Active; 'I' for Inactive)
REMARK    1  A    between atoms: C_1  and  C_2
REMARK    2  A    between atoms: C_2  and  C_4
REMARK    3  A    between atoms: C_9  and  N_10
REMARK    4  A    between atoms: C_11  and  C_13
REMARK    5  A    between atoms: C_13  and  S_14
REMARK    6  A    between atoms: S_14  and  C_15
REMARK    7  A    between atoms: C_18  and  C_23
REMARK    8  A    between atoms: N_19  and  C_20
REMARK    9  A    between atoms: C_20  and  C_21
REMARK                            x       y       z     vdW  Elec       q    Type
REMARK                         _______ _______ _______ _____ _____    ______ ____
ROOT
ATOM      1  C   UNL     1      -0.482   2.654   2.140  0.00  0.00    +0.193 A 
ATOM      2  N   UNL     1      -1.410   2.808   3.058  0.00  0.00    -0.122 NA
ATOM      3  N   UNL     1      -2.254   1.841   2.999  0.00  0.00    -0.128 NA
ATOM      4  C   UNL     1      -1.920   1.013   2.036  0.00  0.00    +0.165 A 
ATOM      5  N   UNL     1      -0.777   1.510   1.454  0.00  0.00    -0.291 N 
ENDROOT
BRANCH   4   6
ATOM      6  C   UNL     1      -2.637  -0.221   1.650  0.00  0.00    +0.019 A 
ATOM      7  C   UNL     1      -2.430  -0.787   0.391  0.00  0.00    +0.013 A 
ATOM      8  C   UNL     1      -3.098  -1.941   0.039  0.00  0.00    +0.021 A 
ATOM      9  C   UNL     1      -3.980  -2.533   0.927  0.00  0.00    +0.041 A 
ATOM     10  C   UNL     1      -4.194  -1.973   2.176  0.00  0.00    +0.021 A 
ATOM     11  C   UNL     1      -3.528  -0.822   2.542  0.00  0.00    +0.013 A 
ATOM     12 CL   UNL     1      -4.823  -3.981   0.474  0.00  0.00    -0.084 Cl
ENDBRANCH   4   6
BRANCH   1  13
ATOM     13  S   UNL     1       0.886   3.725   1.847  0.00  0.00    -0.077 S 
BRANCH  13  14
ATOM     14  C   UNL     1       0.589   4.972   3.125  0.00  0.00    +0.173 C 
BRANCH  14  16
ATOM     15  N   UNL     1       1.651   7.057   3.926  0.00  0.00    -0.284 N 
ATOM     16  C   UNL     1       1.667   6.023   3.063  0.00  0.00    +0.228 C 
ATOM     17  O   UNL     1       2.550   5.937   2.235  0.00  0.00    -0.275 OA
ATOM     18  H   UNL     1       0.983   7.092   4.628  0.00  0.00    +0.155 HD
BRANCH  15  24
ATOM     19  C   UNL     1       2.225   9.409   4.055  0.00  0.00    +0.038 A 
ATOM     20  C   UNL     1       3.183  10.423   3.935  0.00  0.00    +0.013 A 
ATOM     21  C   UNL     1       4.475  10.106   3.579  0.00  0.00    +0.001 A 
ATOM     22  C   UNL     1       4.834   8.789   3.339  0.00  0.00    +0.002 A 
ATOM     23  C   UNL     1       3.902   7.777   3.459  0.00  0.00    +0.024 A 
ATOM     24  C   UNL     1       2.593   8.075   3.811  0.00  0.00    +0.044 A 
BRANCH  19  26
ATOM     25  C   UNL     1       0.437  11.177   4.616  0.00  0.00    +0.091 C 
ATOM     26  C   UNL     1       0.846   9.738   4.434  0.00  0.00    +0.162 C 
ATOM     27  O   UNL     1       0.035   8.851   4.602  0.00  0.00    -0.292 OA
ENDBRANCH  19  26
ENDBRANCH  15  24
ENDBRANCH  14  16
ENDBRANCH  13  14
ENDBRANCH   1  13
BRANCH   5  28
ATOM     28  C   UNL     1      -0.028   0.931   0.336  0.00  0.00    +0.250 C 
BRANCH  28  29
ATOM     29  C   UNL     1      -0.516   1.528  -0.958  0.00  0.00    +0.375 C 
ATOM     30  O   UNL     1      -1.399   2.354  -0.948  0.00  0.00    -0.244 OA
ATOM     31  O   UNL     1       0.029   1.144  -2.123  0.00  0.00    -0.244 OA
ENDBRANCH  28  29
ENDBRANCH   5  28
TORSDOF 8
