REMARK  Name = ZINC35098034
REMARK  12 active torsions:
REMARK  status: ('A' for Active; 'I' for Inactive)
REMARK    1  A    between atoms: C_1  and  C_2
REMARK    2  A    between atoms: C_2  and  C_3
REMARK    3  A    between atoms: C_3  and  C_5
REMARK    4  A    between atoms: C_3  and  C_6
REMARK    5  A    between atoms: C_6  and  C_8
REMARK    6  A    between atoms: C_6  and  N_24
REMARK    7  A    between atoms: C_14  and  C_17
REMARK    8  A    between atoms: N_20  and  C_21
REMARK    9  A    between atoms: C_21  and  C_22
REMARK   10  A    between atoms: C_21  and  C_23
REMARK   11  A    between atoms: N_24  and  S_25
REMARK   12  A    between atoms: S_25  and  C_28
REMARK                            x       y       z     vdW  Elec       q    Type
REMARK                         _______ _______ _______ _____ _____    ______ ____
ROOT
ATOM      1  C   UNL     1       0.402   0.083  -2.728  0.00  0.00    +0.165 C 
ENDROOT
BRANCH   1   2
ATOM      2  C   UNL     1       0.131  -1.268  -3.338  0.00  0.00    +0.235 C 
ATOM      3  O   UNL     1      -0.383  -1.347  -4.433  0.00  0.00    -0.274 OA
ATOM      4  N   UNL     1       0.459  -2.389  -2.665  0.00  0.00    -0.297 N 
ATOM      5  C   UNL     1       0.964  -2.314  -1.287  0.00  0.00    +0.127 C 
ATOM      6  C   UNL     1       2.316  -3.036  -1.220  0.00  0.00    +0.128 C 
ATOM      7  N   UNL     1       2.175  -4.355  -1.852  0.00  0.00    -0.280 N 
ATOM      8  C   UNL     1       1.670  -4.431  -3.230  0.00  0.00    +0.092 C 
ATOM      9  C   UNL     1       0.314  -3.709  -3.295  0.00  0.00    +0.130 C 
ATOM     10  C   UNL     1       2.664  -3.757  -4.178  0.00  0.00    +0.030 C 
ATOM     11  C   UNL     1       2.504  -5.476  -1.179  0.00  0.00    +0.303 C 
ATOM     12  O   UNL     1       2.472  -6.554  -1.742  0.00  0.00    -0.253 OA
ATOM     13  N   UNL     1       2.867  -5.402   0.117  0.00  0.00    -0.297 N 
ATOM     14  H   UNL     1       2.822  -4.555   0.586  0.00  0.00    +0.150 HD
BRANCH  13  15
ATOM     15  C   UNL     1       3.331  -6.603   0.817  0.00  0.00    +0.068 C 
ATOM     16  C   UNL     1       4.234  -6.196   1.983  0.00  0.00    +0.027 C 
ATOM     17  C   UNL     1       2.126  -7.380   1.351  0.00  0.00    +0.027 C 
ENDBRANCH  13  15
ENDBRANCH   1   2
BRANCH   1  18
ATOM     18  C   UNL     1       1.893   0.405  -2.844  0.00  0.00    +0.013 C 
ATOM     19  C   UNL     1       2.277   1.435  -1.781  0.00  0.00    +0.009 C 
BRANCH  18  21
ATOM     20  C   UNL     1       1.932  -0.105  -5.290  0.00  0.00    +0.004 C 
ATOM     21  C   UNL     1       2.186   0.973  -4.234  0.00  0.00    +0.002 C 
ENDBRANCH  18  21
ENDBRANCH   1  18
BRANCH   1  22
ATOM     22  N   UNL     1      -0.374   1.103  -3.437  0.00  0.00    -0.178 NA
ATOM     23  H   UNL     1       0.006   1.554  -4.207  0.00  0.00    +0.149 HD
BRANCH  22  24
ATOM     24  S   UNL     1      -1.901   1.487  -2.924  0.00  0.00    +0.059 S 
ATOM     25  O   UNL     1      -2.311   2.619  -3.679  0.00  0.00    -0.153 OA
ATOM     26  O   UNL     1      -2.641   0.274  -2.907  0.00  0.00    -0.153 OA
BRANCH  24  27
ATOM     27  C   UNL     1      -1.769   2.019  -1.249  0.00  0.00    +0.105 A 
ATOM     28  C   UNL     1      -2.009   1.128  -0.220  0.00  0.00    +0.028 A 
ATOM     29  C   UNL     1      -1.905   1.546   1.094  0.00  0.00    +0.002 A 
ATOM     30  C   UNL     1      -1.562   2.854   1.378  0.00  0.00    +0.000 A 
ATOM     31  C   UNL     1      -1.321   3.745   0.349  0.00  0.00    +0.002 A 
ATOM     32  C   UNL     1      -1.421   3.326  -0.965  0.00  0.00    +0.028 A 
ENDBRANCH  24  27
ENDBRANCH  22  24
ENDBRANCH   1  22
TORSDOF 7
