REMARK  Name = ZINC41950250
REMARK  6 active torsions:
REMARK  status: ('A' for Active; 'I' for Inactive)
REMARK    1  A    between atoms: C_1  and  C_2
REMARK    2  A    between atoms: C_6  and  C_7
REMARK    3  A    between atoms: C_7  and  N_8
REMARK    4  A    between atoms: C_9  and  C_11
REMARK    5  A    between atoms: N_13  and  C_14
REMARK    6  A    between atoms: C_18  and  N_20
REMARK                            x       y       z     vdW  Elec       q    Type
REMARK                         _______ _______ _______ _____ _____    ______ ____
ROOT
ATOM      1  C   UNL     1      -2.994   0.580   4.779  0.00  0.00    +0.303 C 
ATOM      2  O   UNL     1      -3.921   0.305   4.045  0.00  0.00    -0.265 OA
ATOM      3  N   UNL     1      -3.235   1.032   6.026  0.00  0.00    -0.278 N 
ATOM      4  H   UNL     1      -2.497   1.188   6.636  0.00  0.00    +0.155 HD
ENDROOT
BRANCH   3   5
ATOM      5  C   UNL     1      -4.547   1.275   6.441  0.00  0.00    +0.036 A 
ATOM      6  C   UNL     1      -4.821   2.333   7.299  0.00  0.00    +0.023 A 
ATOM      7  C   UNL     1      -6.118   2.573   7.709  0.00  0.00    +0.004 A 
ATOM      8  C   UNL     1      -7.146   1.763   7.267  0.00  0.00    +0.028 A 
ATOM      9  C   UNL     1      -6.879   0.704   6.410  0.00  0.00    +0.071 A 
ATOM     10  C   UNL     1      -5.579   0.463   5.992  0.00  0.00    +0.051 A 
BRANCH   9  11
ATOM     11  N   UNL     1      -7.924  -0.119   5.963  0.00  0.00    -0.200 N 
ATOM     12  C   UNL     1      -9.246   0.039   6.190  0.00  0.00    +0.250 A 
ATOM     13  N   UNL     1      -9.863  -0.948   5.595  0.00  0.00    -0.116 NA
ATOM     14  N   UNL     1      -9.020  -1.720   5.008  0.00  0.00    -0.023 NA
ATOM     15  N   UNL     1      -7.820  -1.281   5.179  0.00  0.00    -0.039 NA
ENDBRANCH   9  11
ENDBRANCH   3   5
BRANCH   1  17
ATOM     16  N   UNL     1      -1.349  -0.032   3.054  0.00  0.00    -0.303 N 
ATOM     17  C   UNL     1      -1.589   0.419   4.301  0.00  0.00    +0.300 C 
ATOM     18  O   UNL     1      -0.663   0.695   5.036  0.00  0.00    -0.265 OA
ATOM     19  H   UNL     1      -2.089  -0.253   2.467  0.00  0.00    +0.149 HD
BRANCH  16  20
ATOM     20  C   UNL     1       0.030  -0.191   2.586  0.00  0.00    +0.147 C 
BRANCH  20  26
ATOM     21  C   UNL     1       0.000   1.498   0.020  0.00  0.00    +0.044 C 
ATOM     22  C   UNL     1       0.011  -0.009   0.007  0.00  0.00    -0.039 A 
ATOM     23  C   UNL     1       0.013  -0.700  -1.190  0.00  0.00    +0.011 A 
ATOM     24  C   UNL     1       0.022  -2.055  -1.166  0.00  0.00    +0.046 A 
ATOM     25  S   UNL     1       0.028  -2.394   0.587  0.00  0.00    -0.100 S 
ATOM     26  C   UNL     1       0.023  -0.706   1.169  0.00  0.00    +0.010 A 
ENDBRANCH  20  26
ENDBRANCH  16  20
ENDBRANCH   1  17
TORSDOF 5
