REMARK  Name = ZINC13334051
REMARK  11 active torsions:
REMARK  status: ('A' for Active; 'I' for Inactive)
REMARK    1  A    between atoms: C_1  and  C_2
REMARK    2  A    between atoms: C_2  and  C_4
REMARK    3  A    between atoms: C_2  and  N_6
REMARK    4  A    between atoms: C_16  and  S_17
REMARK    5  A    between atoms: S_17  and  C_18
REMARK    6  A    between atoms: C_18  and  C_19
REMARK    7  A    between atoms: N_21  and  C_22
REMARK    8  A    between atoms: C_22  and  C_24
REMARK    9  A    between atoms: C_22  and  C_31
REMARK   10  A    between atoms: C_24  and  C_25
REMARK   11  A    between atoms: C_31  and  C_33
REMARK                            x       y       z     vdW  Elec       q    Type
REMARK                         _______ _______ _______ _____ _____    ______ ____
ROOT
ATOM      1  S   UNL     1      -2.656  -2.897   0.014  0.00  0.00    -0.078 S 
ENDROOT
BRANCH   1  12
ATOM      2  N   UNL     1       0.036  -2.766  -0.012  0.00  0.00    -0.273 N 
ATOM      3  C   UNL     1       1.239  -2.146  -0.021  0.00  0.00    +0.263 A 
ATOM      4  O   UNL     1       2.277  -2.782  -0.034  0.00  0.00    -0.267 OA
ATOM      5  C   UNL     1       1.245  -0.677  -0.013  0.00  0.00    +0.065 A 
ATOM      6  C   UNL     1       2.432   0.055  -0.021  0.00  0.00    +0.015 A 
ATOM      7  C   UNL     1       2.381   1.422  -0.013  0.00  0.00    +0.001 A 
ATOM      8  C   UNL     1       1.161   2.086   0.002  0.00  0.00    +0.002 A 
ATOM      9  C   UNL     1      -0.017   1.394   0.010  0.00  0.00    +0.028 A 
ATOM     10  C   UNL     1       0.002  -0.004   0.002  0.00  0.00    +0.079 A 
ATOM     11  N   UNL     1      -1.136  -0.726   0.009  0.00  0.00    -0.223 NA
ATOM     12  C   UNL     1      -1.119  -2.036   0.003  0.00  0.00    +0.173 A 
BRANCH   2  14
ATOM     13  C   UNL     1       0.682  -4.777   1.221  0.00  0.00    +0.043 C 
ATOM     14  C   UNL     1      -0.028  -4.229  -0.019  0.00  0.00    +0.202 C 
BRANCH  14  15
ATOM     15  C   UNL     1       0.647  -4.756  -1.259  0.00  0.00    +0.378 C 
ATOM     16  O   UNL     1       1.133  -3.988  -2.055  0.00  0.00    -0.244 OA
ATOM     17  O   UNL     1       0.710  -6.079  -1.478  0.00  0.00    -0.244 OA
ENDBRANCH  14  15
ENDBRANCH   2  14
ENDBRANCH   1  12
BRANCH   1  18
ATOM     18  C   UNL     1      -3.801  -1.496   0.033  0.00  0.00    +0.173 C 
BRANCH  18  19
ATOM     19  C   UNL     1      -5.219  -2.005   0.044  0.00  0.00    +0.224 C 
ATOM     20  O   UNL     1      -5.434  -3.199   0.040  0.00  0.00    -0.275 OA
ATOM     21  N   UNL     1      -6.248  -1.135   0.059  0.00  0.00    -0.305 N 
ATOM     22  H   UNL     1      -6.076  -0.180   0.062  0.00  0.00    +0.149 HD
BRANCH  21  23
ATOM     23  C   UNL     1      -7.627  -1.631   0.070  0.00  0.00    +0.143 C 
BRANCH  23  24
ATOM     24  C   UNL     1      -8.071  -1.910  -1.343  0.00  0.00    +0.151 C 
ATOM     25  O   UNL     1      -7.438  -1.471  -2.273  0.00  0.00    -0.296 OA
ATOM     26  C   UNL     1      -9.306  -2.736  -1.595  0.00  0.00    +0.088 C 
ENDBRANCH  23  24
BRANCH  23  27
ATOM     27  C   UNL     1      -8.543  -0.576   0.694  0.00  0.00    +0.065 C 
BRANCH  27  28
ATOM     28  C   UNL     1      -8.175  -0.387   2.143  0.00  0.00    -0.045 A 
ATOM     29  C   UNL     1      -8.788  -1.153   3.118  0.00  0.00    +0.004 A 
ATOM     30  C   UNL     1      -8.447  -0.983   4.446  0.00  0.00    +0.000 A 
ATOM     31  C   UNL     1      -7.503  -0.038   4.802  0.00  0.00    +0.000 A 
ATOM     32  C   UNL     1      -6.894   0.732   3.829  0.00  0.00    +0.000 A 
ATOM     33  C   UNL     1      -7.231   0.558   2.499  0.00  0.00    +0.004 A 
ENDBRANCH  27  28
ENDBRANCH  23  27
ENDBRANCH  21  23
ENDBRANCH  18  19
ENDBRANCH   1  18
TORSDOF 9
