REMARK  Name = ZINC65964912
REMARK  9 active torsions:
REMARK  status: ('A' for Active; 'I' for Inactive)
REMARK    1  A    between atoms: C_1  and  C_2
REMARK    2  A    between atoms: C_2  and  C_3
REMARK    3  A    between atoms: C_7  and  C_29
REMARK    4  A    between atoms: C_8  and  N_9
REMARK    5  A    between atoms: C_10  and  C_12
REMARK    6  A    between atoms: C_12  and  C_13
REMARK    7  A    between atoms: C_12  and  N_14
REMARK    8  A    between atoms: C_17  and  C_20
REMARK    9  A    between atoms: N_22  and  C_23
REMARK                            x       y       z     vdW  Elec       q    Type
REMARK                         _______ _______ _______ _____ _____    ______ ____
ROOT
ATOM      1  N   UNL     1      -4.150  -1.237   4.775  0.00  0.00    +0.387 N 
ATOM      2  C   UNL     1      -5.617  -1.185   4.760  0.00  0.00    -0.077 C 
ATOM      3  C   UNL     1      -6.162  -1.679   6.101  0.00  0.00    -0.006 C 
ATOM      4  C   UNL     1      -5.703  -3.122   6.333  0.00  0.00    +0.071 C 
ATOM      5  C   UNL     1      -4.174  -3.176   6.273  0.00  0.00    -0.006 C 
ATOM      6  C   UNL     1      -3.702  -2.627   4.925  0.00  0.00    -0.077 C 
ATOM      7  H   UNL     1      -3.804  -0.688   5.548  0.00  0.00    -0.081 HD
ENDROOT
BRANCH   4   8
ATOM      8  C   UNL     1      -6.171  -3.588   7.688  0.00  0.00    +0.216 C 
ATOM      9  O   UNL     1      -6.809  -2.841   8.399  0.00  0.00    -0.276 OA
ATOM     10  N   UNL     1      -5.881  -4.835   8.108  0.00  0.00    -0.312 N 
ATOM     11  H   UNL     1      -5.371  -5.432   7.539  0.00  0.00    +0.149 HD
BRANCH  10  12
ATOM     12  C   UNL     1      -6.336  -5.288   9.425  0.00  0.00    +0.073 C 
ATOM     13  C   UNL     1      -5.328  -4.852  10.491  0.00  0.00    +0.022 C 
ATOM     14  C   UNL     1      -5.803  -5.325  11.866  0.00  0.00    +0.002 C 
ATOM     15  C   UNL     1      -5.920  -6.851  11.868  0.00  0.00    +0.000 C 
ATOM     16  C   UNL     1      -6.927  -7.287  10.803  0.00  0.00    +0.002 C 
ATOM     17  C   UNL     1      -6.452  -6.814   9.427  0.00  0.00    +0.022 C 
ENDBRANCH  10  12
ENDBRANCH   4   8
BRANCH   1  18
ATOM     18  C   UNL     1      -3.629  -0.690   3.515  0.00  0.00    +0.016 C 
ATOM     19  C   UNL     1      -4.204   0.710   3.291  0.00  0.00    -0.004 C 
BRANCH  18  21
ATOM     20  N   UNL     1      -1.409  -0.396   2.465  0.00  0.00    -0.286 N 
ATOM     21  C   UNL     1      -2.126  -0.610   3.586  0.00  0.00    +0.203 C 
ATOM     22  O   UNL     1      -1.561  -0.738   4.652  0.00  0.00    -0.277 OA
ATOM     23  H   UNL     1      -1.862  -0.242   1.621  0.00  0.00    +0.155 HD
BRANCH  20  29
ATOM     24  C   UNL     1       0.710   0.603   1.877  0.00  0.00    -0.026 A 
ATOM     25  C   UNL     1       2.090   0.602   1.936  0.00  0.00    +0.005 A 
ATOM     26  C   UNL     1       2.754  -0.394   2.627  0.00  0.00    +0.001 A 
ATOM     27  C   UNL     1       2.039  -1.394   3.261  0.00  0.00    +0.005 A 
ATOM     28  C   UNL     1       0.659  -1.399   3.207  0.00  0.00    -0.029 A 
ATOM     29  C   UNL     1      -0.011  -0.397   2.518  0.00  0.00    +0.039 A 
ATOM     30  C   UNL     1      -0.119  -2.489   3.898  0.00  0.00    +0.045 C 
BRANCH  24  32
ATOM     31  C   UNL     1      -0.412   2.803   2.094  0.00  0.00    +0.009 C 
ATOM     32  C   UNL     1      -0.012   1.689   1.124  0.00  0.00    +0.033 C 
ENDBRANCH  24  32
ENDBRANCH  20  29
ENDBRANCH  18  21
ENDBRANCH   1  18
TORSDOF 6
