REMARK  Name = ZINC03594715
REMARK  5 active torsions:
REMARK  status: ('A' for Active; 'I' for Inactive)
REMARK    1  A    between atoms: C_1  and  C_2
REMARK    2  A    between atoms: C_2  and  C_4
REMARK    3  A    between atoms: C_9  and  N_10
REMARK    4  A    between atoms: C_11  and  C_13
REMARK    5  A    between atoms: C_13  and  N_14
REMARK                            x       y       z     vdW  Elec       q    Type
REMARK                         _______ _______ _______ _____ _____    ______ ____
ROOT
ATOM      1  N   UNL     1      -1.298  -1.308  -1.356  0.00  0.00    -0.215 N 
ATOM      2  C   UNL     1      -0.189  -0.539  -1.397  0.00  0.00    +0.251 C 
ATOM      3  O   UNL     1       0.524  -0.328  -2.354  0.00  0.00    -0.272 OA
ATOM      4  C   UNL     1      -0.028   0.000   0.000  0.00  0.00    +0.138 C 
ATOM      5  C   UNL     1      -0.064   1.534   0.011  0.00  0.00    +0.045 C 
ATOM      6  C   UNL     1       1.438   1.895  -0.010  0.00  0.00    +0.038 C 
ATOM      7  C   UNL     1       2.143   0.701   0.598  0.00  0.00    -0.042 A 
ATOM      8  C   UNL     1       1.295  -0.394   0.599  0.00  0.00    -0.012 A 
ATOM      9  C   UNL     1       1.736  -1.604   1.108  0.00  0.00    +0.006 A 
ATOM     10  C   UNL     1       3.016  -1.721   1.616  0.00  0.00    +0.000 A 
ATOM     11  C   UNL     1       3.861  -0.628   1.617  0.00  0.00    +0.000 A 
ATOM     12  C   UNL     1       3.424   0.580   1.108  0.00  0.00    +0.004 A 
ATOM     13  N   UNL     1      -1.153  -0.566   0.746  0.00  0.00    -0.281 N 
ATOM     14  C   UNL     1      -1.844  -1.321  -0.132  0.00  0.00    +0.310 C 
ATOM     15  O   UNL     1      -2.848  -1.942   0.154  0.00  0.00    -0.252 OA
ATOM     16  H   UNL     1      -1.359  -0.426   1.683  0.00  0.00    +0.152 HD
ENDROOT
BRANCH   1  17
ATOM     17  C   UNL     1      -1.838  -2.038  -2.505  0.00  0.00    +0.214 C 
BRANCH  17  19
ATOM     18  N   UNL     1      -1.579  -4.271  -3.538  0.00  0.00    -0.284 N 
ATOM     19  C   UNL     1      -1.229  -3.416  -2.557  0.00  0.00    +0.235 C 
ATOM     20  O   UNL     1      -0.423  -3.754  -1.716  0.00  0.00    -0.274 OA
ATOM     21  H   UNL     1      -2.272  -4.026  -4.171  0.00  0.00    +0.155 HD
BRANCH  18  27
ATOM     22  C   UNL     1      -0.707  -6.074  -4.905  0.00  0.00    +0.038 A 
ATOM     23  C   UNL     1      -0.066  -7.315  -4.993  0.00  0.00    +0.013 A 
ATOM     24  C   UNL     1       0.313  -7.976  -3.846  0.00  0.00    +0.001 A 
ATOM     25  C   UNL     1       0.067  -7.416  -2.601  0.00  0.00    +0.002 A 
ATOM     26  C   UNL     1      -0.559  -6.190  -2.497  0.00  0.00    +0.024 A 
ATOM     27  C   UNL     1      -0.948  -5.507  -3.641  0.00  0.00    +0.044 A 
BRANCH  22  29
ATOM     28  C   UNL     1      -0.965  -6.029  -7.467  0.00  0.00    +0.091 C 
ATOM     29  C   UNL     1      -1.118  -5.366  -6.123  0.00  0.00    +0.162 C 
ATOM     30  O   UNL     1      -1.582  -4.248  -6.047  0.00  0.00    -0.292 OA
ENDBRANCH  22  29
ENDBRANCH  18  27
ENDBRANCH  17  19
ENDBRANCH   1  17
TORSDOF 4
