REMARK  Name = ZINC51888805
REMARK  4 active torsions:
REMARK  status: ('A' for Active; 'I' for Inactive)
REMARK    1  A    between atoms: C_5  and  O_10
REMARK    2  A    between atoms: C_6  and  N_7
REMARK    3  A    between atoms: O_10  and  C_11
REMARK    4  A    between atoms: C_11  and  C_12
REMARK                            x       y       z     vdW  Elec       q    Type
REMARK                         _______ _______ _______ _____ _____    ______ ____
ROOT
ATOM      1  C   UNL     1      -0.017   1.379   0.010  0.00  0.00    +0.055 A 
ATOM      2  C   UNL     1       1.195   2.058   0.002  0.00  0.00    +0.038 A 
ATOM      3  C   UNL     1       2.373   1.337  -0.013  0.00  0.00    +0.130 A 
ATOM      4  N   UNL     1       2.358   0.018  -0.021  0.00  0.00    -0.218 NA
ATOM      5  C   UNL     1       1.225  -0.663  -0.014  0.00  0.00    +0.246 A 
ATOM      6  C   UNL     1       0.002  -0.004   0.002  0.00  0.00    +0.188 A 
ATOM      7 BR   UNL     1       1.232   3.949   0.011  0.00  0.00    -0.049 Br
ENDROOT
BRANCH   6   8
ATOM      8  N   UNL     1      -1.264  -0.771   0.011  0.00  0.00    +0.062 N 
ATOM      9  O   UNL     1      -2.323  -0.189   0.024  0.00  0.00    -0.126 OA
ATOM     10  O   UNL     1      -1.238  -1.980   0.004  0.00  0.00    -0.126 OA
ENDBRANCH   6   8
BRANCH   5  11
ATOM     11  O   UNL     1       1.256  -2.020  -0.022  0.00  0.00    -0.475 OA
BRANCH  11  12
ATOM     12  C   UNL     1       2.544  -2.639  -0.038  0.00  0.00    +0.232 C 
BRANCH  12  13
ATOM     13  C   UNL     1       2.379  -4.160  -0.045  0.00  0.00    +0.008 C 
ATOM     14  C   UNL     1       1.785  -4.641  -1.395  0.00  0.00    -0.014 C 
ATOM     15  C   UNL     1       2.318  -6.093  -1.472  0.00  0.00    -0.082 C 
ATOM     16  N   UNL     1       3.679  -6.027  -0.898  0.00  0.00    +0.379 N 
ATOM     17  C   UNL     1       3.754  -4.859   0.003  0.00  0.00    -0.076 C 
ATOM     18  H   UNL     1       3.869  -6.869  -0.376  0.00  0.00    -0.086 HD
ATOM     19  H   UNL     1       4.356  -5.929  -1.641  0.00  0.00    -0.086 HD
ENDBRANCH  12  13
ENDBRANCH  11  12
ENDBRANCH   5  11
TORSDOF 4
