REMARK  Name = ZINC63962998
REMARK  10 active torsions:
REMARK  status: ('A' for Active; 'I' for Inactive)
REMARK    1  A    between atoms: C_1  and  C_2
REMARK    2  A    between atoms: C_2  and  O_3
REMARK    3  A    between atoms: O_3  and  C_4
REMARK    4  A    between atoms: C_7  and  C_12
REMARK    5  A    between atoms: C_9  and  O_10
REMARK    6  A    between atoms: O_10  and  C_11
REMARK    7  A    between atoms: N_13  and  N_14
REMARK    8  A    between atoms: C_15  and  C_17
REMARK    9  A    between atoms: C_17  and  S_18
REMARK   10  A    between atoms: S_18  and  C_19
REMARK                            x       y       z     vdW  Elec       q    Type
REMARK                         _______ _______ _______ _____ _____    ______ ____
ROOT
ATOM      1  N   UNL     1       0.742  -8.214   1.010  0.00  0.00    -0.206 N 
ATOM      2  C   UNL     1       0.213  -9.035   0.080  0.00  0.00    +0.242 C 
ATOM      3  O   UNL     1      -0.359  -8.570  -0.884  0.00  0.00    -0.273 OA
ATOM      4  H   UNL     1       1.198  -8.585   1.780  0.00  0.00    +0.177 HD
ENDROOT
BRANCH   1   6
ATOM      5  C   UNL     1       1.140  -6.035   1.757  0.00  0.00    +0.138 C 
ATOM      6  N   UNL     1       0.631  -6.825   0.862  0.00  0.00    -0.188 NA
BRANCH   5  10
ATOM      7  C   UNL     1       0.802  -1.825   1.306  0.00  0.00    +0.162 A 
ATOM      8  C   UNL     1       0.259  -2.670   0.349  0.00  0.00    +0.050 A 
ATOM      9  C   UNL     1       0.366  -4.037   0.492  0.00  0.00    +0.013 A 
ATOM     10  C   UNL     1       1.024  -4.574   1.602  0.00  0.00    -0.002 A 
ATOM     11  C   UNL     1       1.571  -3.722   2.565  0.00  0.00    +0.059 A 
ATOM     12  C   UNL     1       1.464  -2.352   2.412  0.00  0.00    +0.162 A 
BRANCH  12  13
ATOM     13  O   UNL     1       2.000  -1.520   3.345  0.00  0.00    -0.491 OA
ATOM     14  C   UNL     1       2.664  -2.130   4.453  0.00  0.00    +0.277 C 
ENDBRANCH  12  13
BRANCH   7  15
ATOM     15  O   UNL     1       0.693  -0.477   1.160  0.00  0.00    -0.489 OA
BRANCH  15  17
ATOM     16  C   UNL     1      -0.019   1.526   0.010  0.00  0.00    +0.048 C 
ATOM     17  C   UNL     1       0.002  -0.004   0.002  0.00  0.00    +0.226 C 
ENDBRANCH  15  17
ENDBRANCH   7  15
ENDBRANCH   5  10
ENDBRANCH   1   6
BRANCH   2  18
ATOM     18  C   UNL     1       0.331 -10.529   0.238  0.00  0.00    +0.170 C 
BRANCH  18  19
ATOM     19  S   UNL     1      -0.473 -11.351  -1.164  0.00  0.00    -0.106 S 
BRANCH  19  20
ATOM     20  C   UNL     1      -0.245 -13.119  -0.826  0.00  0.00    +0.236 C 
ATOM     21  N   UNL     1      -0.812 -13.458   0.485  0.00  0.00    -0.355 N 
ATOM     22  C   UNL     1       0.158 -13.914   1.224  0.00  0.00    +0.061 A 
ATOM     23  C   UNL     1       0.214 -14.406   2.608  0.00  0.00    +0.027 A 
ATOM     24  C   UNL     1       1.389 -14.824   3.118  0.00  0.00    +0.002 A 
ATOM     25  C   UNL     1       2.585 -14.812   2.377  0.00  0.00    +0.002 A 
ATOM     26  C   UNL     1       2.644 -14.381   1.101  0.00  0.00    +0.027 A 
ATOM     27  C   UNL     1       1.423 -13.900   0.441  0.00  0.00    +0.061 A 
ATOM     28  N   UNL     1       1.187 -13.437  -0.753  0.00  0.00    -0.355 N 
ATOM     29  H   UNL     1      -1.740 -13.361   0.752  0.00  0.00    +0.162 HD
ATOM     30  H   UNL     1       1.837 -13.323  -1.464  0.00  0.00    +0.162 HD
ENDBRANCH  19  20
ENDBRANCH  18  19
ENDBRANCH   2  18
TORSDOF 8
