REMARK  Name = ZINC35172600
REMARK  6 active torsions:
REMARK  status: ('A' for Active; 'I' for Inactive)
REMARK    1  A    between atoms: C_4  and  N_7
REMARK    2  A    between atoms: C_8  and  C_29
REMARK    3  A    between atoms: C_11  and  S_12
REMARK    4  A    between atoms: S_12  and  C_13
REMARK    5  A    between atoms: C_13  and  C_14
REMARK    6  A    between atoms: N_19  and  C_22
REMARK                            x       y       z     vdW  Elec       q    Type
REMARK                         _______ _______ _______ _____ _____    ______ ____
ROOT
ATOM      1  S   UNL     1       4.510   0.200   2.480  0.00  0.00    -0.076 S 
ENDROOT
BRANCH   1   6
ATOM      2  N   UNL     1       3.623  -0.652  -0.037  0.00  0.00    -0.270 N 
ATOM      3  C   UNL     1       4.119  -1.454  -1.044  0.00  0.00    +0.176 A 
ATOM      4  N   UNL     1       5.293  -1.891  -0.644  0.00  0.00    -0.127 NA
ATOM      5  N   UNL     1       5.562  -1.425   0.522  0.00  0.00    -0.122 NA
ATOM      6  C   UNL     1       4.582  -0.658   0.942  0.00  0.00    +0.197 A 
BRANCH   2  10
ATOM      7  C   UNL     1      -0.017   1.379   0.010  0.00  0.00    +0.000 A 
ATOM      8  C   UNL     1       1.170   2.089   0.002  0.00  0.00    +0.002 A 
ATOM      9  C   UNL     1       2.377   1.419  -0.013  0.00  0.00    +0.026 A 
ATOM     10  C   UNL     1       2.399   0.031  -0.021  0.00  0.00    +0.051 A 
ATOM     11  C   UNL     1       1.207  -0.680  -0.013  0.00  0.00    +0.026 A 
ATOM     12  C   UNL     1       0.002  -0.004   0.002  0.00  0.00    +0.002 A 
ENDBRANCH   2  10
BRANCH   3  13
ATOM     13  C   UNL     1       3.458  -1.763  -2.321  0.00  0.00    +0.057 A 
ATOM     14  C   UNL     1       3.990  -2.315  -3.459  0.00  0.00    +0.019 A 
ATOM     15  C   UNL     1       3.168  -2.513  -4.545  0.00  0.00    +0.008 A 
ATOM     16  C   UNL     1       1.859  -2.158  -4.458  0.00  0.00    +0.046 A 
ATOM     17  S   UNL     1       1.752  -1.525  -2.793  0.00  0.00    -0.094 S 
ENDBRANCH   3  13
ENDBRANCH   1   6
BRANCH   1  18
ATOM     18  C   UNL     1       6.074  -0.228   3.293  0.00  0.00    +0.173 C 
BRANCH  18  19
ATOM     19  C   UNL     1       6.143   0.450   4.638  0.00  0.00    +0.226 C 
ATOM     20  O   UNL     1       5.227   1.153   5.010  0.00  0.00    -0.275 OA
ATOM     21  N   UNL     1       7.222   0.276   5.426  0.00  0.00    -0.298 N 
ATOM     22  C   UNL     1       8.342  -0.567   4.985  0.00  0.00    +0.126 C 
ATOM     23  C   UNL     1       9.632   0.260   5.047  0.00  0.00    +0.124 C 
ATOM     24  N   UNL     1       9.710   0.911   6.363  0.00  0.00    -0.326 N 
ATOM     25  C   UNL     1       8.590   1.754   6.803  0.00  0.00    +0.124 C 
ATOM     26  C   UNL     1       7.303   0.931   6.739  0.00  0.00    +0.126 C 
BRANCH  24  27
ATOM     27  C   UNL     1      10.829   0.730   7.180  0.00  0.00    +0.048 A 
ATOM     28  C   UNL     1      11.907   1.601   7.087  0.00  0.00    +0.024 A 
ATOM     29  C   UNL     1      13.011   1.420   7.896  0.00  0.00    +0.002 A 
ATOM     30  C   UNL     1      13.046   0.373   8.799  0.00  0.00    +0.002 A 
ATOM     31  C   UNL     1      11.975  -0.496   8.895  0.00  0.00    +0.022 A 
ATOM     32  C   UNL     1      10.864  -0.318   8.092  0.00  0.00    +0.062 A 
ATOM     33 CL   UNL     1       9.517  -1.406   8.218  0.00  0.00    -0.082 Cl
ENDBRANCH  24  27
ENDBRANCH  18  19
ENDBRANCH   1  18
TORSDOF 6
