REMARK  Name = ZINC09284737
REMARK  9 active torsions:
REMARK  status: ('A' for Active; 'I' for Inactive)
REMARK    1  A    between atoms: C_1  and  O_2
REMARK    2  A    between atoms: O_2  and  C_3
REMARK    3  A    between atoms: C_3  and  C_5
REMARK    4  A    between atoms: C_5  and  C_6
REMARK    5  A    between atoms: C_6  and  N_7
REMARK    6  A    between atoms: N_16  and  C_17
REMARK    7  A    between atoms: C_17  and  C_19
REMARK    8  A    between atoms: C_22  and  S_25
REMARK    9  A    between atoms: S_25  and  N_28
REMARK                            x       y       z     vdW  Elec       q    Type
REMARK                         _______ _______ _______ _____ _____    ______ ____
ROOT
ATOM      1  N   UNL     1      -3.757   1.645   0.029  0.00  0.00    -0.318 N 
ATOM      2  C   UNL     1      -4.366   1.989  -1.165  0.00  0.00    +0.093 A 
ATOM      3  C   UNL     1      -3.919   1.742  -2.475  0.00  0.00    +0.148 A 
ATOM      4  C   UNL     1      -4.657   2.158  -3.559  0.00  0.00    +0.040 A 
ATOM      5  C   UNL     1      -5.858   2.829  -3.396  0.00  0.00    +0.004 A 
ATOM      6  C   UNL     1      -6.321   3.084  -2.117  0.00  0.00    +0.017 A 
ATOM      7  C   UNL     1      -5.584   2.669  -1.032  0.00  0.00    +0.042 A 
ATOM      8  S   UNL     1      -5.798   2.783   0.727  0.00  0.00    -0.052 S 
ATOM      9  C   UNL     1      -4.347   1.965   1.212  0.00  0.00    +0.167 A 
ATOM     10  N   UNL     1      -3.915   1.714   2.443  0.00  0.00    -0.152 NA
ATOM     11  F   UNL     1      -2.752   1.091  -2.671  0.00  0.00    -0.203 F 
ENDROOT
BRANCH  10  12
ATOM     12  C   UNL     1      -4.636   2.108   3.497  0.00  0.00    +0.269 C 
ATOM     13  O   UNL     1      -5.689   2.698   3.330  0.00  0.00    -0.268 OA
BRANCH  12  14
ATOM     14  C   UNL     1      -4.154   1.828   4.870  0.00  0.00    +0.039 A 
ATOM     15  C   UNL     1      -2.952   1.148   5.065  0.00  0.00    +0.015 A 
ATOM     16  C   UNL     1      -2.507   0.893   6.346  0.00  0.00    +0.029 A 
ATOM     17  C   UNL     1      -3.255   1.303   7.435  0.00  0.00    +0.106 A 
ATOM     18  C   UNL     1      -4.450   1.974   7.248  0.00  0.00    +0.029 A 
ATOM     19  C   UNL     1      -4.904   2.238   5.972  0.00  0.00    +0.015 A 
BRANCH  17  20
ATOM     20  S   UNL     1      -2.682   0.969   9.068  0.00  0.00    +0.061 S 
ATOM     21  O   UNL     1      -1.273   0.813   8.980  0.00  0.00    -0.153 OA
ATOM     22  O   UNL     1      -3.290   1.933   9.917  0.00  0.00    -0.153 OA
BRANCH  20  23
ATOM     23  N   UNL     1      -3.295  -0.504   9.510  0.00  0.00    -0.177 NA
ATOM     24  C   UNL     1      -4.577  -0.728  10.194  0.00  0.00    +0.109 C 
ATOM     25  C   UNL     1      -4.715  -2.248  10.422  0.00  0.00    +0.018 C 
ATOM     26  C   UNL     1      -3.245  -2.740  10.369  0.00  0.00    +0.018 C 
ATOM     27  C   UNL     1      -2.643  -1.808   9.289  0.00  0.00    +0.109 C 
ENDBRANCH  20  23
ENDBRANCH  17  20
ENDBRANCH  12  14
ENDBRANCH  10  12
BRANCH   1  28
ATOM     28  C   UNL     1      -2.479   0.930   0.019  0.00  0.00    +0.135 C 
BRANCH  28  29
ATOM     29  C   UNL     1      -1.329   1.940   0.019  0.00  0.00    +0.142 C 
BRANCH  29  30
ATOM     30  C   UNL     1      -0.014   1.204   0.009  0.00  0.00    +0.309 C 
ATOM     31  O   UNL     1       0.002  -0.004   0.002  0.00  0.00    -0.251 OA
BRANCH  30  33
ATOM     32  C   UNL     1       2.367   1.117  -0.015  0.00  0.00    +0.280 C 
ATOM     33  O   UNL     1       1.139   1.891   0.001  0.00  0.00    -0.468 OA
ENDBRANCH  30  33
ENDBRANCH  29  30
ENDBRANCH  28  29
ENDBRANCH   1  28
TORSDOF 8
