REMARK  Name = ZINC15068971
REMARK  11 active torsions:
REMARK  status: ('A' for Active; 'I' for Inactive)
REMARK    1  A    between atoms: C_1  and  C_2
REMARK    2  A    between atoms: C_2  and  C_3
REMARK    3  A    between atoms: C_3  and  C_4
REMARK    4  A    between atoms: C_4  and  C_19
REMARK    5  A    between atoms: N_7  and  C_11
REMARK    6  A    between atoms: C_11  and  C_12
REMARK    7  A    between atoms: C_12  and  C_13
REMARK    8  A    between atoms: C_18  and  N_68
REMARK    9  A    between atoms: C_24  and  C_25
REMARK   10  A    between atoms: C_24  and  N_70
REMARK   11  A    between atoms: C_28  and  C_30
REMARK                            x       y       z     vdW  Elec       q    Type
REMARK                         _______ _______ _______ _____ _____    ______ ____
ROOT
ATOM      1  C   UNL     1      -3.776  -1.738  -4.268  0.00  0.00    +0.115 C 
ATOM      2  C   UNL     1      -3.057  -0.667  -3.473  0.00  0.00    +0.247 C 
ATOM      3  O   UNL     1      -2.715   0.429  -3.861  0.00  0.00    -0.273 OA
ATOM      4  N   UNL     1      -2.874  -1.188  -2.243  0.00  0.00    -0.224 N 
ATOM      5  C   UNL     1      -3.380  -2.423  -2.150  0.00  0.00    +0.309 C 
ATOM      6  O   UNL     1      -3.340  -3.095  -1.138  0.00  0.00    -0.252 OA
ATOM      7  N   UNL     1      -3.937  -2.838  -3.302  0.00  0.00    -0.285 N 
ATOM      8  H   UNL     1      -4.362  -3.695  -3.465  0.00  0.00    +0.151 HD
ENDROOT
BRANCH   1   9
ATOM      9  C   UNL     1      -2.930  -2.188  -5.461  0.00  0.00    +0.018 C 
ATOM     10  C   UNL     1      -3.621  -3.359  -6.165  0.00  0.00    -0.013 C 
ATOM     11  C   UNL     1      -2.741  -3.844  -7.320  0.00  0.00    -0.078 C 
ATOM     12  C   UNL     1      -0.732  -3.146  -6.158  0.00  0.00    -0.078 C 
ATOM     13  C   UNL     1      -1.552  -2.640  -4.969  0.00  0.00    -0.013 C 
ATOM     14  N   UNL     1      -1.439  -4.287  -6.777  0.00  0.00    +0.384 N 
ATOM     15  H   UNL     1      -1.603  -5.005  -6.061  0.00  0.00    -0.081 HD
BRANCH  14  16
ATOM     16  C   UNL     1      -0.613  -4.866  -7.857  0.00  0.00    -0.003 C 
BRANCH  16  17
ATOM     17  C   UNL     1      -1.448  -5.839  -8.649  0.00  0.00    +0.089 A 
ATOM     18  C   UNL     1      -2.174  -5.545  -9.742  0.00  0.00    +0.043 A 
ATOM     19  C   UNL     1      -2.793  -6.746 -10.159  0.00  0.00    +0.044 A 
ATOM     20  C   UNL     1      -2.408  -7.702  -9.295  0.00  0.00    +0.102 A 
ATOM     21  O   UNL     1      -1.589  -7.149  -8.386  0.00  0.00    -0.467 OA
ATOM     22  C   UNL     1      -2.821  -9.151  -9.343  0.00  0.00    +0.086 C 
ENDBRANCH  16  17
ENDBRANCH  14  16
ENDBRANCH   1   9
BRANCH   1  23
ATOM     23  C   UNL     1      -5.141  -1.231  -4.739  0.00  0.00    +0.035 C 
BRANCH  23  25
ATOM     24  C   UNL     1      -7.311  -0.232  -4.006  0.00  0.00    +0.004 C 
ATOM     25  C   UNL     1      -5.946  -0.739  -3.535  0.00  0.00    -0.001 C 
ENDBRANCH  23  25
ENDBRANCH   1  23
BRANCH   4  26
ATOM     26  C   UNL     1      -2.210  -0.485  -1.142  0.00  0.00    +0.116 C 
BRANCH  26  27
ATOM     27  C   UNL     1      -0.711  -0.790  -1.173  0.00  0.00    +0.004 C 
BRANCH  27  28
ATOM     28  C   UNL     1       0.001   0.041  -0.105  0.00  0.00    -0.068 C 
ATOM     29  C   UNL     1      -0.461  -0.401   1.299  0.00  0.00    -0.017 C 
ATOM     30  C   UNL     1       0.842  -0.323   2.137  0.00  0.00    -0.020 C 
ATOM     31  C   UNL     1       1.906  -0.771   1.104  0.00  0.00    -0.079 C 
ATOM     32  C   UNL     1       1.794  -1.067  -1.305  0.00  0.00    -0.096 C 
ATOM     33  N   UNL     1       1.458  -0.172  -0.167  0.00  0.00    +0.380 N 
ATOM     34  H   UNL     1       1.929   0.731  -0.301  0.00  0.00    -0.082 HD
ENDBRANCH  27  28
ENDBRANCH  26  27
ENDBRANCH   4  26
TORSDOF 8
