REMARK  Name = ZINC50137798
REMARK  9 active torsions:
REMARK  status: ('A' for Active; 'I' for Inactive)
REMARK    1  A    between atoms: C_3  and  C_6
REMARK    2  A    between atoms: C_6  and  N_7
REMARK    3  A    between atoms: C_11  and  C_14
REMARK    4  A    between atoms: C_14  and  N_15
REMARK    5  A    between atoms: N_18  and  C_19
REMARK    6  A    between atoms: C_19  and  C_20
REMARK    7  A    between atoms: C_20  and  C_21
REMARK    8  A    between atoms: C_21  and  N_22
REMARK    9  A    between atoms: N_22  and  C_23
REMARK                            x       y       z     vdW  Elec       q    Type
REMARK                         _______ _______ _______ _____ _____    ______ ____
ROOT
ATOM      1  N   UNL     1       8.176   2.844   4.134  0.00  0.00    -0.299 N 
ATOM      2  C   UNL     1       9.465   3.162   4.366  0.00  0.00    +0.300 C 
ATOM      3  O   UNL     1      10.191   3.472   3.442  0.00  0.00    -0.253 OA
ATOM      4  N   UNL     1       9.950   3.136   5.624  0.00  0.00    -0.299 N 
ATOM      5  H   UNL     1       7.597   2.596   4.872  0.00  0.00    +0.150 HD
ATOM      6  H   UNL     1       9.371   2.889   6.362  0.00  0.00    +0.150 HD
ENDROOT
BRANCH   1   7
ATOM      7  C   UNL     1       7.650   2.872   2.767  0.00  0.00    +0.107 C 
BRANCH   7  12
ATOM      8  N   UNL     1       4.235   2.004   1.357  0.00  0.00    +0.383 N 
ATOM      9  C   UNL     1       3.445   3.044   2.027  0.00  0.00    -0.078 C 
ATOM     10  C   UNL     1       3.881   3.156   3.490  0.00  0.00    -0.018 C 
ATOM     11  C   UNL     1       5.366   3.525   3.548  0.00  0.00    +0.001 C 
ATOM     12  C   UNL     1       6.173   2.473   2.781  0.00  0.00    -0.011 C 
ATOM     13  C   UNL     1       5.652   2.385   1.345  0.00  0.00    -0.073 C 
ATOM     14  H   UNL     1       4.127   1.131   1.851  0.00  0.00    -0.081 HD
BRANCH   8  15
ATOM     15  C   UNL     1       3.761   1.845  -0.024  0.00  0.00    -0.036 C 
BRANCH  15  18
ATOM     16  C   UNL     1      -0.016   1.351   0.009  0.00  0.00    +0.008 A 
ATOM     17  C   UNL     1       1.183   2.038   0.002  0.00  0.00    +0.009 A 
ATOM     18  C   UNL     1       2.343   1.336  -0.013  0.00  0.00    -0.027 A 
ATOM     19  S   UNL     1       1.754  -0.349  -0.017  0.00  0.00    -0.103 S 
ATOM     20  C   UNL     1       0.002  -0.004   0.002  0.00  0.00    +0.045 A 
ENDBRANCH  15  18
ENDBRANCH   8  15
ENDBRANCH   7  12
ENDBRANCH   1   7
BRANCH   4  21
ATOM     21  C   UNL     1      11.351   3.482   5.876  0.00  0.00    +0.104 C 
BRANCH  21  22
ATOM     22  C   UNL     1      11.641   3.374   7.375  0.00  0.00    -0.000 C 
BRANCH  22  23
ATOM     23  C   UNL     1      13.104   3.735   7.638  0.00  0.00    -0.081 C 
BRANCH  23  24
ATOM     24  N   UNL     1      13.382   3.631   9.077  0.00  0.00    +0.381 N 
ATOM     25  H   UNL     1      12.783   4.266   9.582  0.00  0.00    -0.086 HD
ATOM     26  H   UNL     1      13.208   2.687   9.386  0.00  0.00    -0.086 HD
BRANCH  24  27
ATOM     27  C   UNL     1      14.787   3.978   9.330  0.00  0.00    -0.072 C 
ATOM     28  C   UNL     1      15.696   2.941   8.666  0.00  0.00    -0.016 C 
ATOM     29  C   UNL     1      17.159   3.302   8.930  0.00  0.00    -0.002 C 
ATOM     30  C   UNL     1      17.418   3.316  10.438  0.00  0.00    -0.000 C 
ATOM     31  C   UNL     1      16.509   4.352  11.102  0.00  0.00    -0.002 C 
ATOM     32  C   UNL     1      15.046   3.991  10.838  0.00  0.00    -0.016 C 
ENDBRANCH  24  27
ENDBRANCH  23  24
ENDBRANCH  22  23
ENDBRANCH  21  22
ENDBRANCH   4  21
TORSDOF 9
