REMARK  Name = ZINC32651257
REMARK  10 active torsions:
REMARK  status: ('A' for Active; 'I' for Inactive)
REMARK    1  A    between atoms: C_1  and  C_2
REMARK    2  A    between atoms: C_3  and  C_9
REMARK    3  A    between atoms: C_4  and  C_8
REMARK    4  A    between atoms: N_5  and  C_7
REMARK    5  A    between atoms: C_9  and  N_10
REMARK    6  A    between atoms: C_14  and  C_18
REMARK    7  A    between atoms: N_16  and  C_17
REMARK    8  A    between atoms: C_20  and  C_22
REMARK    9  A    between atoms: C_22  and  C_23
REMARK   10  A    between atoms: C_22  and  C_24
REMARK                            x       y       z     vdW  Elec       q    Type
REMARK                         _______ _______ _______ _____ _____    ______ ____
ROOT
ATOM      1  N   UNL     1      -2.928   1.565  -0.915  0.00  0.00    -0.323 N 
ATOM      2  C   UNL     1      -3.096   1.940   0.406  0.00  0.00    +0.148 A 
ATOM      3  C   UNL     1      -2.018   1.911   1.302  0.00  0.00    +0.127 A 
ATOM      4  C   UNL     1      -2.245   2.300   2.634  0.00  0.00    +0.117 A 
ATOM      5  C   UNL     1      -1.012   2.186   3.310  0.00  0.00    +0.086 A 
ATOM      6  N   UNL     1      -0.111   1.761   2.469  0.00  0.00    -0.174 NA
ATOM      7  N   UNL     1      -0.695   1.573   1.210  0.00  0.00    -0.262 N 
ATOM      8  C   UNL     1      -0.008   1.104   0.003  0.00  0.00    +0.173 C 
ATOM      9  C   UNL     1      -0.775   2.503   4.764  0.00  0.00    +0.070 C 
ATOM     10  N   UNL     1      -3.479   2.679   2.994  0.00  0.00    -0.228 NA
ATOM     11  C   UNL     1      -4.454   2.696   2.115  0.00  0.00    +0.134 A 
ATOM     12  N   UNL     1      -4.282   2.336   0.854  0.00  0.00    -0.215 NA
ATOM     13  H   UNL     1      -1.964   1.155  -1.252  0.00  0.00    +0.148 HD
ENDROOT
BRANCH  11  14
ATOM     14  C   UNL     1      -5.824   3.136   2.562  0.00  0.00    +0.051 C 
ATOM     15  C   UNL     1      -6.260   4.355   1.748  0.00  0.00    +0.015 C 
ATOM     16  C   UNL     1      -6.821   1.995   2.346  0.00  0.00    +0.015 C 
ENDBRANCH  11  14
BRANCH   1  17
ATOM     17  C   UNL     1      -4.034   1.712  -1.865  0.00  0.00    +0.142 C 
BRANCH  17  20
ATOM     18  C   UNL     1      -4.298  -1.244  -2.976  0.00  0.00    +0.068 C 
ATOM     19  C   UNL     1      -3.711  -0.070  -3.716  0.00  0.00    +0.065 A 
ATOM     20  C   UNL     1      -3.595   1.235  -3.225  0.00  0.00    +0.013 A 
ATOM     21  C   UNL     1      -3.024   1.994  -4.189  0.00  0.00    +0.041 A 
ATOM     22  N   UNL     1      -2.779   1.196  -5.250  0.00  0.00    -0.271 N 
ATOM     23  N   UNL     1      -3.222  -0.094  -4.930  0.00  0.00    -0.176 NA
ATOM     24  C   UNL     1      -2.164   1.607  -6.514  0.00  0.00    +0.172 C 
ATOM     25  C   UNL     1      -2.714   3.465  -4.094  0.00  0.00    +0.065 C 
ENDBRANCH  17  20
ENDBRANCH   1  17
TORSDOF 3
