REMARK  Name = ZINC13033415
REMARK  11 active torsions:
REMARK  status: ('A' for Active; 'I' for Inactive)
REMARK    1  A    between atoms: C_1  and  C_2
REMARK    2  A    between atoms: C_4  and  C_31
REMARK    3  A    between atoms: C_6  and  S_10
REMARK    4  A    between atoms: C_7  and  C_8
REMARK    5  A    between atoms: S_10  and  C_11
REMARK    6  A    between atoms: C_11  and  C_13
REMARK    7  A    between atoms: C_11  and  C_14
REMARK    8  A    between atoms: N_16  and  C_17
REMARK    9  A    between atoms: C_18  and  C_30
REMARK   10  A    between atoms: N_19  and  C_29
REMARK   11  A    between atoms: N_20  and  C_23
REMARK                            x       y       z     vdW  Elec       q    Type
REMARK                         _______ _______ _______ _____ _____    ______ ____
ROOT
ATOM      1  C   UNL     1      -2.989   6.955   0.158  0.00  0.00    +0.230 C 
ATOM      2  O   UNL     1      -2.061   7.646   0.520  0.00  0.00    -0.274 OA
ATOM      3  N   UNL     1      -4.083   7.525  -0.386  0.00  0.00    -0.279 N 
ATOM      4  H   UNL     1      -4.793   6.969  -0.742  0.00  0.00    +0.155 HD
ENDROOT
BRANCH   3   5
ATOM      5  C   UNL     1      -4.193   8.929  -0.437  0.00  0.00    +0.121 A 
ATOM      6  C   UNL     1      -4.375   9.679  -1.547  0.00  0.00    +0.059 A 
ATOM      7  N   UNL     1      -4.431  10.998  -1.179  0.00  0.00    -0.282 N 
ATOM      8  N   UNL     1      -4.282  11.094   0.209  0.00  0.00    -0.216 N 
ATOM      9  C   UNL     1      -4.139   9.846   0.703  0.00  0.00    +0.293 A 
ATOM     10  O   UNL     1      -3.991   9.541   1.872  0.00  0.00    -0.264 OA
ATOM     11  C   UNL     1      -4.618  12.127  -2.093  0.00  0.00    +0.171 C 
ATOM     12  C   UNL     1      -4.495   9.153  -2.954  0.00  0.00    +0.067 C 
BRANCH   8  13
ATOM     13  C   UNL     1      -4.286  12.276   0.956  0.00  0.00    +0.067 A 
ATOM     14  C   UNL     1      -3.508  13.355   0.556  0.00  0.00    +0.028 A 
ATOM     15  C   UNL     1      -3.519  14.523   1.293  0.00  0.00    +0.002 A 
ATOM     16  C   UNL     1      -4.295  14.615   2.433  0.00  0.00    +0.000 A 
ATOM     17  C   UNL     1      -5.067  13.542   2.837  0.00  0.00    +0.002 A 
ATOM     18  C   UNL     1      -5.065  12.373   2.102  0.00  0.00    +0.028 A 
ENDBRANCH   8  13
ENDBRANCH   3   5
BRANCH   1  19
ATOM     19  C   UNL     1      -2.921   5.457   0.317  0.00  0.00    +0.136 C 
ATOM     20  C   UNL     1      -3.710   5.039   1.559  0.00  0.00    +0.029 C 
BRANCH  19  21
ATOM     21  S   UNL     1      -1.193   4.949   0.499  0.00  0.00    -0.093 S 
BRANCH  21  27
ATOM     22  C   UNL     1       0.734   0.048   0.781  0.00  0.00    +0.045 C 
ATOM     23  C   UNL     1      -0.443   0.980   0.647  0.00  0.00    -0.032 A 
ATOM     24  C   UNL     1      -1.729   0.485   0.526  0.00  0.00    +0.027 A 
ATOM     25  C   UNL     1      -2.789   1.365   0.398  0.00  0.00    +0.040 A 
ATOM     26  N   UNL     1      -2.599   2.669   0.399  0.00  0.00    -0.245 NA
ATOM     27  C   UNL     1      -1.389   3.198   0.511  0.00  0.00    +0.112 A 
ATOM     28  C   UNL     1      -0.261   2.368   0.640  0.00  0.00    +0.098 A 
ATOM     29  C   UNL     1      -4.188   0.822   0.261  0.00  0.00    +0.065 C 
BRANCH  28  30
ATOM     30  C   UNL     1       1.087   2.948   0.765  0.00  0.00    +0.389 C 
ATOM     31  O   UNL     1       1.748   3.169  -0.230  0.00  0.00    -0.240 OA
ATOM     32  O   UNL     1       1.586   3.235   1.984  0.00  0.00    -0.240 OA
ENDBRANCH  28  30
ENDBRANCH  21  27
ENDBRANCH  19  21
ENDBRANCH   1  19
TORSDOF 6
