REMARK  Name = ZINC00639422
REMARK  9 active torsions:
REMARK  status: ('A' for Active; 'I' for Inactive)
REMARK    1  A    between atoms: C_1  and  N_2
REMARK    2  A    between atoms: N_7  and  C_10
REMARK    3  A    between atoms: C_13  and  S_15
REMARK    4  A    between atoms: S_15  and  C_16
REMARK    5  A    between atoms: C_16  and  C_18
REMARK    6  A    between atoms: C_16  and  C_27
REMARK    7  A    between atoms: C_18  and  C_20
REMARK    8  A    between atoms: C_18  and  O_26
REMARK    9  A    between atoms: C_27  and  C_29
REMARK                            x       y       z     vdW  Elec       q    Type
REMARK                         _______ _______ _______ _____ _____    ______ ____
ROOT
ATOM      1  C   UNL     1      -5.168   0.256   0.007  0.00  0.00    +0.158 C 
ENDROOT
BRANCH   1   2
ATOM      2  C   UNL     1      -4.962   0.969   1.319  0.00  0.00    +0.179 C 
ATOM      3  O   UNL     1      -4.685   2.149   1.331  0.00  0.00    -0.291 OA
BRANCH   2   4
ATOM      4  C   UNL     1      -5.099   0.232   2.585  0.00  0.00    +0.019 A 
ATOM      5  C   UNL     1      -4.766   0.848   3.796  0.00  0.00    +0.011 A 
ATOM      6  C   UNL     1      -4.898   0.151   4.979  0.00  0.00    +0.001 A 
ATOM      7  C   UNL     1      -5.357  -1.155   4.970  0.00  0.00    +0.000 A 
ATOM      8  C   UNL     1      -5.688  -1.771   3.775  0.00  0.00    +0.001 A 
ATOM      9  C   UNL     1      -5.567  -1.086   2.585  0.00  0.00    +0.011 A 
ENDBRANCH   2   4
ENDBRANCH   1   2
BRANCH   1  10
ATOM     10  S   UNL     1      -4.465  -1.413   0.109  0.00  0.00    -0.073 S 
BRANCH  10  23
ATOM     11  C   UNL     1      -0.036   2.233   0.583  0.00  0.00    +0.155 C 
ATOM     12  N   UNL     1       0.216   0.790   0.630  0.00  0.00    -0.280 N 
ATOM     13  C   UNL     1      -0.838  -0.102   0.517  0.00  0.00    +0.169 A 
ATOM     14  C   UNL     1      -0.570  -1.466   0.565  0.00  0.00    +0.150 A 
ATOM     15  C   UNL     1       0.757  -1.899   0.725  0.00  0.00    +0.282 A 
ATOM     16  O   UNL     1       1.015  -3.089   0.769  0.00  0.00    -0.265 OA
ATOM     17  N   UNL     1       1.743  -0.984   0.830  0.00  0.00    -0.262 N 
ATOM     18  C   UNL     1       1.474   0.332   0.777  0.00  0.00    +0.333 A 
ATOM     19  O   UNL     1       2.388   1.129   0.869  0.00  0.00    -0.246 OA
ATOM     20  C   UNL     1       3.128  -1.431   0.997  0.00  0.00    +0.157 C 
ATOM     21  N   UNL     1      -1.793  -2.110   0.430  0.00  0.00    -0.327 N 
ATOM     22  H   UNL     1      -1.946  -3.068   0.423  0.00  0.00    +0.168 HD
ATOM     23  C   UNL     1      -2.736  -1.137   0.308  0.00  0.00    +0.170 A 
ATOM     24  N   UNL     1      -2.155   0.045   0.362  0.00  0.00    -0.204 NA
ENDBRANCH  10  23
ENDBRANCH   1  10
BRANCH   1  25
ATOM     25  C   UNL     1      -6.665   0.162  -0.294  0.00  0.00    +0.165 C 
BRANCH  25  26
ATOM     26  C   UNL     1      -7.224   1.546  -0.500  0.00  0.00    -0.018 A 
ATOM     27  C   UNL     1      -7.522   2.341   0.591  0.00  0.00    +0.006 A 
ATOM     28  C   UNL     1      -8.035   3.611   0.402  0.00  0.00    +0.000 A 
ATOM     29  C   UNL     1      -8.249   4.086  -0.878  0.00  0.00    +0.000 A 
ATOM     30  C   UNL     1      -7.949   3.292  -1.970  0.00  0.00    +0.000 A 
ATOM     31  C   UNL     1      -7.433   2.024  -1.780  0.00  0.00    +0.006 A 
ENDBRANCH  25  26
BRANCH  25  32
ATOM     32  O   UNL     1      -7.333  -0.463   0.804  0.00  0.00    -0.386 OA
ATOM     33  H   UNL     1      -7.239   0.011   1.642  0.00  0.00    +0.210 HD
ENDBRANCH  25  32
ENDBRANCH   1  25
TORSDOF 7
