REMARK  Name = ZINC61539586
REMARK  1 active torsions:
REMARK  status: ('A' for Active; 'I' for Inactive)
REMARK    1  A    between atoms: N_13  and  C_14
REMARK                            x       y       z     vdW  Elec       q    Type
REMARK                         _______ _______ _______ _____ _____    ______ ____
ROOT
ATOM      1  C   UNL     1      -0.019   1.539   0.011  0.00  0.00    +0.020 C 
ATOM      2  C   UNL     1       1.488   1.907  -0.002  0.00  0.00    +0.020 C 
ATOM      3  C   UNL     1       2.092   0.776   0.868  0.00  0.00    +0.108 C 
ATOM      4  N   UNL     1       1.313  -0.426   0.518  0.00  0.00    -0.299 N 
ATOM      5  C   UNL     1       0.002  -0.004   0.002  0.00  0.00    +0.108 C 
ATOM      6  C   UNL     1       1.743  -1.730   0.651  0.00  0.00    +0.223 A 
ATOM      7  N   UNL     1       0.947  -2.733   0.294  0.00  0.00    -0.181 NA
ATOM      8  C   UNL     1       1.365  -3.987   0.424  0.00  0.00    +0.221 A 
ATOM      9  N   UNL     1       2.578  -4.236   0.910  0.00  0.00    -0.184 NA
ATOM     10  C   UNL     1       3.368  -3.236   1.264  0.00  0.00    +0.229 A 
ATOM     11  N   UNL     1       2.957  -1.985   1.132  0.00  0.00    -0.184 NA
ATOM     12 CL   UNL     1       4.950  -3.565   1.899  0.00  0.00    -0.041 Cl
ATOM     13  N   UNL     1       0.541  -5.031   0.055  0.00  0.00    -0.312 N 
ATOM     14  H   UNL     1      -0.344  -4.849  -0.299  0.00  0.00    +0.149 HD
ENDROOT
BRANCH  13  15
ATOM     15  C   UNL     1       1.003  -6.414   0.198  0.00  0.00    +0.058 C 
ATOM     16  C   UNL     1       1.754  -6.867  -1.070  0.00  0.00    +0.002 C 
ATOM     17  C   UNL     1       1.404  -8.357  -1.216  0.00  0.00    -0.077 C 
ATOM     18  N   UNL     1       0.205  -8.617  -0.410  0.00  0.00    +0.383 N 
ATOM     19  C   UNL     1      -0.196  -7.376   0.290  0.00  0.00    -0.048 C 
ATOM     20  C   UNL     1      -1.357  -6.794  -0.554  0.00  0.00    -0.015 C 
ATOM     21  C   UNL     1      -2.074  -8.077  -1.047  0.00  0.00    -0.020 C 
ATOM     22  C   UNL     1      -0.904  -9.064  -1.268  0.00  0.00    -0.078 C 
ATOM     23  H   UNL     1       0.407  -9.326   0.279  0.00  0.00    -0.081 HD
ENDBRANCH  13  15
TORSDOF 1
