REMARK  Name = ZINC50442643
REMARK  6 active torsions:
REMARK  status: ('A' for Active; 'I' for Inactive)
REMARK    1  A    between atoms: C_1  and  C_2
REMARK    2  A    between atoms: C_5  and  S_7
REMARK    3  A    between atoms: S_7  and  C_8
REMARK    4  A    between atoms: C_9  and  C_17
REMARK    5  A    between atoms: C_11  and  N_14
REMARK    6  A    between atoms: N_18  and  O_19
REMARK                            x       y       z     vdW  Elec       q    Type
REMARK                         _______ _______ _______ _____ _____    ______ ____
ROOT
ATOM      1  C   UNL     1       0.077  -4.723   1.726  0.00  0.00    +0.114 A 
ATOM      2  C   UNL     1       0.092  -5.872   2.533  0.00  0.00    +0.052 A 
ATOM      3  C   UNL     1       0.106  -7.126   1.918  0.00  0.00    +0.048 A 
ATOM      4  C   UNL     1       0.106  -7.181   0.534  0.00  0.00    +0.145 A 
ATOM      5  C   UNL     1       0.091  -6.005  -0.194  0.00  0.00    +0.144 A 
ATOM      6  N   UNL     1       0.072  -4.831   0.407  0.00  0.00    -0.245 NA
ENDROOT
BRANCH   2   7
ATOM      7  C   UNL     1       0.092  -5.757   4.007  0.00  0.00    +0.165 C 
ATOM      8  N   UNL     1       0.079  -4.582   4.568  0.00  0.00    -0.071 NA
ATOM      9  N   UNL     1       0.107  -6.899   4.790  0.00  0.00    -0.340 N 
ATOM     10  H   UNL     1       0.116  -7.774   4.372  0.00  0.00    +0.144 HD
ATOM     11  H   UNL     1       0.107  -6.823   5.757  0.00  0.00    +0.144 HD
BRANCH   8  12
ATOM     12  O   UNL     1       0.079  -4.472   5.979  0.00  0.00    -0.408 OA
ATOM     13  H   UNL     1       0.069  -3.561   6.303  0.00  0.00    +0.328 HD
ENDBRANCH   8  12
ENDBRANCH   2   7
BRANCH   4  14
ATOM     14  N   UNL     1       0.121  -8.488  -0.162  0.00  0.00    +0.058 N 
ATOM     15  O   UNL     1       0.135  -9.513   0.479  0.00  0.00    -0.126 OA
ATOM     16  O   UNL     1       0.121  -8.530  -1.370  0.00  0.00    -0.126 OA
ENDBRANCH   4  14
BRANCH   1  17
ATOM     17  S   UNL     1       0.058  -3.128   2.475  0.00  0.00    -0.042 S 
BRANCH  17  22
ATOM     18  C   UNL     1      -0.018   1.503   0.010  0.00  0.00    +0.066 C 
ATOM     19  C   UNL     1       0.002  -0.004   0.002  0.00  0.00    +0.047 A 
ATOM     20  C   UNL     1       0.006  -0.705  -1.158  0.00  0.00    +0.070 A 
ATOM     21  S   UNL     1       0.032  -2.378  -0.535  0.00  0.00    -0.069 S 
ATOM     22  C   UNL     1       0.036  -2.016   1.108  0.00  0.00    +0.141 A 
ATOM     23  N   UNL     1       0.023  -0.700   1.124  0.00  0.00    -0.238 NA
ENDBRANCH  17  22
ENDBRANCH   1  17
TORSDOF 5
