REMARK  Name = ZINC23141939
REMARK  6 active torsions:
REMARK  status: ('A' for Active; 'I' for Inactive)
REMARK    1  A    between atoms: C_1  and  C_2
REMARK    2  A    between atoms: C_3  and  C_12
REMARK    3  A    between atoms: C_12  and  C_13
REMARK    4  A    between atoms: C_13  and  C_14
REMARK    5  A    between atoms: C_19  and  C_23
REMARK    6  A    between atoms: C_20  and  C_22
REMARK                            x       y       z     vdW  Elec       q    Type
REMARK                         _______ _______ _______ _____ _____    ______ ____
ROOT
ATOM      1  C   UNL     1      -0.013   1.086   0.008  0.00  0.00    +0.051 C 
ENDROOT
BRANCH   1   4
ATOM      2  C   UNL     1      -1.952  -0.576   1.320  0.00  0.00    +0.064 C 
ATOM      3  C   UNL     1      -1.630   0.792   1.866  0.00  0.00    +0.026 A 
ATOM      4  C   UNL     1      -0.718   1.572   1.248  0.00  0.00    +0.036 A 
ATOM      5  C   UNL     1      -0.438   2.855   1.776  0.00  0.00    +0.257 A 
ATOM      6  O   UNL     1       0.378   3.578   1.233  0.00  0.00    -0.267 OA
ATOM      7  N   UNL     1      -1.081   3.268   2.887  0.00  0.00    -0.275 N 
ATOM      8  H   UNL     1      -0.871   4.263   3.306  0.00  0.00    +0.173 HD
ATOM      9  C   UNL     1      -1.982   2.468   3.486  0.00  0.00    +0.327 A 
ATOM     10  O   UNL     1      -2.555   2.854   4.487  0.00  0.00    -0.247 OA
ATOM     11  N   UNL     1      -2.258   1.246   2.994  0.00  0.00    -0.311 N 
ATOM     12  H   UNL     1      -2.996   0.612   3.506  0.00  0.00    +0.170 HD
ENDBRANCH   1   4
BRANCH   1  13
ATOM     13  C   UNL     1      -0.753   1.593  -1.232  0.00  0.00    +0.101 C 
BRANCH  13  14
ATOM     14  C   UNL     1      -0.047   1.107  -2.471  0.00  0.00    +0.219 C 
ATOM     15  O   UNL     1       0.949   0.422  -2.373  0.00  0.00    -0.275 OA
ATOM     16  N   UNL     1      -0.524   1.433  -3.689  0.00  0.00    -0.265 N 
ATOM     17  C   UNL     1       0.127   0.984  -4.833  0.00  0.00    +0.165 A 
ATOM     18  N   UNL     1       1.214   0.244  -4.931  0.00  0.00    -0.230 NA
ATOM     19  C   UNL     1       1.702  -0.100  -6.107  0.00  0.00    +0.050 A 
ATOM     20  C   UNL     1       1.067   0.336  -7.223  0.00  0.00    +0.011 A 
ATOM     21  S   UNL     1      -0.279   1.261  -6.498  0.00  0.00    -0.057 S 
ATOM     22  C   UNL     1       1.403   0.103  -8.673  0.00  0.00    +0.053 C 
ATOM     23  C   UNL     1       2.942  -0.951  -6.208  0.00  0.00    +0.066 C 
ATOM     24  H   UNL     1      -1.427   2.053  -3.778  0.00  0.00    +0.157 HD
ENDBRANCH  13  14
ENDBRANCH   1  13
TORSDOF 3
