REMARK  Name = ZINC06115109
REMARK  7 active torsions:
REMARK  status: ('A' for Active; 'I' for Inactive)
REMARK    1  A    between atoms: C_1  and  C_2
REMARK    2  A    between atoms: C_2  and  C_4
REMARK    3  A    between atoms: C_2  and  O_16
REMARK    4  A    between atoms: N_6  and  C_7
REMARK    5  A    between atoms: C_12  and  N_13
REMARK    6  A    between atoms: O_16  and  C_17
REMARK    7  A    between atoms: C_17  and  C_19
REMARK                            x       y       z     vdW  Elec       q    Type
REMARK                         _______ _______ _______ _____ _____    ______ ____
ROOT
ATOM      1  C   UNL     1      -0.035   1.537  -0.007  0.00  0.00    +0.062 C 
ATOM      2  C   UNL     1      -0.002   0.007  -0.002  0.00  0.00    +0.259 C 
ENDROOT
BRANCH   2   3
ATOM      3  C   UNL     1      -1.411  -0.526   0.015  0.00  0.00    +0.258 C 
ATOM      4  O   UNL     1      -1.831  -1.160  -0.931  0.00  0.00    -0.271 OA
ATOM      5  N   UNL     1      -2.205  -0.299   1.079  0.00  0.00    -0.281 N 
ATOM      6  H   UNL     1      -1.846   0.137   1.868  0.00  0.00    +0.155 HD
BRANCH   5   7
ATOM      7  C   UNL     1      -3.548  -0.693   1.048  0.00  0.00    +0.064 A 
ATOM      8  C   UNL     1      -4.207  -0.819  -0.168  0.00  0.00    +0.025 A 
ATOM      9  C   UNL     1      -5.532  -1.208  -0.196  0.00  0.00    +0.002 A 
ATOM     10  C   UNL     1      -6.202  -1.470   0.985  0.00  0.00    +0.002 A 
ATOM     11  C   UNL     1      -5.549  -1.345   2.196  0.00  0.00    +0.034 A 
ATOM     12  C   UNL     1      -4.222  -0.963   2.231  0.00  0.00    +0.147 A 
BRANCH  12  13
ATOM     13  N   UNL     1      -3.521  -0.835   3.529  0.00  0.00    +0.058 N 
ATOM     14  O   UNL     1      -4.080  -1.155   4.552  0.00  0.00    -0.126 OA
ATOM     15  O   UNL     1      -2.390  -0.410   3.566  0.00  0.00    -0.126 OA
ENDBRANCH  12  13
ENDBRANCH   5   7
ENDBRANCH   2   3
BRANCH   2  16
ATOM     16  O   UNL     1       0.670  -0.459  -1.173  0.00  0.00    -0.449 OA
BRANCH  16  17
ATOM     17  C   UNL     1       2.005  -0.633  -1.085  0.00  0.00    +0.342 C 
ATOM     18  O   UNL     1       2.581  -0.396  -0.041  0.00  0.00    -0.245 OA
BRANCH  17  19
ATOM     19  C   UNL     1       2.761  -1.110  -2.249  0.00  0.00    +0.084 A 
ATOM     20  C   UNL     1       2.259  -1.411  -3.482  0.00  0.00    +0.098 A 
ATOM     21  N   UNL     1       3.261  -1.818  -4.297  0.00  0.00    -0.360 N 
ATOM     22  H   UNL     1       3.147  -2.084  -5.223  0.00  0.00    +0.165 HD
ATOM     23  C   UNL     1       4.466  -1.799  -3.626  0.00  0.00    +0.047 A 
ATOM     24  C   UNL     1       4.214  -1.352  -2.319  0.00  0.00    +0.014 A 
ATOM     25  C   UNL     1       5.260  -1.228  -1.409  0.00  0.00    +0.011 A 
ATOM     26  C   UNL     1       6.544  -1.544  -1.798  0.00  0.00    +0.001 A 
ATOM     27  C   UNL     1       6.795  -1.983  -3.090  0.00  0.00    +0.002 A 
ATOM     28  C   UNL     1       5.768  -2.117  -3.999  0.00  0.00    +0.026 A 
ENDBRANCH  17  19
ENDBRANCH  16  17
ENDBRANCH   2  16
TORSDOF 6
