REMARK  Name = ZINC20744422
REMARK  10 active torsions:
REMARK  status: ('A' for Active; 'I' for Inactive)
REMARK    1  A    between atoms: C_1  and  O_2
REMARK    2  A    between atoms: O_2  and  C_3
REMARK    3  A    between atoms: C_3  and  C_5
REMARK    4  A    between atoms: C_5  and  C_6
REMARK    5  A    between atoms: C_6  and  C_7
REMARK    6  A    between atoms: C_7  and  C_9
REMARK    7  A    between atoms: C_7  and  N_13
REMARK    8  A    between atoms: C_9  and  O_11
REMARK    9  A    between atoms: O_11  and  C_12
REMARK   10  A    between atoms: C_25  and  C_27
REMARK                            x       y       z     vdW  Elec       q    Type
REMARK                         _______ _______ _______ _____ _____    ______ ____
ROOT
ATOM      1  N   UNL     1       1.097  -6.702  -1.504  0.00  0.00    -0.286 N 
ATOM      2  C   UNL     1       2.014  -5.872  -0.967  0.00  0.00    +0.304 C 
ATOM      3  O   UNL     1       2.207  -4.778  -1.461  0.00  0.00    -0.253 OA
ATOM      4  N   UNL     1       2.718  -6.256   0.116  0.00  0.00    -0.273 N 
ATOM      5  C   UNL     1       3.638  -5.325   0.785  0.00  0.00    +0.116 C 
ATOM      6  C   UNL     1       5.071  -5.857   0.658  0.00  0.00    +0.074 C 
ATOM      7  C   UNL     1       5.071  -7.331   0.969  0.00  0.00    +0.040 A 
ATOM      8  C   UNL     1       3.975  -8.120   0.968  0.00  0.00    +0.062 A 
ATOM      9  N   UNL     1       4.355  -9.360   1.283  0.00  0.00    -0.348 N 
ATOM     10  C   UNL     1       5.647  -9.373   1.484  0.00  0.00    +0.171 A 
ATOM     11  N   UNL     1       6.129  -8.123   1.298  0.00  0.00    -0.349 N 
ATOM     12  H   UNL     1       7.054  -7.843   1.383  0.00  0.00    +0.166 HD
ATOM     13  C   UNL     1       2.579  -7.618   0.663  0.00  0.00    +0.159 C 
ATOM     14  H   UNL     1       0.992  -7.600  -1.153  0.00  0.00    +0.151 HD
ATOM     15  H   UNL     1       3.767 -10.128   1.351  0.00  0.00    +0.167 HD
ENDROOT
BRANCH  13  16
ATOM     16  C   UNL     1       1.755  -7.583   1.925  0.00  0.00    +0.014 A 
ATOM     17  C   UNL     1       2.375  -7.669   3.157  0.00  0.00    +0.010 A 
ATOM     18  C   UNL     1       1.621  -7.637   4.314  0.00  0.00    +0.020 A 
ATOM     19  C   UNL     1       0.244  -7.518   4.241  0.00  0.00    +0.044 A 
ATOM     20  C   UNL     1      -0.378  -7.431   3.009  0.00  0.00    +0.058 A 
ATOM     21  C   UNL     1       0.379  -7.459   1.849  0.00  0.00    +0.130 A 
ATOM     22  F   UNL     1      -0.227  -7.369   0.645  0.00  0.00    -0.205 F 
ATOM     23 CL   UNL     1      -0.703  -7.478   5.696  0.00  0.00    -0.083 Cl
ENDBRANCH  13  16
BRANCH   1  24
ATOM     24  C   UNL     1       0.259  -6.246  -2.616  0.00  0.00    +0.184 C 
BRANCH  24  25
ATOM     25  C   UNL     1      -0.937  -5.507  -2.074  0.00  0.00    +0.327 C 
ATOM     26  O   UNL     1      -1.076  -5.375  -0.881  0.00  0.00    -0.249 OA
BRANCH  25  27
ATOM     27  O   UNL     1      -1.849  -4.996  -2.917  0.00  0.00    -0.467 OA
ATOM     28  C   UNL     1      -2.957  -4.308  -2.334  0.00  0.00    +0.280 C 
ENDBRANCH  25  27
ENDBRANCH  24  25
BRANCH  24  29
ATOM     29  C   UNL     1      -0.212  -7.455  -3.427  0.00  0.00    +0.045 C 
BRANCH  29  30
ATOM     30  C   UNL     1       0.994  -8.133  -4.080  0.00  0.00    +0.123 C 
BRANCH  30  31
ATOM     31  C   UNL     1       0.530  -9.323  -4.880  0.00  0.00    +0.307 C 
ATOM     32  O   UNL     1      -0.645  -9.600  -4.923  0.00  0.00    -0.251 OA
BRANCH  31  34
ATOM     33  C   UNL     1       0.911 -11.187  -6.281  0.00  0.00    +0.280 C 
ATOM     34  O   UNL     1       1.422 -10.074  -5.544  0.00  0.00    -0.468 OA
ENDBRANCH  31  34
ENDBRANCH  30  31
ENDBRANCH  29  30
ENDBRANCH  24  29
ENDBRANCH   1  24
TORSDOF 8
