REMARK  Name = ZINC03231021
REMARK  7 active torsions:
REMARK  status: ('A' for Active; 'I' for Inactive)
REMARK    1  A    between atoms: C_1  and  O_2
REMARK    2  A    between atoms: O_2  and  C_3
REMARK    3  A    between atoms: C_6  and  C_9
REMARK    4  A    between atoms: C_9  and  N_10
REMARK    5  A    between atoms: C_11  and  C_17
REMARK    6  A    between atoms: N_19  and  C_33
REMARK    7  A    between atoms: C_21  and  C_22
REMARK                            x       y       z     vdW  Elec       q    Type
REMARK                         _______ _______ _______ _____ _____    ______ ____
ROOT
ATOM      1  C   UNL     1       3.828  -2.174   0.058  0.00  0.00    +0.029 A 
ATOM      2  C   UNL     1       5.143  -2.480   0.057  0.00  0.00    +0.121 A 
ATOM      3  N   UNL     1       5.841  -1.322  -0.083  0.00  0.00    -0.239 N 
ATOM      4  N   UNL     1       4.920  -0.271  -0.177  0.00  0.00    -0.166 NA
ATOM      5  C   UNL     1       3.708  -0.778  -0.096  0.00  0.00    +0.106 A 
ENDROOT
BRANCH   5   6
ATOM      6  C   UNL     1       2.439  -0.015  -0.151  0.00  0.00    +0.087 A 
ATOM      7  C   UNL     1       1.455  -0.234   0.775  0.00  0.00    +0.028 A 
ATOM      8  C   UNL     1       0.221   0.547   0.674  0.00  0.00    +0.018 A 
ATOM      9  C   UNL     1      -0.817   0.361   1.596  0.00  0.00    +0.011 A 
ATOM     10  C   UNL     1      -1.962   1.098   1.487  0.00  0.00    +0.001 A 
ATOM     11  C   UNL     1      -2.104   2.030   0.469  0.00  0.00    +0.004 A 
ATOM     12  C   UNL     1      -1.097   2.225  -0.452  0.00  0.00    +0.047 A 
ATOM     13  C   UNL     1       0.080   1.491  -0.359  0.00  0.00    +0.139 A 
ATOM     14  O   UNL     1       1.071   1.681  -1.256  0.00  0.00    -0.422 OA
ATOM     15  C   UNL     1       2.218   0.986  -1.199  0.00  0.00    +0.347 A 
ATOM     16  O   UNL     1       3.085   1.189  -2.029  0.00  0.00    -0.244 OA
ENDBRANCH   5   6
BRANCH   1  18
ATOM     17  N   UNL     1       3.162  -4.441   0.738  0.00  0.00    -0.280 N 
ATOM     18  C   UNL     1       2.690  -3.153   0.197  0.00  0.00    +0.169 C 
ATOM     19  S   UNL     1       2.052  -3.666  -1.455  0.00  0.00    -0.124 S 
ATOM     20  C   UNL     1       1.869  -5.459  -1.059  0.00  0.00    +0.167 C 
ATOM     21  C   UNL     1       2.779  -5.569   0.153  0.00  0.00    +0.227 C 
ATOM     22  O   UNL     1       3.142  -6.648   0.571  0.00  0.00    -0.275 OA
BRANCH  17  23
ATOM     23  C   UNL     1       4.044  -4.476   1.908  0.00  0.00    +0.144 C 
BRANCH  23  27
ATOM     24  C   UNL     1       1.684  -4.672   5.465  0.00  0.00    +0.120 A 
ATOM     25  C   UNL     1       2.090  -5.840   4.835  0.00  0.00    +0.046 A 
ATOM     26  C   UNL     1       2.852  -5.774   3.685  0.00  0.00    +0.009 A 
ATOM     27  C   UNL     1       3.212  -4.545   3.162  0.00  0.00    -0.030 A 
ATOM     28  C   UNL     1       2.813  -3.380   3.791  0.00  0.00    +0.009 A 
ATOM     29  C   UNL     1       2.046  -3.441   4.938  0.00  0.00    +0.046 A 
BRANCH  24  31
ATOM     30  C   UNL     1       0.553  -3.493   7.192  0.00  0.00    +0.277 C 
ATOM     31  O   UNL     1       0.934  -4.735   6.597  0.00  0.00    -0.495 OA
ENDBRANCH  24  31
ENDBRANCH  23  27
ENDBRANCH  17  23
ENDBRANCH   1  18
BRANCH   3  32
ATOM     32  C   UNL     1       7.236  -1.202  -0.126  0.00  0.00    +0.065 A 
ATOM     33  C   UNL     1       8.036  -2.332  -0.015  0.00  0.00    +0.028 A 
ATOM     34  C   UNL     1       9.410  -2.210  -0.063  0.00  0.00    +0.002 A 
ATOM     35  C   UNL     1       9.991  -0.964  -0.210  0.00  0.00    +0.000 A 
ATOM     36  C   UNL     1       9.197   0.164  -0.316  0.00  0.00    +0.002 A 
ATOM     37  C   UNL     1       7.822   0.048  -0.274  0.00  0.00    +0.028 A 
ENDBRANCH   3  32
TORSDOF 6
