REMARK  Name = ZINC13637307
REMARK  6 active torsions:
REMARK  status: ('A' for Active; 'I' for Inactive)
REMARK    1  A    between atoms: C_1  and  C_2
REMARK    2  A    between atoms: C_7  and  C_27
REMARK    3  A    between atoms: C_17  and  C_20
REMARK    4  A    between atoms: C_20  and  C_21
REMARK    5  A    between atoms: C_32  and  O_33
REMARK    6  A    between atoms: O_33  and  C_34
REMARK                            x       y       z     vdW  Elec       q    Type
REMARK                         _______ _______ _______ _____ _____    ______ ____
ROOT
ATOM      1  C   UNL     1       0.220   1.507   0.200  0.00  0.00    +0.061 C 
ATOM      2  C   UNL     1       0.157   0.003   0.127  0.00  0.00    +0.012 C 
ATOM      3  C   UNL     1       0.096  -0.625  -1.068  0.00  0.00    +0.086 C 
ATOM      4  C   UNL     1      -0.015  -2.037  -1.114  0.00  0.00    +0.249 C 
ATOM      5  O   UNL     1       0.075  -2.629  -2.174  0.00  0.00    -0.270 OA
ATOM      6  N   UNL     1      -0.222  -2.715   0.030  0.00  0.00    -0.214 N 
ATOM      7  C   UNL     1      -0.285  -4.177   0.053  0.00  0.00    +0.215 C 
ATOM      8  N   UNL     1      -1.194  -4.602   1.121  0.00  0.00    -0.335 N 
ATOM      9  C   UNL     1      -1.433  -3.832   2.148  0.00  0.00    +0.196 C 
ATOM     10  N   UNL     1      -0.924  -2.590   2.244  0.00  0.00    -0.186 NA
ATOM     11  C   UNL     1      -0.344  -2.025   1.211  0.00  0.00    +0.198 C 
ATOM     12  N   UNL     1       0.168  -0.752   1.277  0.00  0.00    -0.290 N 
ATOM     13  N   UNL     1      -2.234  -4.307   3.167  0.00  0.00    -0.301 N 
ATOM     14  C   UNL     1      -1.962  -3.945   4.564  0.00  0.00    +0.108 C 
ATOM     15  C   UNL     1      -3.237  -3.358   5.178  0.00  0.00    +0.023 C 
ATOM     16  C   UNL     1      -4.388  -4.351   5.000  0.00  0.00    -0.004 C 
ATOM     17  C   UNL     1      -4.635  -4.585   3.507  0.00  0.00    +0.023 C 
ATOM     18  C   UNL     1      -3.379  -5.180   2.873  0.00  0.00    +0.108 C 
ATOM     19  H   UNL     1       0.523  -0.396   2.107  0.00  0.00    +0.154 HD
ATOM     20  H   UNL     1      -1.624  -5.469   1.065  0.00  0.00    +0.164 HD
ENDROOT
BRANCH   7  21
ATOM     21  C   UNL     1       1.091  -4.737   0.307  0.00  0.00    +0.035 A 
ATOM     22  C   UNL     1       2.211  -3.996  -0.021  0.00  0.00    +0.011 A 
ATOM     23  C   UNL     1       3.473  -4.509   0.212  0.00  0.00    +0.001 A 
ATOM     24  C   UNL     1       3.619  -5.763   0.775  0.00  0.00    +0.004 A 
ATOM     25  C   UNL     1       2.503  -6.508   1.105  0.00  0.00    +0.046 A 
ATOM     26  C   UNL     1       1.235  -5.993   0.877  0.00  0.00    +0.127 A 
BRANCH  26  27
ATOM     27  O   UNL     1       0.136  -6.721   1.207  0.00  0.00    -0.495 OA
ATOM     28  C   UNL     1       0.360  -8.006   1.790  0.00  0.00    +0.277 C 
ENDBRANCH  26  27
ENDBRANCH   7  21
BRANCH  16  29
ATOM     29  C   UNL     1      -5.655  -3.783   5.643  0.00  0.00    +0.038 C 
BRANCH  29  30
ATOM     30  C   UNL     1      -6.756  -4.810   5.575  0.00  0.00    -0.047 A 
ATOM     31  C   UNL     1      -7.600  -4.848   4.481  0.00  0.00    +0.003 A 
ATOM     32  C   UNL     1      -8.610  -5.790   4.419  0.00  0.00    +0.000 A 
ATOM     33  C   UNL     1      -8.775  -6.695   5.451  0.00  0.00    +0.000 A 
ATOM     34  C   UNL     1      -7.931  -6.657   6.545  0.00  0.00    +0.000 A 
ATOM     35  C   UNL     1      -6.918  -5.718   6.605  0.00  0.00    +0.003 A 
ENDBRANCH  29  30
ENDBRANCH  16  29
TORSDOF 4
