REMARK  Name = ZINC04517959
REMARK  6 active torsions:
REMARK  status: ('A' for Active; 'I' for Inactive)
REMARK    1  A    between atoms: C_1  and  C_2
REMARK    2  A    between atoms: C_2  and  C_4
REMARK    3  A    between atoms: C_4  and  N_5
REMARK    4  A    between atoms: N_13  and  C_27
REMARK    5  A    between atoms: N_17  and  N_18
REMARK    6  A    between atoms: C_19  and  C_20
REMARK                            x       y       z     vdW  Elec       q    Type
REMARK                         _______ _______ _______ _____ _____    ______ ____
ROOT
ATOM      1  N   UNL     1      -4.882   8.007   0.082  0.00  0.00    -0.301 N 
ATOM      2  C   UNL     1      -4.453   9.326   0.089  0.00  0.00    +0.153 A 
ATOM      3  C   UNL     1      -5.104  10.573   0.100  0.00  0.00    +0.280 A 
ATOM      4  O   UNL     1      -6.321  10.633   0.113  0.00  0.00    -0.265 OA
ATOM      5  N   UNL     1      -4.366  11.703   0.098  0.00  0.00    -0.273 N 
ATOM      6  H   UNL     1      -4.826  12.591   0.106  0.00  0.00    +0.173 HD
ATOM      7  C   UNL     1      -3.023  11.653   0.085  0.00  0.00    +0.331 A 
ATOM      8  O   UNL     1      -2.391  12.692   0.084  0.00  0.00    -0.246 OA
ATOM      9  N   UNL     1      -2.360  10.481   0.073  0.00  0.00    -0.280 N 
ATOM     10  C   UNL     1      -3.063   9.286   0.075  0.00  0.00    +0.170 A 
ATOM     11  N   UNL     1      -2.697   8.004   0.066  0.00  0.00    -0.195 NA
ATOM     12  C   UNL     1      -3.765   7.231   0.073  0.00  0.00    +0.218 A 
ATOM     13  N   UNL     1      -3.752   5.855   0.067  0.00  0.00    -0.206 N 
ATOM     14  C   UNL     1      -0.895  10.469   0.059  0.00  0.00    +0.155 C 
ATOM     15  H   UNL     1      -4.587   5.362   0.072  0.00  0.00    +0.177 HD
ENDROOT
BRANCH  13  16
ATOM     16  N   UNL     1      -2.531   5.167   0.052  0.00  0.00    -0.188 NA
ATOM     17  C   UNL     1      -2.519   3.869   0.045  0.00  0.00    +0.139 C 
BRANCH  17  18
ATOM     18  C   UNL     1      -1.235   3.144   0.030  0.00  0.00    +0.013 A 
ATOM     19  C   UNL     1      -1.217   1.747   0.017  0.00  0.00    +0.011 A 
ATOM     20  C   UNL     1      -0.013   1.076   0.008  0.00  0.00    +0.001 A 
ATOM     21  C   UNL     1       1.178   1.782   0.000  0.00  0.00    +0.001 A 
ATOM     22  C   UNL     1       1.169   3.165   0.007  0.00  0.00    +0.020 A 
ATOM     23  C   UNL     1      -0.029   3.851   0.022  0.00  0.00    +0.050 A 
ATOM     24 CL   UNL     1      -0.038   5.587   0.029  0.00  0.00    -0.083 Cl
ENDBRANCH  17  18
ENDBRANCH  13  16
BRANCH   1  25
ATOM     25  C   UNL     1      -6.271   7.539   0.087  0.00  0.00    +0.155 C 
BRANCH  25  27
ATOM     26  C   UNL     1      -6.458   6.093   2.252  0.00  0.00    +0.040 C 
ATOM     27  C   UNL     1      -6.740   7.374   1.510  0.00  0.00    -0.060 C 
ATOM     28  C   UNL     1      -7.393   8.343   2.101  0.00  0.00    +0.009 C 
ENDBRANCH  25  27
ENDBRANCH   1  25
TORSDOF 4
