REMARK  Name = ZINC63398569
REMARK  9 active torsions:
REMARK  status: ('A' for Active; 'I' for Inactive)
REMARK    1  A    between atoms: C_1  and  C_2
REMARK    2  A    between atoms: C_2  and  C_4
REMARK    3  A    between atoms: C_2  and  N_21
REMARK    4  A    between atoms: N_6  and  C_7
REMARK    5  A    between atoms: C_15  and  C_17
REMARK    6  A    between atoms: C_17  and  O_19
REMARK    7  A    between atoms: O_19  and  C_20
REMARK    8  A    between atoms: C_24  and  C_27
REMARK    9  A    between atoms: C_27  and  C_28
REMARK                            x       y       z     vdW  Elec       q    Type
REMARK                         _______ _______ _______ _____ _____    ______ ____
ROOT
ATOM      1  C   UNL     1       0.780  -0.296  -1.364  0.00  0.00    +0.203 C 
ATOM      2  O   UNL     1       1.942  -0.615  -1.233  0.00  0.00    -0.277 OA
ATOM      3  N   UNL     1       0.227  -0.257  -2.592  0.00  0.00    -0.288 N 
ATOM      4  H   UNL     1      -0.676   0.080  -2.707  0.00  0.00    +0.155 HD
ENDROOT
BRANCH   3   5
ATOM      5  C   UNL     1       0.935  -0.689  -3.673  0.00  0.00    +0.053 C 
ATOM      6  C   UNL     1       0.584  -0.564  -5.006  0.00  0.00    +0.018 A 
ATOM      7  C   UNL     1      -0.539   0.010  -5.649  0.00  0.00    +0.011 A 
ATOM      8  C   UNL     1      -0.622  -0.010  -7.002  0.00  0.00    +0.001 A 
ATOM      9  C   UNL     1       0.379  -0.586  -7.789  0.00  0.00    +0.002 A 
ATOM     10  C   UNL     1       1.482  -1.154  -7.243  0.00  0.00    +0.026 A 
ATOM     11  C   UNL     1       1.641  -1.172  -5.833  0.00  0.00    +0.045 A 
ATOM     12  N   UNL     1       2.602  -1.653  -5.070  0.00  0.00    -0.367 N 
ATOM     13  C   UNL     1       2.270  -1.400  -3.664  0.00  0.00    +0.234 C 
ATOM     14  H   UNL     1       3.403  -2.099  -5.387  0.00  0.00    +0.161 HD
BRANCH  13  15
ATOM     15  C   UNL     1       2.159  -2.704  -2.917  0.00  0.00    +0.335 C 
ATOM     16  O   UNL     1       2.075  -3.744  -3.527  0.00  0.00    -0.248 OA
BRANCH  15  17
ATOM     17  O   UNL     1       2.154  -2.710  -1.575  0.00  0.00    -0.466 OA
ATOM     18  C   UNL     1       2.046  -3.982  -0.933  0.00  0.00    +0.280 C 
ENDBRANCH  15  17
ENDBRANCH  13  15
ENDBRANCH   3   5
BRANCH   1  20
ATOM     19  C   UNL     1      -0.447   1.531  -0.221  0.00  0.00    -0.004 C 
ATOM     20  C   UNL     1      -0.046   0.056  -0.154  0.00  0.00    +0.016 C 
BRANCH  20  21
ATOM     21  N   UNL     1       0.741  -0.184   1.063  0.00  0.00    +0.387 N 
ATOM     22  C   UNL     1       1.865   0.759   1.110  0.00  0.00    -0.078 C 
ATOM     23  C   UNL     1       2.735   0.462   2.333  0.00  0.00    -0.015 C 
ATOM     24  C   UNL     1       1.889   0.609   3.602  0.00  0.00    -0.010 C 
ATOM     25  C   UNL     1       0.680  -0.325   3.509  0.00  0.00    -0.015 C 
ATOM     26  C   UNL     1      -0.114   0.002   2.242  0.00  0.00    -0.078 C 
ATOM     27  H   UNL     1       1.097  -1.128   1.052  0.00  0.00    -0.081 HD
BRANCH  24  28
ATOM     28  C   UNL     1       2.731   0.236   4.824  0.00  0.00    +0.038 C 
BRANCH  28  29
ATOM     29  C   UNL     1       1.939   0.499   6.078  0.00  0.00    -0.047 A 
ATOM     30  C   UNL     1       2.006   1.736   6.692  0.00  0.00    +0.003 A 
ATOM     31  C   UNL     1       1.279   1.976   7.843  0.00  0.00    +0.000 A 
ATOM     32  C   UNL     1       0.485   0.980   8.380  0.00  0.00    +0.000 A 
ATOM     33  C   UNL     1       0.418  -0.256   7.766  0.00  0.00    +0.000 A 
ATOM     34  C   UNL     1       1.141  -0.496   6.613  0.00  0.00    +0.003 A 
ENDBRANCH  28  29
ENDBRANCH  24  28
ENDBRANCH  20  21
ENDBRANCH   1  20
TORSDOF 7
