REMARK  Name = ZINC31823604
REMARK  9 active torsions:
REMARK  status: ('A' for Active; 'I' for Inactive)
REMARK    1  A    between atoms: C_1  and  C_2
REMARK    2  A    between atoms: C_3  and  C_25
REMARK    3  A    between atoms: C_7  and  N_24
REMARK    4  A    between atoms: C_9  and  S_11
REMARK    5  A    between atoms: S_11  and  C_12
REMARK    6  A    between atoms: C_12  and  C_14
REMARK    7  A    between atoms: C_12  and  C_15
REMARK    8  A    between atoms: N_20  and  C_21
REMARK    9  A    between atoms: C_21  and  C_22
REMARK                            x       y       z     vdW  Elec       q    Type
REMARK                         _______ _______ _______ _____ _____    ______ ____
ROOT
ATOM      1  C   UNL     1       0.391  -3.050   0.893  0.00  0.00    +0.045 C 
ATOM      2  C   UNL     1       1.521  -2.057   0.800  0.00  0.00    -0.028 A 
ATOM      3  C   UNL     1       2.791  -2.480   0.729  0.00  0.00    -0.008 A 
ATOM      4  S   UNL     1       3.730  -0.966   0.639  0.00  0.00    -0.073 S 
ATOM      5  C   UNL     1       2.390   0.194   0.699  0.00  0.00    +0.115 A 
ATOM      6  C   UNL     1       1.246  -0.630   0.788  0.00  0.00    +0.050 A 
ATOM      7  C   UNL     1       0.001   0.056   0.853  0.00  0.00    +0.129 A 
ATOM      8  N   UNL     1      -0.012   1.377   0.826  0.00  0.00    -0.207 NA
ATOM      9  C   UNL     1       1.103   2.093   0.741  0.00  0.00    +0.192 A 
ATOM     10  N   UNL     1       2.292   1.508   0.677  0.00  0.00    -0.214 NA
ATOM     11  C   UNL     1       3.304  -3.897   0.727  0.00  0.00    +0.052 C 
ENDROOT
BRANCH   7  12
ATOM     12  N   UNL     1      -1.183  -0.653   0.942  0.00  0.00    -0.343 N 
ATOM     13  H   UNL     1      -2.142  -0.118   0.992  0.00  0.00    +0.144 HD
ATOM     14  H   UNL     1      -1.165  -1.753   0.964  0.00  0.00    +0.144 HD
ENDBRANCH   7  12
BRANCH   9  15
ATOM     15  S   UNL     1       1.002   3.852   0.711  0.00  0.00    -0.073 S 
BRANCH  15  16
ATOM     16  C   UNL     1      -0.792   4.065   0.819  0.00  0.00    +0.137 C 
ATOM     17  C   UNL     1      -1.451   3.493  -0.438  0.00  0.00    +0.029 C 
BRANCH  16  18
ATOM     18  C   UNL     1      -1.117   5.532   0.933  0.00  0.00    +0.233 C 
ATOM     19  O   UNL     1      -0.344   6.360   0.502  0.00  0.00    -0.274 OA
ATOM     20  N   UNL     1      -2.268   5.924   1.515  0.00  0.00    -0.239 N 
ATOM     21  C   UNL     1      -2.559   7.236   1.617  0.00  0.00    +0.306 C 
ATOM     22  O   UNL     1      -1.784   8.066   1.184  0.00  0.00    -0.252 OA
ATOM     23  N   UNL     1      -3.711   7.628   2.198  0.00  0.00    -0.296 N 
ATOM     24  H   UNL     1      -2.970   5.173   1.906  0.00  0.00    +0.159 HD
ATOM     25  H   UNL     1      -4.412   6.877   2.589  0.00  0.00    +0.151 HD
BRANCH  23  26
ATOM     26  C   UNL     1      -4.027   9.054   2.309  0.00  0.00    +0.132 C 
BRANCH  26  27
ATOM     27  C   UNL     1      -5.359   9.221   2.993  0.00  0.00    -0.016 C 
ATOM     28  C   UNL     1      -5.457   9.971   4.062  0.00  0.00    +0.005 C 
ENDBRANCH  26  27
ENDBRANCH  23  26
ENDBRANCH  16  18
ENDBRANCH  15  16
ENDBRANCH   9  15
TORSDOF 6
