REMARK  Name = ZINC05946241
REMARK  6 active torsions:
REMARK  status: ('A' for Active; 'I' for Inactive)
REMARK    1  A    between atoms: C_4  and  C_7
REMARK    2  A    between atoms: C_8  and  C_9
REMARK    3  A    between atoms: N_13  and  C_22
REMARK    4  A    between atoms: C_14  and  C_16
REMARK    5  A    between atoms: C_25  and  N_29
REMARK    6  A    between atoms: C_27  and  O_28
REMARK                            x       y       z     vdW  Elec       q    Type
REMARK                         _______ _______ _______ _____ _____    ______ ____
ROOT
ATOM      1  C   UNL     1      -2.403   1.021   0.058  0.00  0.00    +0.033 C 
ATOM      2  C   UNL     1      -3.613   1.698   0.046  0.00  0.00    +0.128 C 
ATOM      3  C   UNL     1      -3.811   3.156   0.019  0.00  0.00    +0.275 C 
ATOM      4  O   UNL     1      -2.950   4.017   0.002  0.00  0.00    -0.268 OA
ATOM      5  N   UNL     1      -5.150   3.339   0.016  0.00  0.00    -0.215 N 
ATOM      6  C   UNL     1      -5.752   2.102   0.039  0.00  0.00    +0.140 C 
ATOM      7  N   UNL     1      -4.857   1.148   0.052  0.00  0.00    -0.226 NA
ENDROOT
BRANCH   6   8
ATOM      8  C   UNL     1      -7.213   1.881   0.044  0.00  0.00    +0.016 A 
ATOM      9  C   UNL     1      -8.086   2.963   0.170  0.00  0.00    +0.011 A 
ATOM     10  C   UNL     1      -9.448   2.750   0.169  0.00  0.00    +0.001 A 
ATOM     11  C   UNL     1      -9.951   1.466   0.053  0.00  0.00    +0.000 A 
ATOM     12  C   UNL     1      -9.091   0.388  -0.068  0.00  0.00    +0.001 A 
ATOM     13  C   UNL     1      -7.727   0.587  -0.073  0.00  0.00    +0.011 A 
ENDBRANCH   6   8
BRANCH   5  14
ATOM     14  C   UNL     1      -5.812   4.576  -0.007  0.00  0.00    +0.085 A 
ATOM     15  C   UNL     1      -6.135   5.169  -1.219  0.00  0.00    +0.030 A 
ATOM     16  C   UNL     1      -6.791   6.385  -1.240  0.00  0.00    +0.035 A 
ATOM     17  C   UNL     1      -7.117   7.019  -0.054  0.00  0.00    +0.130 A 
ATOM     18  C   UNL     1      -6.794   6.436   1.157  0.00  0.00    +0.080 A 
ATOM     19  C   UNL     1      -6.141   5.215   1.186  0.00  0.00    +0.141 A 
BRANCH  17  20
ATOM     20  N   UNL     1      -7.815   8.324  -0.083  0.00  0.00    +0.057 N 
ATOM     21  O   UNL     1      -8.103   8.884   0.960  0.00  0.00    -0.126 OA
ATOM     22  O   UNL     1      -8.101   8.839  -1.149  0.00  0.00    -0.126 OA
ENDBRANCH  17  20
BRANCH  19  23
ATOM     23  O   UNL     1      -5.823   4.640   2.376  0.00  0.00    -0.505 OA
ATOM     24  H   UNL     1      -4.951   4.890   2.713  0.00  0.00    +0.292 HD
ENDBRANCH  19  23
ENDBRANCH   5  14
BRANCH   1  26
ATOM     25  C   UNL     1      -0.013   1.076   0.054  0.00  0.00    +0.008 C 
ATOM     26  C   UNL     1      -1.197   1.739   0.043  0.00  0.00    +0.003 C 
BRANCH  25  30
ATOM     27  C   UNL     1       3.630   3.245  -0.009  0.00  0.00    +0.000 A 
ATOM     28  C   UNL     1       3.653   1.861   0.017  0.00  0.00    +0.001 A 
ATOM     29  C   UNL     1       2.474   1.148   0.038  0.00  0.00    +0.008 A 
ATOM     30  C   UNL     1       1.250   1.827   0.032  0.00  0.00    -0.025 A 
ATOM     31  C   UNL     1       1.235   3.227   0.000  0.00  0.00    +0.008 A 
ATOM     32  C   UNL     1       2.424   3.925  -0.015  0.00  0.00    +0.001 A 
ENDBRANCH  25  30
ENDBRANCH   1  26
TORSDOF 6
