REMARK  Name = ZINC35664998
REMARK  7 active torsions:
REMARK  status: ('A' for Active; 'I' for Inactive)
REMARK    1  A    between atoms: C_1  and  C_2
REMARK    2  A    between atoms: C_2  and  N_3
REMARK    3  A    between atoms: N_3  and  C_4
REMARK    4  A    between atoms: C_4  and  N_6
REMARK    5  A    between atoms: C_13  and  C_28
REMARK    6  A    between atoms: N_17  and  C_18
REMARK    7  A    between atoms: C_18  and  C_19
REMARK                            x       y       z     vdW  Elec       q    Type
REMARK                         _______ _______ _______ _____ _____    ______ ____
ROOT
ATOM      1  N   UNL     1      -2.404  -2.760   0.651  0.00  0.00    -0.313 N 
ATOM      2  C   UNL     1      -3.401  -1.742   0.294  0.00  0.00    +0.107 C 
ATOM      3  C   UNL     1      -4.158  -2.210  -0.953  0.00  0.00    +0.025 C 
ATOM      4  C   UNL     1      -4.733  -3.603  -0.703  0.00  0.00    +0.006 C 
ATOM      5  C   UNL     1      -3.609  -4.596  -0.411  0.00  0.00    +0.025 C 
ATOM      6  C   UNL     1      -2.846  -4.149   0.834  0.00  0.00    +0.107 C 
ATOM      7  N   UNL     1      -5.497  -4.048  -1.888  0.00  0.00    +0.401 N 
ATOM      8  C   UNL     1      -6.880  -3.613  -1.579  0.00  0.00    +0.016 C 
ATOM      9  C   UNL     1      -6.942  -3.569  -0.067  0.00  0.00    +0.200 C 
ATOM     10  O   UNL     1      -7.955  -3.540   0.600  0.00  0.00    -0.277 OA
ATOM     11  N   UNL     1      -5.681  -3.568   0.413  0.00  0.00    -0.309 N 
ATOM     12  C   UNL     1      -7.891  -4.622  -2.127  0.00  0.00    -0.004 C 
ATOM     13  H   UNL     1      -5.158  -3.592  -2.722  0.00  0.00    -0.082 HD
ATOM     14  H   UNL     1      -5.452  -5.051  -1.985  0.00  0.00    -0.082 HD
ENDROOT
BRANCH   1  15
ATOM     15  C   UNL     1      -1.106  -2.427   0.802  0.00  0.00    +0.133 C 
ATOM     16  S   UNL     1       0.064  -3.646   1.077  0.00  0.00    -0.019 S 
BRANCH  15  17
ATOM     17  N   UNL     1      -0.730  -1.135   0.737  0.00  0.00    -0.327 N 
ATOM     18  H   UNL     1      -1.380  -0.451   0.510  0.00  0.00    +0.148 HD
BRANCH  17  20
ATOM     19  C   UNL     1       0.819   0.754   0.868  0.00  0.00    +0.024 C 
ATOM     20  C   UNL     1       0.660  -0.761   1.008  0.00  0.00    +0.100 C 
ENDBRANCH  17  20
ENDBRANCH  15  17
ENDBRANCH   1  15
BRANCH  11  21
ATOM     21  C   UNL     1      -5.317  -3.538   1.832  0.00  0.00    +0.141 C 
BRANCH  21  22
ATOM     22  C   UNL     1      -5.491  -4.912   2.425  0.00  0.00    -0.026 A 
ATOM     23  C   UNL     1      -6.511  -5.149   3.328  0.00  0.00    +0.009 A 
ATOM     24  C   UNL     1      -6.676  -6.408   3.874  0.00  0.00    +0.050 A 
ATOM     25  C   UNL     1      -5.817  -7.436   3.519  0.00  0.00    +0.166 A 
ATOM     26  C   UNL     1      -4.790  -7.197   2.610  0.00  0.00    +0.167 A 
ATOM     27  C   UNL     1      -4.635  -5.934   2.061  0.00  0.00    +0.054 A 
ATOM     28  O   UNL     1      -4.091  -8.355   2.426  0.00  0.00    -0.453 OA
ATOM     29  C   UNL     1      -4.447  -9.198   3.538  0.00  0.00    +0.466 C 
ATOM     30  O   UNL     1      -5.763  -8.744   3.905  0.00  0.00    -0.453 OA
ENDBRANCH  21  22
ENDBRANCH  11  21
TORSDOF 5
