REMARK  Name = ZINC39016107
REMARK  6 active torsions:
REMARK  status: ('A' for Active; 'I' for Inactive)
REMARK    1  A    between atoms: C_1  and  O_2
REMARK    2  A    between atoms: O_2  and  C_3
REMARK    3  A    between atoms: C_3  and  C_5
REMARK    4  A    between atoms: C_7  and  N_15
REMARK    5  A    between atoms: C_16  and  C_18
REMARK    6  A    between atoms: C_19  and  C_20
REMARK                            x       y       z     vdW  Elec       q    Type
REMARK                         _______ _______ _______ _____ _____    ______ ____
ROOT
ATOM      1  N   UNL     1       0.075  -2.515  -1.991  0.00  0.00    -0.283 N 
ATOM      2  C   UNL     1       0.151  -2.936  -3.269  0.00  0.00    +0.241 C 
ATOM      3  O   UNL     1      -0.836  -3.386  -3.821  0.00  0.00    -0.271 OA
ATOM      4  H   UNL     1       0.837  -2.079  -1.578  0.00  0.00    +0.155 HD
ENDROOT
BRANCH   1   6
ATOM      5  C   UNL     1      -2.279  -3.509  -1.693  0.00  0.00    +0.234 C 
ATOM      6  C   UNL     1      -1.070  -2.700  -1.280  0.00  0.00    +0.053 C 
ATOM      7  C   UNL     1      -1.369  -2.188  -0.028  0.00  0.00    +0.018 A 
ATOM      8  C   UNL     1      -0.644  -1.365   0.865  0.00  0.00    +0.011 A 
ATOM      9  C   UNL     1      -1.197  -1.011   2.052  0.00  0.00    +0.001 A 
ATOM     10  C   UNL     1      -2.474  -1.441   2.423  0.00  0.00    +0.002 A 
ATOM     11  C   UNL     1      -3.225  -2.231   1.617  0.00  0.00    +0.026 A 
ATOM     12  C   UNL     1      -2.716  -2.643   0.359  0.00  0.00    +0.045 A 
ATOM     13  N   UNL     1      -3.238  -3.397  -0.590  0.00  0.00    -0.367 N 
ATOM     14  H   UNL     1      -4.115  -3.810  -0.562  0.00  0.00    +0.161 HD
BRANCH   5  15
ATOM     15  C   UNL     1      -1.894  -4.951  -1.901  0.00  0.00    +0.335 C 
ATOM     16  O   UNL     1      -1.996  -5.741  -0.992  0.00  0.00    -0.248 OA
BRANCH  15  18
ATOM     17  C   UNL     1      -1.089  -6.739  -3.221  0.00  0.00    +0.280 C 
ATOM     18  O   UNL     1      -1.436  -5.358  -3.095  0.00  0.00    -0.466 OA
ENDBRANCH  15  18
ENDBRANCH   5  15
ENDBRANCH   1   6
BRANCH   2  19
ATOM     19  C   UNL     1       1.381  -2.855  -3.970  0.00  0.00    +0.068 C 
ATOM     20  C   UNL     1       1.457  -3.277  -5.251  0.00  0.00    +0.013 C 
BRANCH  20  21
ATOM     21  C   UNL     1       2.731  -3.193  -5.978  0.00  0.00    -0.021 A 
ATOM     22  C   UNL     1       3.869  -2.682  -5.343  0.00  0.00    +0.012 A 
ATOM     23  C   UNL     1       5.062  -2.605  -6.027  0.00  0.00    +0.050 A 
ATOM     24  C   UNL     1       5.142  -3.034  -7.346  0.00  0.00    +0.166 A 
ATOM     25  C   UNL     1       4.011  -3.545  -7.986  0.00  0.00    +0.167 A 
ATOM     26  C   UNL     1       2.812  -3.630  -7.306  0.00  0.00    +0.057 A 
ATOM     27  O   UNL     1       4.352  -3.891  -9.262  0.00  0.00    -0.453 OA
ATOM     28  C   UNL     1       5.592  -3.209  -9.525  0.00  0.00    +0.466 C 
ATOM     29  O   UNL     1       6.186  -3.061  -8.222  0.00  0.00    -0.453 OA
ENDBRANCH  20  21
ENDBRANCH   2  19
TORSDOF 5
