REMARK  Name = ZINC38778990
REMARK  9 active torsions:
REMARK  status: ('A' for Active; 'I' for Inactive)
REMARK    1  A    between atoms: C_1  and  N_2
REMARK    2  A    between atoms: C_3  and  C_5
REMARK    3  A    between atoms: C_8  and  C_11
REMARK    4  A    between atoms: C_11  and  N_12
REMARK    5  A    between atoms: N_12  and  C_13
REMARK    6  A    between atoms: C_14  and  C_16
REMARK    7  A    between atoms: C_21  and  N_22
REMARK    8  A    between atoms: N_22  and  S_23
REMARK    9  A    between atoms: S_23  and  C_26
REMARK                            x       y       z     vdW  Elec       q    Type
REMARK                         _______ _______ _______ _____ _____    ______ ____
ROOT
ATOM      1  C   UNL     1      -0.201  -8.046   2.893  0.00  0.00    +0.059 A 
ATOM      2  C   UNL     1      -1.511  -8.473   3.127  0.00  0.00    +0.015 A 
ATOM      3  C   UNL     1      -1.815  -9.152   4.286  0.00  0.00    +0.001 A 
ATOM      4  C   UNL     1      -0.828  -9.416   5.223  0.00  0.00    +0.002 A 
ATOM      5  C   UNL     1       0.469  -9.001   5.007  0.00  0.00    +0.025 A 
ATOM      6  C   UNL     1       0.797  -8.320   3.841  0.00  0.00    +0.060 A 
ENDROOT
BRANCH   1   9
ATOM      7  N   UNL     1      -0.688  -6.349   1.201  0.00  0.00    -0.296 N 
ATOM      8  C   UNL     1      -1.847  -5.939   1.998  0.00  0.00    +0.132 C 
ATOM      9  C   UNL     1       0.132  -7.318   1.655  0.00  0.00    +0.248 C 
ATOM     10  O   UNL     1       1.146  -7.592   1.042  0.00  0.00    -0.270 OA
BRANCH   7  11
ATOM     11  C   UNL     1      -0.420  -5.707  -0.088  0.00  0.00    +0.142 C 
BRANCH  11  15
ATOM     12  C   UNL     1       2.099  -2.304   0.510  0.00  0.00    +0.037 A 
ATOM     13  C   UNL     1       2.661  -3.558   0.267  0.00  0.00    +0.013 A 
ATOM     14  C   UNL     1       1.843  -4.652   0.075  0.00  0.00    +0.006 A 
ATOM     15  C   UNL     1       0.467  -4.508   0.123  0.00  0.00    -0.030 A 
ATOM     16  C   UNL     1      -0.096  -3.267   0.362  0.00  0.00    +0.006 A 
ATOM     17  C   UNL     1       0.711  -2.166   0.562  0.00  0.00    +0.013 A 
BRANCH  12  20
ATOM     18  C   UNL     1       5.173  -0.098   0.870  0.00  0.00    +0.128 C 
ATOM     19  N   UNL     1       4.310  -1.264   0.665  0.00  0.00    -0.314 N 
ATOM     20  C   UNL     1       2.970  -1.127   0.717  0.00  0.00    +0.244 C 
ATOM     21  O   UNL     1       2.477  -0.037   0.933  0.00  0.00    -0.270 OA
ATOM     22  H   UNL     1       4.702  -2.133   0.493  0.00  0.00    +0.149 HD
ENDBRANCH  12  20
ENDBRANCH  11  15
ENDBRANCH   7  11
ENDBRANCH   1   9
BRANCH   6  23
ATOM     23  N   UNL     1       2.104  -7.907   3.618  0.00  0.00    -0.216 N 
ATOM     24  H   UNL     1       2.277  -7.067   3.164  0.00  0.00    +0.174 HD
BRANCH  23  25
ATOM     25  S   UNL     1       3.368  -8.848   4.126  0.00  0.00    +0.072 S 
ATOM     26  O   UNL     1       4.553  -8.242   3.627  0.00  0.00    -0.150 OA
ATOM     27  O   UNL     1       3.163  -9.090   5.511  0.00  0.00    -0.150 OA
BRANCH  25  28
ATOM     28  C   UNL     1       3.218 -10.405   3.314  0.00  0.00    +0.110 A 
ATOM     29  C   UNL     1       2.442 -11.462   3.951  0.00  0.00    +0.031 A 
ATOM     30  C   UNL     1       2.287 -12.677   3.383  0.00  0.00    +0.027 A 
ATOM     31  C   UNL     1       2.912 -12.954   2.091  0.00  0.00    +0.056 A 
ATOM     32  N   UNL     1       2.959 -13.990   1.291  0.00  0.00    -0.268 N 
ATOM     33  C   UNL     1       3.715 -13.655   0.192  0.00  0.00    +0.308 C 
ATOM     34  O   UNL     1       3.955 -14.393  -0.740  0.00  0.00    -0.252 OA
ATOM     35  N   UNL     1       4.158 -12.358   0.309  0.00  0.00    -0.267 N 
ATOM     36  C   UNL     1       3.709 -11.868   1.437  0.00  0.00    +0.058 A 
ATOM     37  C   UNL     1       3.822 -10.581   2.119  0.00  0.00    +0.054 A 
ATOM     38  H   UNL     1       4.709 -11.887  -0.335  0.00  0.00    +0.156 HD
ATOM     39  H   UNL     1       2.534 -14.847   1.447  0.00  0.00    +0.156 HD
ENDBRANCH  25  28
ENDBRANCH  23  25
ENDBRANCH   6  23
TORSDOF 7
