REMARK  Name = ZINC17660622
REMARK  9 active torsions:
REMARK  status: ('A' for Active; 'I' for Inactive)
REMARK    1  A    between atoms: C_1  and  C_2
REMARK    2  A    between atoms: C_5  and  N_8
REMARK    3  A    between atoms: C_12  and  C_13
REMARK    4  A    between atoms: C_23  and  S_24
REMARK    5  A    between atoms: S_24  and  C_25
REMARK    6  A    between atoms: C_25  and  C_27
REMARK    7  A    between atoms: C_25  and  C_33
REMARK    8  A    between atoms: N_35  and  C_36
REMARK    9  A    between atoms: N_35  and  C_37
REMARK                            x       y       z     vdW  Elec       q    Type
REMARK                         _______ _______ _______ _____ _____    ______ ____
ROOT
ATOM      1  N   UNL     1       1.699   1.934   0.615  0.00  0.00    -0.214 N 
ATOM      2  C   UNL     1       2.842   1.259   0.867  0.00  0.00    +0.275 C 
ATOM      3  O   UNL     1       3.972   1.711   0.903  0.00  0.00    -0.268 OA
ATOM      4  C   UNL     1       2.433  -0.140   1.087  0.00  0.00    +0.129 C 
ATOM      5  C   UNL     1       3.252  -1.207   1.378  0.00  0.00    +0.041 C 
ATOM      6  N   UNL     1       1.074  -0.160   0.945  0.00  0.00    -0.220 NA
ATOM      7  C   UNL     1       0.652   1.046   0.670  0.00  0.00    +0.169 C 
ENDROOT
BRANCH   5   8
ATOM      8  C   UNL     1       2.697  -2.563   1.431  0.00  0.00    -0.019 A 
ATOM      9  C   UNL     1       1.367  -2.794   1.057  0.00  0.00    +0.012 A 
ATOM     10  C   UNL     1       0.850  -4.069   1.108  0.00  0.00    +0.050 A 
ATOM     11  C   UNL     1       1.642  -5.130   1.531  0.00  0.00    +0.166 A 
ATOM     12  C   UNL     1       2.968  -4.908   1.906  0.00  0.00    +0.167 A 
ATOM     13  C   UNL     1       3.497  -3.634   1.852  0.00  0.00    +0.057 A 
ATOM     14  O   UNL     1       3.521  -6.100   2.276  0.00  0.00    -0.453 OA
ATOM     15  C   UNL     1       2.408  -6.981   2.515  0.00  0.00    +0.466 C 
ATOM     16  O   UNL     1       1.368  -6.459   1.667  0.00  0.00    -0.453 OA
ENDBRANCH   5   8
BRANCH   1  21
ATOM     17  C   UNL     1       1.292   7.487  -0.483  0.00  0.00    +0.044 C 
ATOM     18  C   UNL     1       1.400   6.013  -0.191  0.00  0.00    -0.050 A 
ATOM     19  C   UNL     1       1.821   5.585   1.054  0.00  0.00    +0.005 A 
ATOM     20  C   UNL     1       1.921   4.234   1.325  0.00  0.00    +0.024 A 
ATOM     21  C   UNL     1       1.599   3.305   0.344  0.00  0.00    +0.044 A 
ATOM     22  C   UNL     1       1.182   3.738  -0.907  0.00  0.00    +0.024 A 
ATOM     23  C   UNL     1       1.078   5.090  -1.170  0.00  0.00    +0.005 A 
ENDBRANCH   1  21
BRANCH   7  24
ATOM     24  S   UNL     1      -1.035   1.476   0.400  0.00  0.00    -0.072 S 
BRANCH  24  25
ATOM     25  C   UNL     1      -1.794  -0.166   0.476  0.00  0.00    +0.170 C 
BRANCH  25  26
ATOM     26  C   UNL     1      -3.294  -0.027   0.460  0.00  0.00    -0.025 A 
ATOM     27  C   UNL     1      -3.927   0.511  -0.645  0.00  0.00    +0.005 A 
ATOM     28  C   UNL     1      -5.304   0.634  -0.661  0.00  0.00    +0.000 A 
ATOM     29  C   UNL     1      -6.047   0.227   0.431  0.00  0.00    +0.000 A 
ATOM     30  C   UNL     1      -5.414  -0.306   1.538  0.00  0.00    +0.000 A 
ATOM     31  C   UNL     1      -4.037  -0.433   1.553  0.00  0.00    +0.005 A 
ENDBRANCH  25  26
BRANCH  25  32
ATOM     32  C   UNL     1      -1.352  -0.979  -0.714  0.00  0.00    +0.233 C 
ATOM     33  O   UNL     1      -0.835  -0.431  -1.664  0.00  0.00    -0.274 OA
ATOM     34  N   UNL     1      -1.532  -2.314  -0.722  0.00  0.00    -0.306 N 
ATOM     35  C   UNL     1      -0.999  -3.119  -1.825  0.00  0.00    +0.131 C 
ATOM     36  C   UNL     1      -2.260  -2.962   0.372  0.00  0.00    +0.131 C 
ENDBRANCH  25  32
ENDBRANCH  24  25
ENDBRANCH   7  24
TORSDOF 6
