REMARK  Name = ZINC59402969
REMARK  8 active torsions:
REMARK  status: ('A' for Active; 'I' for Inactive)
REMARK    1  A    between atoms: C_4  and  N_7
REMARK    2  A    between atoms: N_10  and  C_11
REMARK    3  A    between atoms: C_11  and  C_12
REMARK    4  A    between atoms: N_18  and  C_19
REMARK    5  A    between atoms: C_19  and  C_20
REMARK    6  A    between atoms: C_20  and  O_21
REMARK    7  A    between atoms: O_21  and  C_22
REMARK    8  A    between atoms: C_27  and  N_28
REMARK                            x       y       z     vdW  Elec       q    Type
REMARK                         _______ _______ _______ _____ _____    ______ ____
ROOT
ATOM      1  C   UNL     1       6.535  -4.108  -0.246  0.00  0.00    -0.051 C 
ATOM      2  C   UNL     1       6.764  -5.621  -0.244  0.00  0.00    -0.014 C 
ATOM      3  C   UNL     1       8.251  -5.906  -0.470  0.00  0.00    -0.003 C 
ATOM      4  C   UNL     1       8.693  -5.254  -1.783  0.00  0.00    -0.019 C 
ATOM      5  C   UNL     1       8.393  -3.755  -1.728  0.00  0.00    -0.078 C 
ATOM      6  N   UNL     1       6.952  -3.548  -1.537  0.00  0.00    +0.385 N 
ATOM      7  H   UNL     1       6.446  -4.006  -2.280  0.00  0.00    -0.081 HD
ENDROOT
BRANCH   1   8
ATOM      8  C   UNL     1       5.050  -3.817  -0.020  0.00  0.00    +0.090 C 
BRANCH   8  12
ATOM      9  N   UNL     1       2.240  -4.534  -2.281  0.00  0.00    -0.269 N 
ATOM     10  C   UNL     1       2.951  -4.078  -1.230  0.00  0.00    +0.304 C 
ATOM     11  O   UNL     1       2.397  -3.456  -0.345  0.00  0.00    -0.253 OA
ATOM     12  N   UNL     1       4.277  -4.312  -1.162  0.00  0.00    -0.301 N 
ATOM     13  H   UNL     1       2.666  -5.093  -2.949  0.00  0.00    +0.156 HD
ATOM     14  H   UNL     1       4.719  -4.808  -1.869  0.00  0.00    +0.150 HD
BRANCH   9  18
ATOM     15  C   UNL     1      -1.789  -3.541  -2.656  0.00  0.00    +0.000 A 
ATOM     16  C   UNL     1      -0.932  -2.699  -1.971  0.00  0.00    +0.002 A 
ATOM     17  C   UNL     1       0.404  -3.026  -1.844  0.00  0.00    +0.023 A 
ATOM     18  C   UNL     1       0.886  -4.200  -2.407  0.00  0.00    +0.035 A 
ATOM     19  C   UNL     1       0.023  -5.043  -3.094  0.00  0.00    +0.023 A 
ATOM     20  C   UNL     1      -1.312  -4.711  -3.217  0.00  0.00    +0.002 A 
ENDBRANCH   9  18
ENDBRANCH   8  12
ENDBRANCH   1   8
BRANCH   6  21
ATOM     21  C   UNL     1       6.658  -2.109  -1.563  0.00  0.00    -0.037 C 
BRANCH  21  22
ATOM     22  C   UNL     1       6.973  -1.549  -2.952  0.00  0.00    +0.211 C 
BRANCH  22  23
ATOM     23  O   UNL     1       6.090  -2.133  -3.912  0.00  0.00    -0.492 OA
BRANCH  23  24
ATOM     24  C   UNL     1       6.238  -1.740  -5.205  0.00  0.00    +0.150 A 
ATOM     25  C   UNL     1       7.217  -0.817  -5.543  0.00  0.00    +0.048 A 
ATOM     26  C   UNL     1       7.365  -0.420  -6.858  0.00  0.00    +0.004 A 
ATOM     27  C   UNL     1       6.540  -0.942  -7.837  0.00  0.00    +0.002 A 
ATOM     28  C   UNL     1       5.564  -1.862  -7.502  0.00  0.00    +0.036 A 
ATOM     29  C   UNL     1       5.415  -2.267  -6.189  0.00  0.00    +0.168 A 
BRANCH  29  30
ATOM     30  N   UNL     1       4.374  -3.257  -5.833  0.00  0.00    +0.060 N 
ATOM     31  O   UNL     1       3.656  -3.715  -6.692  0.00  0.00    -0.126 OA
ATOM     32  O   UNL     1       4.241  -3.607  -4.684  0.00  0.00    -0.126 OA
ENDBRANCH  29  30
ENDBRANCH  23  24
ENDBRANCH  22  23
ENDBRANCH  21  22
ENDBRANCH   6  21
TORSDOF 8
