REMARK  Name = ZINC66902618
REMARK  9 active torsions:
REMARK  status: ('A' for Active; 'I' for Inactive)
REMARK    1  A    between atoms: C_1  and  C_2
REMARK    2  A    between atoms: C_2  and  C_3
REMARK    3  A    between atoms: C_8  and  N_9
REMARK    4  A    between atoms: C_10  and  C_12
REMARK    5  A    between atoms: C_12  and  C_14
REMARK    6  A    between atoms: C_12  and  N_15
REMARK    7  A    between atoms: C_18  and  N_21
REMARK    8  A    between atoms: C_22  and  C_24
REMARK    9  A    between atoms: C_24  and  C_25
REMARK                            x       y       z     vdW  Elec       q    Type
REMARK                         _______ _______ _______ _____ _____    ______ ____
ROOT
ATOM      1  N   UNL     1       6.380  -0.400   0.905  0.00  0.00    +0.387 N 
ATOM      2  C   UNL     1       7.148  -0.044   2.104  0.00  0.00    -0.076 C 
ATOM      3  C   UNL     1       8.635  -0.308   1.859  0.00  0.00    +0.004 C 
ATOM      4  C   UNL     1       9.110   0.540   0.676  0.00  0.00    +0.069 C 
ATOM      5  C   UNL     1       8.253   0.214  -0.550  0.00  0.00    +0.004 C 
ATOM      6  C   UNL     1       6.780   0.459  -0.216  0.00  0.00    -0.076 C 
ATOM      7  H   UNL     1       6.557  -1.365   0.669  0.00  0.00    -0.081 HD
ENDROOT
BRANCH   4   8
ATOM      8  N   UNL     1      10.514   0.236   0.388  0.00  0.00    -0.313 N 
ATOM      9  C   UNL     1      11.290   1.151  -0.226  0.00  0.00    +0.213 C 
ATOM     10  O   UNL     1      10.825   2.227  -0.540  0.00  0.00    -0.276 OA
ATOM     11  H   UNL     1      10.885  -0.624   0.639  0.00  0.00    +0.149 HD
BRANCH   9  12
ATOM     12  C   UNL     1      12.733   0.838  -0.523  0.00  0.00    +0.099 C 
BRANCH  12  13
ATOM     13  C   UNL     1      13.383   2.036  -1.219  0.00  0.00    -0.002 C 
ATOM     14  C   UNL     1      12.726   2.250  -2.584  0.00  0.00    +0.004 C 
ATOM     15  C   UNL     1      13.376   3.448  -3.280  0.00  0.00    +0.000 C 
ATOM     16  C   UNL     1      14.870   3.180  -3.469  0.00  0.00    +0.000 C 
ATOM     17  C   UNL     1      15.526   2.966  -2.103  0.00  0.00    +0.000 C 
ATOM     18  C   UNL     1      14.877   1.768  -1.408  0.00  0.00    +0.004 C 
ENDBRANCH  12  13
ENDBRANCH   9  12
ENDBRANCH   4   8
BRANCH   1  19
ATOM     19  C   UNL     1       4.947  -0.219   1.171  0.00  0.00    +0.016 C 
ATOM     20  C   UNL     1       4.557  -1.007   2.423  0.00  0.00    -0.004 C 
BRANCH  19  22
ATOM     21  N   UNL     1       2.840  -0.418  -0.110  0.00  0.00    -0.287 N 
ATOM     22  C   UNL     1       4.150  -0.719  -0.006  0.00  0.00    +0.203 C 
ATOM     23  O   UNL     1       4.687  -1.392  -0.860  0.00  0.00    -0.277 OA
ATOM     24  H   UNL     1       2.428   0.183   0.531  0.00  0.00    +0.155 HD
BRANCH  21  30
ATOM     25  C   UNL     1       0.740  -1.288  -0.927  0.00  0.00    -0.026 A 
ATOM     26  C   UNL     1      -0.014  -1.829  -1.950  0.00  0.00    +0.005 A 
ATOM     27  C   UNL     1       0.560  -2.060  -3.186  0.00  0.00    +0.000 A 
ATOM     28  C   UNL     1       1.891  -1.750  -3.403  0.00  0.00    +0.002 A 
ATOM     29  C   UNL     1       2.650  -1.209  -2.384  0.00  0.00    +0.023 A 
ATOM     30  C   UNL     1       2.075  -0.971  -1.143  0.00  0.00    +0.037 A 
BRANCH  25  32
ATOM     31  C   UNL     1      -0.371   0.413   0.495  0.00  0.00    +0.009 C 
ATOM     32  C   UNL     1       0.114  -1.036   0.421  0.00  0.00    +0.033 C 
ENDBRANCH  25  32
ENDBRANCH  21  30
ENDBRANCH  19  22
ENDBRANCH   1  19
TORSDOF 7
