REMARK  Name = ZINC63888286
REMARK  8 active torsions:
REMARK  status: ('A' for Active; 'I' for Inactive)
REMARK    1  A    between atoms: C_1  and  C_2
REMARK    2  A    between atoms: C_5  and  C_22
REMARK    3  A    between atoms: C_7  and  N_8
REMARK    4  A    between atoms: N_8  and  C_9
REMARK    5  A    between atoms: C_9  and  C_10
REMARK    6  A    between atoms: N_12  and  C_13
REMARK    7  A    between atoms: C_13  and  C_14
REMARK    8  A    between atoms: C_13  and  C_15
REMARK                            x       y       z     vdW  Elec       q    Type
REMARK                         _______ _______ _______ _____ _____    ______ ____
ROOT
ATOM      1  N   UNL     1       0.025  -0.009   2.416  0.00  0.00    -0.335 N 
ATOM      2  H   UNL     1       0.012   0.961   2.419  0.00  0.00    +0.147 HD
ENDROOT
BRANCH   1   9
ATOM      3  C   UNL     1      -0.018   1.503   0.010  0.00  0.00    +0.045 C 
ATOM      4  C   UNL     1       0.002  -0.004   0.002  0.00  0.00    -0.030 A 
ATOM      5  C   UNL     1       0.006  -0.686  -1.200  0.00  0.00    +0.006 A 
ATOM      6  C   UNL     1       0.025  -2.066  -1.216  0.00  0.00    +0.013 A 
ATOM      7  C   UNL     1       0.040  -2.778  -0.015  0.00  0.00    +0.038 A 
ATOM      8  C   UNL     1       0.036  -2.090   1.198  0.00  0.00    +0.036 A 
ATOM      9  C   UNL     1       0.023  -0.703   1.203  0.00  0.00    +0.031 A 
BRANCH   7  10
ATOM     10  C   UNL     1       0.060  -4.256  -0.029  0.00  0.00    +0.242 C 
ATOM     11  O   UNL     1       0.073  -4.874   1.018  0.00  0.00    -0.270 OA
ATOM     12  N   UNL     1       0.063  -4.919  -1.203  0.00  0.00    -0.325 N 
ATOM     13  H   UNL     1       0.052  -4.426  -2.038  0.00  0.00    +0.145 HD
ATOM     14  H   UNL     1       0.076  -5.889  -1.212  0.00  0.00    +0.145 HD
ENDBRANCH   7  10
ENDBRANCH   1   9
BRANCH   1  15
ATOM     15  C   UNL     1       0.047  -0.746   3.682  0.00  0.00    +0.197 C 
BRANCH  15  16
ATOM     16  C   UNL     1       0.045   0.229   4.830  0.00  0.00    +0.231 C 
ATOM     17  O   UNL     1       0.026   1.423   4.613  0.00  0.00    -0.274 OA
ATOM     18  N   UNL     1       0.063  -0.224   6.099  0.00  0.00    -0.307 N 
ATOM     19  H   UNL     1       0.077  -1.179   6.273  0.00  0.00    +0.149 HD
BRANCH  18  20
ATOM     20  C   UNL     1       0.060   0.724   7.216  0.00  0.00    +0.102 C 
ATOM     21  C   UNL     1       1.494   1.169   7.510  0.00  0.00    +0.033 C 
BRANCH  20  22
ATOM     22  C   UNL     1      -0.519   0.059   8.438  0.00  0.00    -0.009 A 
ATOM     23  C   UNL     1      -0.464  -1.316   8.569  0.00  0.00    +0.007 A 
ATOM     24  C   UNL     1      -0.996  -1.926   9.690  0.00  0.00    +0.000 A 
ATOM     25  C   UNL     1      -1.584  -1.161  10.680  0.00  0.00    +0.001 A 
ATOM     26  C   UNL     1      -1.639   0.214  10.551  0.00  0.00    +0.020 A 
ATOM     27  C   UNL     1      -1.102   0.825   9.432  0.00  0.00    +0.046 A 
ATOM     28 CL   UNL     1      -1.166   2.553   9.271  0.00  0.00    -0.083 Cl
ENDBRANCH  20  22
ENDBRANCH  18  20
ENDBRANCH  15  16
ENDBRANCH   1  15
TORSDOF 6
