REMARK  Name = ZINC16913068
REMARK  11 active torsions:
REMARK  status: ('A' for Active; 'I' for Inactive)
REMARK    1  A    between atoms: C_1  and  C_2
REMARK    2  A    between atoms: C_2  and  C_3
REMARK    3  A    between atoms: C_3  and  C_5
REMARK    4  A    between atoms: C_3  and  O_7
REMARK    5  A    between atoms: O_7  and  C_8
REMARK    6  A    between atoms: C_11  and  C_16
REMARK    7  A    between atoms: C_13  and  O_14
REMARK    8  A    between atoms: O_14  and  C_15
REMARK    9  A    between atoms: N_20  and  C_24
REMARK   10  A    between atoms: C_27  and  O_31
REMARK   11  A    between atoms: C_29  and  C_30
REMARK                            x       y       z     vdW  Elec       q    Type
REMARK                         _______ _______ _______ _____ _____    ______ ____
ROOT
ATOM      1  C   UNL     1       2.579  -2.716  -0.058  0.00  0.00    +0.028 C 
ATOM      2  C   UNL     1       2.804  -3.895   0.576  0.00  0.00    +0.080 C 
ATOM      3  C   UNL     1       1.918  -4.667   1.469  0.00  0.00    +0.265 C 
ATOM      4  O   UNL     1       0.797  -4.282   1.746  0.00  0.00    -0.269 OA
ATOM      5  N   UNL     1       2.403  -5.799   1.952  0.00  0.00    -0.196 N 
ATOM      6  C   UNL     1       3.646  -6.222   1.642  0.00  0.00    +0.290 C 
ATOM      7  O   UNL     1       4.214  -7.232   2.011  0.00  0.00    -0.262 OA
ATOM      8  S   UNL     1       4.252  -4.943   0.553  0.00  0.00    -0.025 S 
ENDROOT
BRANCH   5   9
ATOM      9  C   UNL     1       1.607  -6.577   2.806  0.00  0.00    +0.048 A 
ATOM     10  C   UNL     1       0.774  -7.555   2.280  0.00  0.00    +0.028 A 
ATOM     11  C   UNL     1      -0.008  -8.321   3.120  0.00  0.00    +0.047 A 
ATOM     12  C   UNL     1       0.037  -8.113   4.492  0.00  0.00    +0.117 A 
ATOM     13  C   UNL     1       0.869  -7.136   5.018  0.00  0.00    +0.050 A 
ATOM     14  C   UNL     1       1.656  -6.373   4.178  0.00  0.00    -0.025 A 
ATOM     15  C   UNL     1       2.563  -5.314   4.751  0.00  0.00    +0.046 C 
BRANCH  12  16
ATOM     16  O   UNL     1      -0.734  -8.867   5.319  0.00  0.00    -0.507 OA
ATOM     17  H   UNL     1      -0.304  -9.677   5.627  0.00  0.00    +0.292 HD
ENDBRANCH  12  16
ENDBRANCH   5   9
BRANCH   1  21
ATOM     18  C   UNL     1      -1.298  -0.993  -0.007  0.00  0.00    +0.163 A 
ATOM     19  C   UNL     1      -1.152  -2.368  -0.134  0.00  0.00    +0.050 A 
ATOM     20  C   UNL     1       0.104  -2.933  -0.149  0.00  0.00    +0.012 A 
ATOM     21  C   UNL     1       1.238  -2.118  -0.042  0.00  0.00    -0.020 A 
ATOM     22  C   UNL     1       1.089  -0.731   0.080  0.00  0.00    +0.057 A 
ATOM     23  C   UNL     1      -0.174  -0.175   0.095  0.00  0.00    +0.162 A 
BRANCH  23  24
ATOM     24  O   UNL     1      -0.323   1.172   0.213  0.00  0.00    -0.491 OA
ATOM     25  C   UNL     1       0.872   1.950   0.319  0.00  0.00    +0.277 C 
ENDBRANCH  23  24
BRANCH  18  26
ATOM     26  O   UNL     1      -2.541  -0.443   0.013  0.00  0.00    -0.474 OA
BRANCH  26  27
ATOM     27  C   UNL     1      -3.649  -1.345   0.026  0.00  0.00    +0.285 C 
BRANCH  27  28
ATOM     28  C   UNL     1      -3.979  -1.755  -1.386  0.00  0.00    +0.396 C 
ATOM     29  O   UNL     1      -3.332  -1.320  -2.309  0.00  0.00    -0.242 OA
ATOM     30  O   UNL     1      -4.993  -2.604  -1.619  0.00  0.00    -0.242 OA
ENDBRANCH  27  28
BRANCH  27  32
ATOM     31  C   UNL     1      -4.570  -0.350   2.124  0.00  0.00    +0.008 C 
ATOM     32  C   UNL     1      -4.861  -0.654   0.653  0.00  0.00    +0.053 C 
ENDBRANCH  27  32
ENDBRANCH  26  27
ENDBRANCH  18  26
ENDBRANCH   1  21
TORSDOF 8
