REMARK  Name = ZINC12362259
REMARK  8 active torsions:
REMARK  status: ('A' for Active; 'I' for Inactive)
REMARK    1  A    between atoms: C_1  and  C_2
REMARK    2  A    between atoms: C_2  and  C_16
REMARK    3  A    between atoms: N_3  and  N_4
REMARK    4  A    between atoms: C_5  and  C_7
REMARK    5  A    between atoms: C_7  and  C_8
REMARK    6  A    between atoms: C_7  and  C_9
REMARK    7  A    between atoms: C_7  and  O_15
REMARK    8  A    between atoms: C_16  and  N_17
REMARK                            x       y       z     vdW  Elec       q    Type
REMARK                         _______ _______ _______ _____ _____    ______ ____
ROOT
ATOM      1  N   UNL     1       5.389   2.648  -1.743  0.00  0.00    -0.204 N 
ATOM      2  C   UNL     1       4.089   2.446  -1.448  0.00  0.00    +0.268 C 
ATOM      3  O   UNL     1       3.256   2.475  -2.329  0.00  0.00    -0.271 OA
ATOM      4  H   UNL     1       6.055   2.625  -1.038  0.00  0.00    +0.177 HD
ENDROOT
BRANCH   1   7
ATOM      5  C   UNL     1       8.046   3.050  -2.252  0.00  0.00    +0.064 C 
ATOM      6  C   UNL     1       7.011   3.086  -3.346  0.00  0.00    +0.055 C 
ATOM      7  N   UNL     1       5.777   2.894  -3.067  0.00  0.00    -0.188 NA
BRANCH   6   8
ATOM      8  C   UNL     1       7.428   3.350  -4.770  0.00  0.00    +0.197 C 
BRANCH   8   9
ATOM      9  N   UNL     1       7.970   4.707  -4.877  0.00  0.00    -0.238 N 
ATOM     10  C   UNL     1       9.281   5.085  -4.713  0.00  0.00    +0.089 A 
ATOM     11  C   UNL     1      10.455   4.399  -4.417  0.00  0.00    +0.029 A 
ATOM     12  C   UNL     1      11.634   5.082  -4.319  0.00  0.00    +0.002 A 
ATOM     13  C   UNL     1      11.673   6.457  -4.513  0.00  0.00    +0.002 A 
ATOM     14  C   UNL     1      10.537   7.153  -4.804  0.00  0.00    +0.032 A 
ATOM     15  C   UNL     1       9.314   6.476  -4.910  0.00  0.00    +0.113 A 
ATOM     16  N   UNL     1       8.056   6.881  -5.178  0.00  0.00    -0.129 NA
ATOM     17  N   UNL     1       7.253   5.876  -5.173  0.00  0.00    -0.064 NA
ENDBRANCH   8   9
ENDBRANCH   6   8
ENDBRANCH   1   7
BRANCH   2  18
ATOM     18  C   UNL     1       3.672   2.182  -0.024  0.00  0.00    +0.165 C 
ATOM     19  C   UNL     1       3.478   3.513   0.705  0.00  0.00    +0.056 C 
BRANCH  18  20
ATOM     20  C   UNL     1       2.377   1.411  -0.015  0.00  0.00    -0.007 A 
ATOM     21  C   UNL     1       1.171   2.086   0.002  0.00  0.00    +0.007 A 
ATOM     22  C   UNL     1      -0.017   1.378   0.010  0.00  0.00    +0.000 A 
ATOM     23  C   UNL     1       0.002  -0.004   0.002  0.00  0.00    +0.000 A 
ATOM     24  C   UNL     1       1.208  -0.679  -0.013  0.00  0.00    +0.000 A 
ATOM     25  C   UNL     1       2.396   0.029  -0.022  0.00  0.00    +0.007 A 
ENDBRANCH  18  20
BRANCH  18  26
ATOM     26  O   UNL     1       4.685   1.420   0.636  0.00  0.00    -0.375 OA
ATOM     27  H   UNL     1       4.861   0.562   0.226  0.00  0.00    +0.211 HD
ENDBRANCH  18  26
ENDBRANCH   2  18
TORSDOF 6
