REMARK  Name = ZINC13222314
REMARK  12 active torsions:
REMARK  status: ('A' for Active; 'I' for Inactive)
REMARK    1  A    between atoms: C_1  and  C_2
REMARK    2  A    between atoms: C_5  and  C_9
REMARK    3  A    between atoms: C_7  and  C_8
REMARK    4  A    between atoms: C_9  and  C_11
REMARK    5  A    between atoms: C_9  and  N_12
REMARK    6  A    between atoms: C_13  and  C_15
REMARK    7  A    between atoms: C_15  and  S_16
REMARK    8  A    between atoms: S_16  and  C_17
REMARK    9  A    between atoms: C_21  and  C_30
REMARK   10  A    between atoms: C_22  and  C_27
REMARK   11  A    between atoms: C_23  and  C_26
REMARK   12  A    between atoms: C_27  and  C_28
REMARK                            x       y       z     vdW  Elec       q    Type
REMARK                         _______ _______ _______ _____ _____    ______ ____
ROOT
ATOM      1  S   UNL     1      -6.779  -2.875   2.352  0.00  0.00    -0.075 S 
ENDROOT
BRANCH   1   2
ATOM      2  C   UNL     1      -5.606  -1.835   1.548  0.00  0.00    +0.211 A 
ATOM      3  N   UNL     1      -5.471  -1.703   0.230  0.00  0.00    -0.183 NA
ATOM      4  C   UNL     1      -4.495  -0.841  -0.037  0.00  0.00    +0.254 A 
ATOM      5  N   UNL     1      -3.987  -0.383  -1.186  0.00  0.00    -0.216 NA
ATOM      6  C   UNL     1      -3.003   0.489  -1.188  0.00  0.00    +0.047 A 
ATOM      7  C   UNL     1      -2.462   0.945   0.019  0.00  0.00    +0.006 A 
ATOM      8  C   UNL     1      -2.972   0.485   1.191  0.00  0.00    +0.049 A 
ATOM      9  N   UNL     1      -3.993  -0.411   1.159  0.00  0.00    -0.200 N 
ATOM     10  N   UNL     1      -4.726  -1.066   2.158  0.00  0.00    -0.137 NA
ATOM     11  C   UNL     1      -2.415   0.963   2.507  0.00  0.00    +0.066 C 
ATOM     12  C   UNL     1      -2.451   0.994  -2.496  0.00  0.00    +0.066 C 
BRANCH   7  13
ATOM     13  C   UNL     1      -1.329   1.940   0.019  0.00  0.00    +0.163 C 
BRANCH  13  14
ATOM     14  C   UNL     1      -0.014   1.204   0.009  0.00  0.00    +0.360 C 
ATOM     15  O   UNL     1       0.002  -0.004   0.002  0.00  0.00    -0.246 OA
ATOM     16  O   UNL     1       1.139   1.891   0.001  0.00  0.00    -0.246 OA
ENDBRANCH  13  14
ENDBRANCH   7  13
ENDBRANCH   1   2
BRANCH   1  17
ATOM     17  C   UNL     1      -7.682  -3.655   0.986  0.00  0.00    +0.173 C 
BRANCH  17  19
ATOM     18  N   UNL     1      -9.529  -5.277   0.707  0.00  0.00    -0.308 N 
ATOM     19  C   UNL     1      -8.731  -4.583   1.543  0.00  0.00    +0.224 C 
ATOM     20  O   UNL     1      -8.857  -4.706   2.743  0.00  0.00    -0.275 OA
ATOM     21  H   UNL     1      -9.428  -5.179  -0.253  0.00  0.00    +0.149 HD
BRANCH  18  22
ATOM     22  C   UNL     1     -10.548  -6.179   1.249  0.00  0.00    +0.100 C 
ATOM     23  C   UNL     1     -11.817  -5.385   1.565  0.00  0.00    +0.033 C 
BRANCH  22  28
ATOM     24  C   UNL     1     -11.760 -10.274  -2.645  0.00  0.00    +0.044 C 
ATOM     25  C   UNL     1     -11.444  -9.206  -1.630  0.00  0.00    -0.048 A 
ATOM     26  C   UNL     1     -11.244  -7.901  -2.039  0.00  0.00    +0.004 A 
ATOM     27  C   UNL     1     -10.958  -6.921  -1.107  0.00  0.00    +0.006 A 
ATOM     28  C   UNL     1     -10.864  -7.247   0.233  0.00  0.00    -0.027 A 
ATOM     29  C   UNL     1     -11.066  -8.552   0.642  0.00  0.00    +0.009 A 
ATOM     30  C   UNL     1     -11.356  -9.532  -0.289  0.00  0.00    -0.047 A 
ATOM     31  C   UNL     1     -11.574 -10.954   0.157  0.00  0.00    +0.044 C 
ENDBRANCH  22  28
ENDBRANCH  18  22
ENDBRANCH  17  19
ENDBRANCH   1  17
TORSDOF 7
