REMARK  Name = ZINC60377450
REMARK  12 active torsions:
REMARK  status: ('A' for Active; 'I' for Inactive)
REMARK    1  A    between atoms: C_1  and  C_2
REMARK    2  A    between atoms: C_2  and  C_4
REMARK    3  A    between atoms: C_2  and  N_17
REMARK    4  A    between atoms: C_4  and  C_6
REMARK    5  A    between atoms: C_7  and  N_16
REMARK    6  A    between atoms: N_8  and  C_15
REMARK    7  A    between atoms: N_11  and  C_14
REMARK    8  A    between atoms: C_20  and  C_23
REMARK    9  A    between atoms: C_23  and  N_24
REMARK   10  A    between atoms: N_24  and  C_25
REMARK   11  A    between atoms: N_24  and  C_26
REMARK   12  A    between atoms: C_26  and  C_27
REMARK                            x       y       z     vdW  Elec       q    Type
REMARK                         _______ _______ _______ _____ _____    ______ ____
ROOT
ATOM      1  N   UNL     1       1.452  -1.693   0.779  0.00  0.00    +0.386 N 
ATOM      2  C   UNL     1       2.888  -1.415   0.905  0.00  0.00    -0.078 C 
ATOM      3  C   UNL     1       3.488  -2.296   2.002  0.00  0.00    -0.017 C 
ATOM      4  C   UNL     1       3.282  -3.769   1.636  0.00  0.00    -0.031 C 
ATOM      5  C   UNL     1       1.786  -4.030   1.435  0.00  0.00    -0.017 C 
ATOM      6  C   UNL     1       1.250  -3.085   0.358  0.00  0.00    -0.078 C 
ATOM      7  H   UNL     1       1.004  -1.544   1.670  0.00  0.00    -0.081 HD
ENDROOT
BRANCH   1   9
ATOM      8  C   UNL     1       1.076   0.661   0.217  0.00  0.00    -0.005 C 
ATOM      9  C   UNL     1       0.866  -0.790  -0.220  0.00  0.00    +0.001 C 
BRANCH   9  10
ATOM     10  C   UNL     1      -0.610  -1.069  -0.344  0.00  0.00    +0.158 C 
ATOM     11  O   UNL     1      -1.196  -1.648   0.549  0.00  0.00    -0.294 OA
BRANCH  10  12
ATOM     12  C   UNL     1      -1.312  -0.656  -1.497  0.00  0.00    +0.118 A 
ATOM     13  C   UNL     1      -2.709  -0.788  -1.582  0.00  0.00    +0.116 A 
ATOM     14  N   UNL     1      -3.344  -0.375  -2.718  0.00  0.00    -0.284 N 
ATOM     15  C   UNL     1      -2.660   0.151  -3.747  0.00  0.00    +0.333 A 
ATOM     16  O   UNL     1      -3.272   0.504  -4.736  0.00  0.00    -0.246 OA
ATOM     17  N   UNL     1      -1.326   0.302  -3.723  0.00  0.00    -0.263 N 
ATOM     18  C   UNL     1      -0.607  -0.070  -2.644  0.00  0.00    +0.269 A 
ATOM     19  O   UNL     1       0.602   0.073  -2.623  0.00  0.00    -0.267 OA
ATOM     20  C   UNL     1      -0.643   0.884  -4.881  0.00  0.00    +0.157 C 
ATOM     21  C   UNL     1      -4.799  -0.508  -2.816  0.00  0.00    +0.155 C 
BRANCH  13  22
ATOM     22  N   UNL     1      -3.417  -1.320  -0.549  0.00  0.00    -0.344 N 
ATOM     23  H   UNL     1      -3.052  -1.302   0.350  0.00  0.00    +0.144 HD
ATOM     24  H   UNL     1      -4.287  -1.717  -0.711  0.00  0.00    +0.144 HD
ENDBRANCH  13  22
ENDBRANCH  10  12
ENDBRANCH   9  10
ENDBRANCH   1   9
BRANCH   4  25
ATOM     25  C   UNL     1       3.809  -4.656   2.766  0.00  0.00    -0.075 C 
BRANCH  25  26
ATOM     26  N   UNL     1       5.267  -4.508   2.865  0.00  0.00    +0.381 N 
ATOM     27  C   UNL     1       5.897  -5.045   1.652  0.00  0.00    -0.096 C 
ATOM     28  H   UNL     1       5.500  -3.531   2.962  0.00  0.00    -0.082 HD
BRANCH  26  29
ATOM     29  C   UNL     1       5.755  -5.246   4.038  0.00  0.00    -0.043 C 
BRANCH  29  30
ATOM     30  C   UNL     1       7.231  -4.995   4.211  0.00  0.00    -0.064 A 
ATOM     31  C   UNL     1       8.150  -5.821   3.590  0.00  0.00    +0.002 A 
ATOM     32  C   UNL     1       9.503  -5.591   3.749  0.00  0.00    +0.000 A 
ATOM     33  C   UNL     1       9.938  -4.535   4.527  0.00  0.00    +0.000 A 
ATOM     34  C   UNL     1       9.020  -3.708   5.147  0.00  0.00    +0.000 A 
ATOM     35  C   UNL     1       7.666  -3.936   4.985  0.00  0.00    +0.002 A 
ENDBRANCH  29  30
ENDBRANCH  26  29
ENDBRANCH  25  26
ENDBRANCH   4  25
TORSDOF 8
