REMARK  Name = ZINC48035697
REMARK  6 active torsions:
REMARK  status: ('A' for Active; 'I' for Inactive)
REMARK    1  A    between atoms: C_1  and  N_2
REMARK    2  A    between atoms: N_2  and  C_3
REMARK    3  A    between atoms: C_3  and  C_4
REMARK    4  A    between atoms: C_7  and  C_9
REMARK    5  A    between atoms: N_11  and  C_12
REMARK    6  A    between atoms: C_13  and  C_21
REMARK                            x       y       z     vdW  Elec       q    Type
REMARK                         _______ _______ _______ _____ _____    ______ ____
ROOT
ATOM      1  C   UNL     1      -0.124   0.076  -2.454  0.00  0.00    +0.304 C 
ATOM      2  O   UNL     1       0.042   1.278  -2.462  0.00  0.00    -0.265 OA
ATOM      3  N   UNL     1      -0.329  -0.583  -3.612  0.00  0.00    -0.271 N 
ATOM      4  H   UNL     1      -0.462  -1.544  -3.607  0.00  0.00    +0.156 HD
ENDROOT
BRANCH   3   5
ATOM      5  C   UNL     1      -0.350   0.112  -4.810  0.00  0.00    +0.090 A 
ATOM      6  C   UNL     1      -0.549  -0.374  -6.097  0.00  0.00    +0.084 A 
ATOM      7  C   UNL     1      -0.523   0.578  -7.193  0.00  0.00    -0.018 A 
ATOM      8  C   UNL     1      -0.304   1.870  -6.858  0.00  0.00    -0.004 A 
ATOM      9  S   UNL     1      -0.136   1.860  -5.094  0.00  0.00    -0.077 S 
ATOM     10  C   UNL     1      -0.227   3.046  -7.782  0.00  0.00    +0.043 C 
ATOM     11  C   UNL     1      -0.064   2.525  -9.217  0.00  0.00    +0.005 C 
ATOM     12  C   UNL     1      -1.097   1.421  -9.459  0.00  0.00    +0.005 C 
ATOM     13  C   UNL     1      -0.728   0.176  -8.651  0.00  0.00    +0.037 C 
BRANCH   6  14
ATOM     14  C   UNL     1      -0.772  -1.768  -6.334  0.00  0.00    +0.102 C 
ATOM     15  N   UNL     1      -0.950  -2.875  -6.522  0.00  0.00    -0.191 NA
ENDBRANCH   6  14
ENDBRANCH   3   5
BRANCH   1  18
ATOM     16  C   UNL     1      -0.067   1.461   0.012  0.00  0.00    +0.133 C 
ATOM     17  N   UNL     1      -0.018  -0.003   0.003  0.00  0.00    -0.288 N 
ATOM     18  C   UNL     1      -0.102  -0.673  -1.163  0.00  0.00    +0.302 C 
ATOM     19  O   UNL     1      -0.159  -1.885  -1.164  0.00  0.00    -0.265 OA
BRANCH  17  20
ATOM     20  C   UNL     1       0.123  -0.739   1.262  0.00  0.00    +0.203 C 
BRANCH  20  21
ATOM     21  C   UNL     1      -1.243  -1.039   1.823  0.00  0.00    +0.228 C 
ATOM     22  O   UNL     1      -2.236  -0.675   1.230  0.00  0.00    -0.274 OA
ATOM     23  N   UNL     1      -1.361  -1.713   2.984  0.00  0.00    -0.328 N 
ATOM     24  H   UNL     1      -0.567  -2.005   3.459  0.00  0.00    +0.145 HD
ATOM     25  H   UNL     1      -2.240  -1.907   3.345  0.00  0.00    +0.145 HD
ENDBRANCH  20  21
ENDBRANCH  17  20
ENDBRANCH   1  18
TORSDOF 5
