REMARK  Name = ZINC12239268
REMARK  8 active torsions:
REMARK  status: ('A' for Active; 'I' for Inactive)
REMARK    1  A    between atoms: C_1  and  C_2
REMARK    2  A    between atoms: C_2  and  C_3
REMARK    3  A    between atoms: C_2  and  N_4
REMARK    4  A    between atoms: C_8  and  S_14
REMARK    5  A    between atoms: S_14  and  N_17
REMARK    6  A    between atoms: N_17  and  C_18
REMARK    7  A    between atoms: C_18  and  C_24
REMARK    8  A    between atoms: C_24  and  N_60
REMARK                            x       y       z     vdW  Elec       q    Type
REMARK                         _______ _______ _______ _____ _____    ______ ____
ROOT
ATOM      1  S   UNL     1       1.402   0.258  -1.733  0.00  0.00    +0.059 S 
ATOM      2  O   UNL     1       0.686   1.455  -1.461  0.00  0.00    -0.153 OA
ATOM      3  O   UNL     1       1.196  -0.938  -0.993  0.00  0.00    -0.153 OA
ENDROOT
BRANCH   1   8
ATOM      4  N   UNL     1       0.489  -1.350  -7.329  0.00  0.00    -0.272 N 
ATOM      5  C   UNL     1       0.626  -0.747  -6.080  0.00  0.00    +0.091 A 
ATOM      6  C   UNL     1       0.389   0.536  -5.611  0.00  0.00    +0.031 A 
ATOM      7  C   UNL     1       0.628   0.838  -4.284  0.00  0.00    +0.031 A 
ATOM      8  C   UNL     1       1.101  -0.137  -3.423  0.00  0.00    +0.109 A 
ATOM      9  C   UNL     1       1.340  -1.417  -3.883  0.00  0.00    +0.077 A 
ATOM     10  C   UNL     1       1.110  -1.728  -5.214  0.00  0.00    +0.159 A 
ATOM     11  O   UNL     1       1.242  -2.869  -5.933  0.00  0.00    -0.407 OA
ATOM     12  C   UNL     1       0.871  -2.637  -7.202  0.00  0.00    +0.421 A 
ATOM     13  O   UNL     1       0.878  -3.459  -8.098  0.00  0.00    -0.223 OA
BRANCH   4  15
ATOM     14  C   UNL     1       1.107  -0.779  -9.626  0.00  0.00    +0.031 C 
ATOM     15  C   UNL     1       0.016  -0.704  -8.556  0.00  0.00    +0.088 C 
ATOM     16  C   UNL     1      -1.240  -1.420  -9.058  0.00  0.00    +0.031 C 
ENDBRANCH   4  15
ENDBRANCH   1   8
BRANCH   1  17
ATOM     17  N   UNL     1       3.011   0.628  -1.595  0.00  0.00    -0.186 NA
ATOM     18  H   UNL     1       3.581   0.104  -1.011  0.00  0.00    +0.149 HD
BRANCH  17  19
ATOM     19  C   UNL     1       3.572   1.748  -2.355  0.00  0.00    +0.025 C 
ATOM     20  C   UNL     1       4.928   2.138  -1.762  0.00  0.00    +0.022 C 
ATOM     21  C   UNL     1       4.744   2.554  -0.301  0.00  0.00    +0.002 C 
ATOM     22  C   UNL     1       3.792   3.749  -0.227  0.00  0.00    +0.000 C 
ATOM     23  C   UNL     1       2.437   3.359  -0.820  0.00  0.00    +0.002 C 
ATOM     24  C   UNL     1       2.620   2.943  -2.281  0.00  0.00    +0.022 C 
BRANCH  19  25
ATOM     25  C   UNL     1       3.756   1.331  -3.816  0.00  0.00    -0.055 C 
BRANCH  25  30
ATOM     26  C   UNL     1       4.460  -0.878  -3.075  0.00  0.00    -0.079 C 
ATOM     27  C   UNL     1       5.339  -2.002  -3.681  0.00  0.00    -0.020 C 
ATOM     28  C   UNL     1       5.305  -1.690  -5.194  0.00  0.00    -0.020 C 
ATOM     29  C   UNL     1       4.936  -0.197  -5.289  0.00  0.00    -0.079 C 
ATOM     30  N   UNL     1       4.813   0.280  -3.911  0.00  0.00    +0.381 N 
ATOM     31  H   UNL     1       5.708   0.674  -3.599  0.00  0.00    -0.082 HD
ENDBRANCH  25  30
ENDBRANCH  19  25
ENDBRANCH  17  19
ENDBRANCH   1  17
TORSDOF 6
