REMARK  Name = ZINC09358951
REMARK  7 active torsions:
REMARK  status: ('A' for Active; 'I' for Inactive)
REMARK    1  A    between atoms: C_1  and  O_2
REMARK    2  A    between atoms: O_2  and  C_3
REMARK    3  A    between atoms: C_3  and  C_4
REMARK    4  A    between atoms: C_4  and  N_5
REMARK    5  A    between atoms: C_6  and  C_7
REMARK    6  A    between atoms: C_8  and  O_22
REMARK    7  A    between atoms: N_12  and  C_15
REMARK                            x       y       z     vdW  Elec       q    Type
REMARK                         _______ _______ _______ _____ _____    ______ ____
ROOT
ATOM      1  C   UNL     1      -2.460  -2.788  -0.072  0.00  0.00    +0.199 C 
ATOM      2  C   UNL     1      -3.672  -1.983   0.127  0.00  0.00    +0.198 C 
ATOM      3  N   UNL     1      -3.547  -0.670   0.237  0.00  0.00    -0.131 NA
ATOM      4  C   UNL     1      -2.364  -0.066   0.174  0.00  0.00    +0.339 C 
ATOM      5  O   UNL     1      -2.330   1.147   0.284  0.00  0.00    -0.250 OA
ATOM      6  N   UNL     1      -1.207  -0.720  -0.004  0.00  0.00    -0.192 N 
ATOM      7  C   UNL     1      -1.178  -2.063  -0.139  0.00  0.00    +0.245 C 
ATOM      8  O   UNL     1      -0.128  -2.656  -0.306  0.00  0.00    -0.274 OA
ENDROOT
BRANCH   6   9
ATOM      9  C   UNL     1      -0.008   0.004  -0.058  0.00  0.00    +0.046 A 
ATOM     10  C   UNL     1       0.946  -0.156   0.938  0.00  0.00    +0.025 A 
ATOM     11  C   UNL     1       2.127   0.558   0.883  0.00  0.00    +0.022 A 
ATOM     12  C   UNL     1       2.360   1.433  -0.163  0.00  0.00    +0.041 A 
ATOM     13  C   UNL     1       1.411   1.594  -1.158  0.00  0.00    +0.022 A 
ATOM     14  C   UNL     1       0.228   0.882  -1.107  0.00  0.00    +0.025 A 
ATOM     15 CL   UNL     1       3.845   2.329  -0.230  0.00  0.00    -0.084 Cl
ENDBRANCH   6   9
BRANCH   1  17
ATOM     16  N   UNL     1      -3.711  -4.786  -0.282  0.00  0.00    -0.292 NA
ATOM     17  C   UNL     1      -2.518  -4.168  -0.196  0.00  0.00    +0.099 C 
BRANCH  16  18
ATOM     18  C   UNL     1      -3.773  -6.243  -0.413  0.00  0.00    +0.169 C 
BRANCH  18  19
ATOM     19  C   UNL     1      -5.236  -6.686  -0.492  0.00  0.00    +0.182 C 
BRANCH  19  21
ATOM     20  C   UNL     1      -7.198  -6.532  -1.860  0.00  0.00    +0.194 C 
ATOM     21  O   UNL     1      -5.825  -6.174  -1.689  0.00  0.00    -0.381 OA
ENDBRANCH  19  21
ENDBRANCH  18  19
ENDBRANCH  16  18
ENDBRANCH   1  17
BRANCH   2  22
ATOM     22  O   UNL     1      -4.886  -2.569   0.195  0.00  0.00    -0.496 OA
ATOM     23  H   UNL     1      -5.616  -1.948   0.327  0.00  0.00    +0.293 HD
ENDBRANCH   2  22
TORSDOF 6
