REMARK  Name = ZINC17091040
REMARK  6 active torsions:
REMARK  status: ('A' for Active; 'I' for Inactive)
REMARK    1  A    between atoms: C_3  and  N_10
REMARK    2  A    between atoms: C_5  and  N_7
REMARK    3  A    between atoms: C_11  and  C_13
REMARK    4  A    between atoms: C_17  and  N_18
REMARK    5  A    between atoms: C_19  and  C_21
REMARK    6  A    between atoms: C_27  and  C_29
REMARK                            x       y       z     vdW  Elec       q    Type
REMARK                         _______ _______ _______ _____ _____    ______ ____
ROOT
ATOM      1  C   UNL     1       4.258  -2.528   2.980  0.00  0.00    +0.065 A 
ATOM      2  C   UNL     1       3.846  -3.311   4.121  0.00  0.00    +0.022 A 
ATOM      3  C   UNL     1       2.762  -2.889   4.796  0.00  0.00    +0.048 A 
ATOM      4  S   UNL     1       2.275  -1.421   3.913  0.00  0.00    -0.081 S 
ATOM      5  C   UNL     1       3.493  -1.406   2.683  0.00  0.00    +0.084 A 
ENDROOT
BRANCH   1   7
ATOM      6  N   UNL     1       6.144  -3.994   2.492  0.00  0.00    -0.281 N 
ATOM      7  C   UNL     1       5.425  -2.898   2.174  0.00  0.00    +0.251 C 
ATOM      8  O   UNL     1       5.746  -2.217   1.218  0.00  0.00    -0.270 OA
ATOM      9  H   UNL     1       5.936  -4.493   3.297  0.00  0.00    +0.155 HD
BRANCH   6  12
ATOM     10  C   UNL     1       8.138  -4.634  -0.530  0.00  0.00    +0.004 A 
ATOM     11  C   UNL     1       7.101  -4.226   0.288  0.00  0.00    +0.023 A 
ATOM     12  C   UNL     1       7.189  -4.410   1.661  0.00  0.00    +0.036 A 
ATOM     13  C   UNL     1       8.315  -5.013   2.208  0.00  0.00    +0.056 A 
ATOM     14  C   UNL     1       9.345  -5.423   1.385  0.00  0.00    +0.128 A 
ATOM     15  C   UNL     1       9.257  -5.234   0.018  0.00  0.00    +0.033 A 
BRANCH  14  16
ATOM     16  N   UNL     1      10.544  -6.066   1.966  0.00  0.00    +0.056 N 
ATOM     17  O   UNL     1      10.622  -6.234   3.170  0.00  0.00    -0.126 OA
ATOM     18  O   UNL     1      11.453  -6.428   1.241  0.00  0.00    -0.126 OA
ENDBRANCH  14  16
ENDBRANCH   6  12
ENDBRANCH   1   7
BRANCH   5  19
ATOM     19  N   UNL     1       3.667  -0.493   1.654  0.00  0.00    -0.279 N 
ATOM     20  C   UNL     1       2.816   0.544   1.522  0.00  0.00    +0.221 C 
ATOM     21  O   UNL     1       1.898   0.678   2.303  0.00  0.00    -0.275 OA
ATOM     22  H   UNL     1       4.402  -0.600   1.030  0.00  0.00    +0.155 HD
BRANCH  20  23
ATOM     23  C   UNL     1       3.006   1.537   0.405  0.00  0.00    +0.089 C 
ATOM     24  C   UNL     1       4.378   2.200   0.538  0.00  0.00    +0.013 C 
ATOM     25  C   UNL     1       4.465   2.924   1.884  0.00  0.00    +0.001 C 
ATOM     26  C   UNL     1       3.373   3.992   1.960  0.00  0.00    +0.001 C 
ATOM     27  C   UNL     1       2.001   3.329   1.826  0.00  0.00    +0.015 C 
ATOM     28  C   UNL     1       1.913   2.605   0.481  0.00  0.00    +0.114 C 
BRANCH  28  29
ATOM     29  C   UNL     1       0.561   1.952   0.349  0.00  0.00    +0.360 C 
ATOM     30  O   UNL     1       0.480   0.755   0.209  0.00  0.00    -0.246 OA
ATOM     31  O   UNL     1      -0.552   2.701   0.383  0.00  0.00    -0.246 OA
ENDBRANCH  28  29
ENDBRANCH  20  23
ENDBRANCH   5  19
TORSDOF 6
