REMARK  Name = ZINC33725878
REMARK  5 active torsions:
REMARK  status: ('A' for Active; 'I' for Inactive)
REMARK    1  A    between atoms: C_3  and  N_8
REMARK    2  A    between atoms: N_10  and  C_27
REMARK    3  A    between atoms: C_14  and  C_17
REMARK    4  A    between atoms: N_19  and  C_20
REMARK    5  A    between atoms: C_27  and  C_28
REMARK                            x       y       z     vdW  Elec       q    Type
REMARK                         _______ _______ _______ _____ _____    ______ ____
ROOT
ATOM      1  N   UNL     1       4.582   1.299  -0.341  0.00  0.00    -0.226 NA
ATOM      2  C   UNL     1       5.074   1.288   0.875  0.00  0.00    +0.164 C 
ATOM      3  N   UNL     1       4.487   0.546   1.884  0.00  0.00    -0.246 N 
ATOM      4  C   UNL     1       4.729   0.719   3.174  0.00  0.00    +0.223 C 
ATOM      5  O   UNL     1       4.031   0.078   3.931  0.00  0.00    -0.275 OA
ATOM      6  C   UNL     1       5.744   1.597   3.820  0.00  0.00    +0.120 C 
ATOM      7  C   UNL     1       6.093   2.816   2.963  0.00  0.00    +0.149 C 
ATOM      8  S   UNL     1       6.525   2.217   1.291  0.00  0.00    -0.077 S 
ENDROOT
BRANCH   1  11
ATOM      9  C   UNL     1       0.991   1.854   0.040  0.00  0.00    +0.003 A 
ATOM     10  C   UNL     1       2.352   1.962   0.238  0.00  0.00    +0.028 A 
ATOM     11  C   UNL     1       3.229   1.196  -0.533  0.00  0.00    +0.068 A 
ATOM     12  C   UNL     1       2.722   0.326  -1.500  0.00  0.00    +0.047 A 
ATOM     13  C   UNL     1       1.358   0.228  -1.688  0.00  0.00    +0.043 A 
ATOM     14  C   UNL     1       0.494   0.991  -0.920  0.00  0.00    +0.020 A 
ATOM     15 CL   UNL     1       0.725  -0.853  -2.890  0.00  0.00    -0.083 Cl
ENDBRANCH   1  11
BRANCH   7  16
ATOM     16  C   UNL     1       7.269   3.541   3.564  0.00  0.00    +0.231 C 
ATOM     17  O   UNL     1       8.151   2.916   4.114  0.00  0.00    -0.274 OA
ATOM     18  N   UNL     1       7.341   4.885   3.490  0.00  0.00    -0.285 N 
ATOM     19  H   UNL     1       6.680   5.379   2.981  0.00  0.00    +0.155 HD
BRANCH  18  20
ATOM     20  C   UNL     1       8.371   5.569   4.149  0.00  0.00    +0.034 A 
ATOM     21  C   UNL     1       8.121   6.801   4.739  0.00  0.00    +0.026 A 
ATOM     22  C   UNL     1       9.138   7.473   5.388  0.00  0.00    +0.040 A 
ATOM     23  C   UNL     1      10.406   6.919   5.451  0.00  0.00    +0.124 A 
ATOM     24  C   UNL     1      10.657   5.691   4.864  0.00  0.00    +0.040 A 
ATOM     25  C   UNL     1       9.641   5.012   4.219  0.00  0.00    +0.026 A 
ATOM     26  F   UNL     1      11.399   7.579   6.086  0.00  0.00    -0.205 F 
ENDBRANCH  18  20
ENDBRANCH   7  16
BRANCH   3  27
ATOM     27  C   UNL     1       3.534  -0.499   1.499  0.00  0.00    +0.150 C 
BRANCH  27  28
ATOM     28  C   UNL     1       4.241  -1.829   1.449  0.00  0.00    -0.026 A 
ATOM     29  C   UNL     1       4.855  -2.241   0.280  0.00  0.00    +0.009 A 
ATOM     30  C   UNL     1       5.505  -3.459   0.230  0.00  0.00    +0.050 A 
ATOM     31  C   UNL     1       5.543  -4.272   1.351  0.00  0.00    +0.166 A 
ATOM     32  C   UNL     1       4.925  -3.858   2.528  0.00  0.00    +0.167 A 
ATOM     33  C   UNL     1       4.280  -2.633   2.573  0.00  0.00    +0.054 A 
ATOM     34  O   UNL     1       5.101  -4.824   3.476  0.00  0.00    -0.453 OA
ATOM     35  C   UNL     1       5.478  -6.010   2.752  0.00  0.00    +0.466 C 
ATOM     36  O   UNL     1       6.106  -5.498   1.562  0.00  0.00    -0.453 OA
ENDBRANCH  27  28
ENDBRANCH   3  27
TORSDOF 5
