REMARK  Name = ZINC02732839
REMARK  7 active torsions:
REMARK  status: ('A' for Active; 'I' for Inactive)
REMARK    1  A    between atoms: C_1  and  C_2
REMARK    2  A    between atoms: C_4  and  C_10
REMARK    3  A    between atoms: N_6  and  C_7
REMARK    4  A    between atoms: N_12  and  C_13
REMARK    5  A    between atoms: N_15  and  C_22
REMARK    6  A    between atoms: C_17  and  C_18
REMARK    7  A    between atoms: N_20  and  C_21
REMARK                            x       y       z     vdW  Elec       q    Type
REMARK                         _______ _______ _______ _____ _____    ______ ____
ROOT
ATOM      1  C   UNL     1      -4.199  -0.413   0.002  0.00  0.00    +0.268 C 
ATOM      2  O   UNL     1      -5.088   0.416   0.013  0.00  0.00    -0.268 OA
ATOM      3  N   UNL     1      -2.910  -0.019   0.003  0.00  0.00    -0.277 N 
ATOM      4  H   UNL     1      -2.201  -0.680  -0.005  0.00  0.00    +0.155 HD
ENDROOT
BRANCH   1   8
ATOM      5  C   UNL     1      -6.716  -4.812  -0.035  0.00  0.00    +0.065 C 
ATOM      6  C   UNL     1      -5.640  -3.757  -0.027  0.00  0.00    +0.043 A 
ATOM      7  C   UNL     1      -5.829  -2.417  -0.008  0.00  0.00    +0.057 A 
ATOM      8  C   UNL     1      -4.531  -1.852  -0.011  0.00  0.00    +0.148 A 
ATOM      9  N   UNL     1      -3.675  -2.855  -0.022  0.00  0.00    -0.162 NA
ATOM     10  N   UNL     1      -4.307  -3.974  -0.032  0.00  0.00    -0.208 N 
BRANCH  10  11
ATOM     11  C   UNL     1      -3.672  -5.294  -0.046  0.00  0.00    +0.464 C 
ATOM     12  F   UNL     1      -2.439  -5.226   0.612  0.00  0.00    -0.183 F 
ATOM     13  F   UNL     1      -4.498  -6.216   0.605  0.00  0.00    -0.183 F 
ENDBRANCH  10  11
ENDBRANCH   1   8
BRANCH   3  14
ATOM     14  C   UNL     1      -2.595   1.348   0.016  0.00  0.00    +0.084 A 
ATOM     15  C   UNL     1      -3.464   2.394   0.032  0.00  0.00    +0.132 A 
ATOM     16  N   UNL     1      -2.720   3.530   0.034  0.00  0.00    -0.272 N 
ATOM     17  N   UNL     1      -1.468   3.240   0.026  0.00  0.00    -0.165 NA
ATOM     18  C   UNL     1      -1.302   1.932   0.019  0.00  0.00    +0.168 A 
ATOM     19  C   UNL     1      -3.266   4.889   0.044  0.00  0.00    +0.172 C 
BRANCH  18  20
ATOM     20  C   UNL     1      -0.014   1.212   0.009  0.00  0.00    +0.266 C 
ATOM     21  O   UNL     1       0.002  -0.004   0.002  0.00  0.00    -0.268 OA
ATOM     22  N   UNL     1       1.143   1.901   0.001  0.00  0.00    -0.313 N 
ATOM     23  C   UNL     1       2.422   1.186  -0.015  0.00  0.00    +0.128 C 
ATOM     24  H   UNL     1       1.130   2.871   0.007  0.00  0.00    +0.149 HD
ENDBRANCH  18  20
ENDBRANCH   3  14
TORSDOF 4
