REMARK  Name = ZINC13687287
REMARK  3 active torsions:
REMARK  status: ('A' for Active; 'I' for Inactive)
REMARK    1  A    between atoms: C_1  and  N_2
REMARK    2  A    between atoms: C_4  and  C_11
REMARK    3  A    between atoms: N_12  and  N_13
REMARK                            x       y       z     vdW  Elec       q    Type
REMARK                         _______ _______ _______ _____ _____    ______ ____
ROOT
ATOM      1  C   UNL     1      -0.018   1.461   0.010  0.00  0.00    +0.149 C 
ATOM      2  N   UNL     1       0.002  -0.004   0.002  0.00  0.00    -0.349 N 
ATOM      3  C   UNL     1       0.008  -0.777  -1.121  0.00  0.00    +0.096 A 
ATOM      4  C   UNL     1       0.027  -2.092  -0.772  0.00  0.00    +0.020 A 
ATOM      5  C   UNL     1       0.034  -2.136   0.701  0.00  0.00    +0.008 A 
ATOM      6  C   UNL     1       0.024  -0.798   1.129  0.00  0.00    +0.049 A 
ATOM      7  C   UNL     1       0.032  -0.518   2.491  0.00  0.00    +0.026 A 
ATOM      8  C   UNL     1       0.054  -1.548   3.405  0.00  0.00    +0.002 A 
ATOM      9  C   UNL     1       0.069  -2.869   2.981  0.00  0.00    +0.001 A 
ATOM     10  C   UNL     1       0.051  -3.168   1.636  0.00  0.00    +0.010 A 
ENDROOT
BRANCH   4  11
ATOM     11  C   UNL     1       0.039  -3.245  -1.688  0.00  0.00    +0.142 C 
ATOM     12  N   UNL     1       0.057  -4.453  -1.210  0.00  0.00    -0.180 NA
BRANCH  12  13
ATOM     13  N   UNL     1       0.068  -5.550  -2.081  0.00  0.00    -0.258 N 
ATOM     14  C   UNL     1       0.087  -6.821  -1.579  0.00  0.00    +0.156 C 
ATOM     15  N   UNL     1       0.095  -7.021  -0.226  0.00  0.00    -0.338 N 
ATOM     16  S   UNL     1       0.100  -8.121  -2.611  0.00  0.00    -0.015 SA
ATOM     17  H   UNL     1       0.087  -6.261   0.377  0.00  0.00    +0.144 HD
ATOM     18  H   UNL     1       0.108  -7.923   0.130  0.00  0.00    +0.144 HD
ATOM     19  H   UNL     1       0.062  -5.408  -3.041  0.00  0.00    +0.191 HD
ENDBRANCH  12  13
ENDBRANCH   4  11
TORSDOF 2
