REMARK  Name = ZINC00492981
REMARK  6 active torsions:
REMARK  status: ('A' for Active; 'I' for Inactive)
REMARK    1  A    between atoms: C_1  and  C_2
REMARK    2  A    between atoms: C_3  and  C_22
REMARK    3  A    between atoms: C_4  and  C_12
REMARK    4  A    between atoms: C_6  and  C_10
REMARK    5  A    between atoms: C_7  and  N_9
REMARK    6  A    between atoms: C_22  and  C_24
REMARK                            x       y       z     vdW  Elec       q    Type
REMARK                         _______ _______ _______ _____ _____    ______ ____
ROOT
ATOM      1  C   UNL     1       0.653   1.214   0.073  0.00  0.00    +0.086 C 
ATOM      2  C   UNL     1       0.388  -0.268   0.003  0.00  0.00    +0.112 C 
ATOM      3  C   UNL     1      -0.881  -0.708   0.062  0.00  0.00    +0.045 C 
ATOM      4  C   UNL     1      -1.198  -2.177  -0.003  0.00  0.00    +0.102 C 
ATOM      5  C   UNL     1      -0.008  -2.936  -0.525  0.00  0.00    +0.098 C 
ATOM      6  C   UNL     1       1.222  -2.367  -0.551  0.00  0.00    +0.198 C 
ATOM      7  O   UNL     1       1.425  -1.109  -0.122  0.00  0.00    -0.445 OA
ENDROOT
BRANCH   4   8
ATOM      8  C   UNL     1      -1.542  -2.676   1.377  0.00  0.00    -0.027 A 
ATOM      9  C   UNL     1      -0.690  -2.458   2.416  0.00  0.00    +0.005 A 
ATOM     10  C   UNL     1      -0.991  -2.912   3.698  0.00  0.00    +0.001 A 
ATOM     11  C   UNL     1      -2.145  -3.587   3.949  0.00  0.00    +0.008 A 
ATOM     12  C   UNL     1      -3.050  -3.832   2.902  0.00  0.00    -0.018 A 
ATOM     13  C   UNL     1      -2.746  -3.364   1.598  0.00  0.00    -0.014 A 
ATOM     14  C   UNL     1      -3.654  -3.603   0.552  0.00  0.00    +0.009 A 
ATOM     15  C   UNL     1      -4.811  -4.274   0.805  0.00  0.00    +0.001 A 
ATOM     16  C   UNL     1      -5.112  -4.728   2.087  0.00  0.00    +0.001 A 
ATOM     17  C   UNL     1      -4.252  -4.526   3.122  0.00  0.00    +0.008 A 
ENDBRANCH   4   8
BRANCH   6  18
ATOM     18  N   UNL     1       2.284  -3.090  -1.033  0.00  0.00    -0.328 N 
ATOM     19  H   UNL     1       2.151  -3.997  -1.349  0.00  0.00    +0.145 HD
ATOM     20  H   UNL     1       3.170  -2.694  -1.057  0.00  0.00    +0.145 HD
ENDBRANCH   6  18
BRANCH   3  21
ATOM     21  C   UNL     1      -1.930   0.221   0.188  0.00  0.00    +0.160 C 
ATOM     22  O   UNL     1      -1.685   1.410   0.242  0.00  0.00    -0.293 OA
ATOM     23  C   UNL     1      -3.357  -0.258   0.255  0.00  0.00    +0.091 C 
ENDBRANCH   3  21
BRANCH   5  24
ATOM     24  C   UNL     1      -0.177  -4.277  -0.998  0.00  0.00    +0.101 C 
ATOM     25  N   UNL     1      -0.311  -5.340  -1.374  0.00  0.00    -0.191 NA
ENDBRANCH   5  24
TORSDOF 4
