REMARK  Name = ZINC15639223
REMARK  6 active torsions:
REMARK  status: ('A' for Active; 'I' for Inactive)
REMARK    1  A    between atoms: C_4  and  N_17
REMARK    2  A    between atoms: C_5  and  C_7
REMARK    3  A    between atoms: N_9  and  C_10
REMARK    4  A    between atoms: C_10  and  C_11
REMARK    5  A    between atoms: C_18  and  C_20
REMARK    6  A    between atoms: C_21  and  C_22
REMARK                            x       y       z     vdW  Elec       q    Type
REMARK                         _______ _______ _______ _____ _____    ______ ____
ROOT
ATOM      1  N   UNL     1       3.654   2.339   0.019  0.00  0.00    -0.281 N 
ATOM      2  C   UNL     1       4.823   1.897  -0.485  0.00  0.00    +0.241 C 
ATOM      3  O   UNL     1       4.873   0.821  -1.052  0.00  0.00    -0.270 OA
ATOM      4  H   UNL     1       3.595   3.230   0.399  0.00  0.00    +0.155 HD
ENDROOT
BRANCH   1   8
ATOM      5  C   UNL     1       0.292  -0.126  -0.049  0.00  0.00    +0.001 A 
ATOM      6  C   UNL     1       1.564  -0.678  -0.058  0.00  0.00    +0.002 A 
ATOM      7  C   UNL     1       2.678   0.136  -0.035  0.00  0.00    +0.024 A 
ATOM      8  C   UNL     1       2.532   1.517  -0.003  0.00  0.00    +0.046 A 
ATOM      9  C   UNL     1       1.246   2.078   0.006  0.00  0.00    +0.058 A 
ATOM     10  C   UNL     1       0.128   1.242  -0.017  0.00  0.00    +0.015 A 
BRANCH   9  11
ATOM     11  C   UNL     1       1.076   3.543   0.040  0.00  0.00    +0.246 C 
ATOM     12  O   UNL     1       2.048   4.269  -0.036  0.00  0.00    -0.270 OA
ATOM     13  N   UNL     1      -0.156   4.076   0.156  0.00  0.00    -0.309 N 
ATOM     14  H   UNL     1      -0.931   3.497   0.217  0.00  0.00    +0.149 HD
BRANCH  13  15
ATOM     15  C   UNL     1      -0.325   5.531   0.189  0.00  0.00    +0.136 C 
BRANCH  15  16
ATOM     16  C   UNL     1      -1.810   5.870   0.325  0.00  0.00    +0.135 C 
ATOM     17  C   UNL     1      -1.998   7.399   0.361  0.00  0.00    +0.035 C 
ATOM     18  C   UNL     1      -2.932   7.695  -0.838  0.00  0.00    +0.031 C 
ATOM     19  C   UNL     1      -3.596   6.315  -1.081  0.00  0.00    +0.160 C 
ATOM     20  O   UNL     1      -2.530   5.377  -0.818  0.00  0.00    -0.375 OA
ENDBRANCH  15  16
ENDBRANCH  13  15
ENDBRANCH   9  11
ENDBRANCH   1   8
BRANCH   2  21
ATOM     21  C   UNL     1       6.030   2.711  -0.352  0.00  0.00    +0.068 C 
ATOM     22  C   UNL     1       7.202   2.268  -0.858  0.00  0.00    +0.013 C 
BRANCH  22  23
ATOM     23  C   UNL     1       8.416   3.086  -0.725  0.00  0.00    -0.020 A 
ATOM     24  C   UNL     1       9.631   2.629  -1.249  0.00  0.00    +0.057 A 
ATOM     25  C   UNL     1      10.765   3.404  -1.118  0.00  0.00    +0.164 A 
ATOM     26  C   UNL     1      10.702   4.633  -0.470  0.00  0.00    +0.180 A 
ATOM     27  C   UNL     1       9.499   5.091   0.051  0.00  0.00    +0.087 A 
ATOM     28  C   UNL     1       8.358   4.326  -0.079  0.00  0.00    +0.031 A 
ATOM     29 CL   UNL     1       9.429   6.626   0.858  0.00  0.00    -0.080 Cl
ATOM     30  O   UNL     1      11.832   5.387  -0.348  0.00  0.00    -0.487 OA
ATOM     31  C   UNL     1      12.844   4.864   0.514  0.00  0.00    +0.232 C 
ATOM     32  C   UNL     1      13.725   3.871  -0.228  0.00  0.00    +0.082 C 
ATOM     33  C   UNL     1      12.959   2.632  -0.666  0.00  0.00    +0.232 C 
ATOM     34  O   UNL     1      11.955   2.970  -1.626  0.00  0.00    -0.488 OA
ENDBRANCH  22  23
ENDBRANCH   2  21
TORSDOF 6
