REMARK  Name = ZINC55575467
REMARK  8 active torsions:
REMARK  status: ('A' for Active; 'I' for Inactive)
REMARK    1  A    between atoms: C_1  and  C_2
REMARK    2  A    between atoms: C_3  and  C_15
REMARK    3  A    between atoms: N_10  and  C_11
REMARK    4  A    between atoms: C_11  and  C_12
REMARK    5  A    between atoms: C_15  and  N_16
REMARK    6  A    between atoms: N_16  and  C_17
REMARK    7  A    between atoms: C_17  and  C_19
REMARK    8  A    between atoms: C_17  and  C_20
REMARK                            x       y       z     vdW  Elec       q    Type
REMARK                         _______ _______ _______ _____ _____    ______ ____
ROOT
ATOM      1  C   UNL     1      -0.018   1.503   0.010  0.00  0.00    +0.064 C 
ATOM      2  C   UNL     1       0.002  -0.004   0.002  0.00  0.00    +0.019 A 
ATOM      3  C   UNL     1       0.007  -0.769  -1.101  0.00  0.00    -0.036 A 
ATOM      4  C   UNL     1       0.029  -2.164  -0.655  0.00  0.00    +0.001 A 
ATOM      5  C   UNL     1       0.043  -3.394  -1.316  0.00  0.00    +0.010 A 
ATOM      6  C   UNL     1       0.063  -4.552  -0.593  0.00  0.00    +0.001 A 
ATOM      7  C   UNL     1       0.070  -4.517   0.795  0.00  0.00    +0.002 A 
ATOM      8  C   UNL     1       0.056  -3.315   1.468  0.00  0.00    +0.026 A 
ATOM      9  C   UNL     1       0.036  -2.122   0.751  0.00  0.00    +0.050 A 
ATOM     10  N   UNL     1       0.024  -0.795   1.118  0.00  0.00    -0.335 N 
ENDROOT
BRANCH  10  11
ATOM     11  C   UNL     1       0.031  -0.304   2.498  0.00  0.00    +0.217 C 
BRANCH  11  12
ATOM     12  C   UNL     1      -1.387  -0.155   2.985  0.00  0.00    +0.230 C 
ATOM     13  O   UNL     1      -2.313  -0.432   2.252  0.00  0.00    -0.274 OA
ATOM     14  N   UNL     1      -1.627   0.286   4.236  0.00  0.00    -0.328 N 
ATOM     15  H   UNL     1      -0.887   0.507   4.823  0.00  0.00    +0.145 HD
ATOM     16  H   UNL     1      -2.540   0.382   4.550  0.00  0.00    +0.145 HD
ENDBRANCH  11  12
ENDBRANCH  10  11
BRANCH   3  17
ATOM     17  C   UNL     1      -0.006  -0.284  -2.528  0.00  0.00    -0.043 C 
BRANCH  17  18
ATOM     18  N   UNL     1       1.374  -0.106  -2.999  0.00  0.00    +0.387 N 
ATOM     19  H   UNL     1       1.843   0.572  -2.417  0.00  0.00    -0.085 HD
ATOM     20  H   UNL     1       1.862  -0.988  -2.948  0.00  0.00    -0.085 HD
BRANCH  18  21
ATOM     21  C   UNL     1       1.360   0.366  -4.389  0.00  0.00    -0.023 C 
ATOM     22  C   UNL     1       0.761  -0.716  -5.290  0.00  0.00    -0.007 C 
BRANCH  21  23
ATOM     23  C   UNL     1       2.769   0.665  -4.832  0.00  0.00    +0.046 A 
ATOM     24  C   UNL     1       3.123   1.526  -5.800  0.00  0.00    +0.114 A 
ATOM     25  N   UNL     1       4.512   1.509  -5.896  0.00  0.00    -0.300 N 
ATOM     26  C   UNL     1       5.499   2.118  -6.641  0.00  0.00    +0.100 A 
ATOM     27  C   UNL     1       6.783   1.831  -6.435  0.00  0.00    +0.067 A 
ATOM     28  S   UNL     1       6.686   0.630  -5.117  0.00  0.00    -0.058 S 
ATOM     29  C   UNL     1       4.917   0.609  -4.947  0.00  0.00    +0.177 A 
ATOM     30  N   UNL     1       3.885   0.120  -4.322  0.00  0.00    -0.228 NA
ENDBRANCH  21  23
ENDBRANCH  18  21
ENDBRANCH  17  18
ENDBRANCH   3  17
TORSDOF 6
