REMARK  Name = ZINC13020498
REMARK  8 active torsions:
REMARK  status: ('A' for Active; 'I' for Inactive)
REMARK    1  A    between atoms: C_1  and  C_2
REMARK    2  A    between atoms: C_5  and  C_8
REMARK    3  A    between atoms: C_11  and  S_16
REMARK    4  A    between atoms: N_12  and  C_13
REMARK    5  A    between atoms: C_13  and  C_14
REMARK    6  A    between atoms: S_16  and  C_17
REMARK    7  A    between atoms: C_17  and  C_18
REMARK    8  A    between atoms: N_23  and  C_24
REMARK                            x       y       z     vdW  Elec       q    Type
REMARK                         _______ _______ _______ _____ _____    ______ ____
ROOT
ATOM      1  C   UNL     1      -0.179  -0.123  -0.086  0.00  0.00    +0.165 A 
ATOM      2  N   UNL     1       0.961  -0.750   0.093  0.00  0.00    -0.128 NA
ATOM      3  N   UNL     1       0.787  -2.018  -0.028  0.00  0.00    -0.122 NA
ATOM      4  C   UNL     1      -0.475  -2.278  -0.291  0.00  0.00    +0.193 A 
ATOM      5  N   UNL     1      -1.134  -1.082  -0.332  0.00  0.00    -0.291 N 
ENDROOT
BRANCH   1  10
ATOM      6  C   UNL     1      -1.023   5.565   0.142  0.00  0.00    +0.044 C 
ATOM      7  C   UNL     1      -0.802   4.075   0.082  0.00  0.00    -0.050 A 
ATOM      8  C   UNL     1       0.344   3.527   0.631  0.00  0.00    +0.004 A 
ATOM      9  C   UNL     1       0.552   2.164   0.580  0.00  0.00    +0.012 A 
ATOM     10  C   UNL     1      -0.395   1.338  -0.028  0.00  0.00    +0.019 A 
ATOM     11  C   UNL     1      -1.546   1.899  -0.585  0.00  0.00    +0.012 A 
ATOM     12  C   UNL     1      -1.745   3.263  -0.522  0.00  0.00    +0.004 A 
ENDBRANCH   1  10
BRANCH   5  13
ATOM     13  C   UNL     1      -2.560  -0.866  -0.588  0.00  0.00    +0.250 C 
BRANCH  13  14
ATOM     14  C   UNL     1      -2.780  -0.661  -2.065  0.00  0.00    +0.375 C 
ATOM     15  O   UNL     1      -1.842  -0.693  -2.825  0.00  0.00    -0.244 OA
ATOM     16  O   UNL     1      -4.019  -0.444  -2.535  0.00  0.00    -0.244 OA
ENDBRANCH  13  14
ENDBRANCH   5  13
BRANCH   4  17
ATOM     17  S   UNL     1      -1.184  -3.871  -0.538  0.00  0.00    -0.077 S 
BRANCH  17  18
ATOM     18  C   UNL     1       0.285  -4.906  -0.323  0.00  0.00    +0.173 C 
BRANCH  18  19
ATOM     19  C   UNL     1      -0.091  -6.355  -0.496  0.00  0.00    +0.231 C 
ATOM     20  O   UNL     1      -1.240  -6.658  -0.740  0.00  0.00    -0.274 OA
ATOM     21  N   UNL     1       0.848  -7.314  -0.379  0.00  0.00    -0.239 N 
ATOM     22  C   UNL     1       0.512  -8.610  -0.533  0.00  0.00    +0.310 C 
ATOM     23  O   UNL     1      -0.640  -8.914  -0.777  0.00  0.00    -0.252 OA
ATOM     24  N   UNL     1       1.451  -9.569  -0.416  0.00  0.00    -0.269 N 
ATOM     25  H   UNL     1       1.767  -7.072  -0.184  0.00  0.00    +0.159 HD
ATOM     26  H   UNL     1       2.353  -9.334  -0.146  0.00  0.00    +0.156 HD
BRANCH  24  27
ATOM     27  C   UNL     1       1.126 -10.903  -0.684  0.00  0.00    +0.035 A 
ATOM     28  C   UNL     1       1.734 -11.925   0.034  0.00  0.00    +0.023 A 
ATOM     29  C   UNL     1       1.407 -13.241  -0.229  0.00  0.00    +0.002 A 
ATOM     30  C   UNL     1       0.483 -13.542  -1.214  0.00  0.00    +0.000 A 
ATOM     31  C   UNL     1      -0.118 -12.527  -1.935  0.00  0.00    +0.002 A 
ATOM     32  C   UNL     1       0.200 -11.209  -1.673  0.00  0.00    +0.023 A 
ENDBRANCH  24  27
ENDBRANCH  18  19
ENDBRANCH  17  18
ENDBRANCH   4  17
TORSDOF 7
