REMARK  Name = ZINC39712363
REMARK  6 active torsions:
REMARK  status: ('A' for Active; 'I' for Inactive)
REMARK    1  A    between atoms: C_1  and  C_2
REMARK    2  A    between atoms: C_2  and  C_4
REMARK    3  A    between atoms: C_2  and  S_20
REMARK    4  A    between atoms: C_9  and  C_14
REMARK    5  A    between atoms: S_20  and  C_21
REMARK    6  A    between atoms: N_26  and  C_27
REMARK                            x       y       z     vdW  Elec       q    Type
REMARK                         _______ _______ _______ _____ _____    ______ ____
ROOT
ATOM      1  C   UNL     1      -1.412  -0.526   0.013  0.00  0.00    +0.136 C 
ATOM      2  N   UNL     1      -1.774  -1.361  -0.931  0.00  0.00    -0.160 NA
ATOM      3  C   UNL     1      -3.006  -1.877  -1.004  0.00  0.00    +0.272 C 
ATOM      4  O   UNL     1      -3.311  -2.653  -1.895  0.00  0.00    -0.268 OA
ATOM      5  C   UNL     1      -3.995  -1.476   0.038  0.00  0.00    +0.075 C 
ATOM      6  C   UNL     1      -5.304  -1.870   0.169  0.00  0.00    -0.015 C 
ATOM      7  C   UNL     1      -6.082  -1.300   1.332  0.00  0.00    +0.112 C 
ATOM      8  S   UNL     1      -4.826  -0.229   2.140  0.00  0.00    -0.100 S 
ATOM      9  C   UNL     1      -3.469  -0.536   1.039  0.00  0.00    +0.112 C 
ATOM     10  N   UNL     1      -2.223  -0.122   0.976  0.00  0.00    -0.226 NA
ENDROOT
BRANCH   6  11
ATOM     11  C   UNL     1      -5.919  -2.802  -0.777  0.00  0.00    -0.020 A 
ATOM     12  C   UNL     1      -6.087  -2.435  -2.121  0.00  0.00    +0.008 A 
ATOM     13  C   UNL     1      -6.666  -3.320  -3.004  0.00  0.00    +0.001 A 
ATOM     14  C   UNL     1      -7.083  -4.567  -2.569  0.00  0.00    +0.000 A 
ATOM     15  C   UNL     1      -6.922  -4.938  -1.244  0.00  0.00    +0.001 A 
ATOM     16  C   UNL     1      -6.339  -4.070  -0.348  0.00  0.00    +0.008 A 
ENDBRANCH   6  11
BRANCH   1  18
ATOM     17  C   UNL     1      -0.019   1.526   0.010  0.00  0.00    +0.027 C 
ATOM     18  C   UNL     1       0.002  -0.004   0.002  0.00  0.00    +0.112 C 
BRANCH  18  19
ATOM     19  S   UNL     1       0.851  -0.589  -1.490  0.00  0.00    -0.106 S 
BRANCH  19  20
ATOM     20  C   UNL     1       2.558  -0.012  -1.279  0.00  0.00    +0.260 C 
ATOM     21  N   UNL     1       2.594   1.449  -1.078  0.00  0.00    -0.218 N 
ATOM     22  N   UNL     1       3.149   1.647   0.192  0.00  0.00    -0.063 NA
ATOM     23  N   UNL     1       3.436   0.593   0.753  0.00  0.00    -0.056 NA
ATOM     24  N   UNL     1       3.135  -0.535  -0.026  0.00  0.00    -0.174 N 
ATOM     25  H   UNL     1       2.295   2.132  -1.698  0.00  0.00    +0.173 HD
BRANCH  24  26
ATOM     26  C   UNL     1       3.335  -1.874   0.313  0.00  0.00    +0.056 A 
ATOM     27  C   UNL     1       2.982  -2.879  -0.580  0.00  0.00    +0.025 A 
ATOM     28  C   UNL     1       3.183  -4.203  -0.241  0.00  0.00    +0.002 A 
ATOM     29  C   UNL     1       3.733  -4.529   0.985  0.00  0.00    +0.000 A 
ATOM     30  C   UNL     1       4.086  -3.531   1.876  0.00  0.00    +0.002 A 
ATOM     31  C   UNL     1       3.894  -2.205   1.541  0.00  0.00    +0.025 A 
ENDBRANCH  24  26
ENDBRANCH  19  20
ENDBRANCH  18  19
ENDBRANCH   1  18
TORSDOF 5
