REMARK  Name = ZINC09074164
REMARK  7 active torsions:
REMARK  status: ('A' for Active; 'I' for Inactive)
REMARK    1  A    between atoms: C_1  and  C_2
REMARK    2  A    between atoms: C_2  and  C_4
REMARK    3  A    between atoms: C_2  and  O_16
REMARK    4  A    between atoms: N_6  and  C_7
REMARK    5  A    between atoms: C_11  and  N_13
REMARK    6  A    between atoms: O_16  and  C_17
REMARK    7  A    between atoms: C_17  and  C_19
REMARK                            x       y       z     vdW  Elec       q    Type
REMARK                         _______ _______ _______ _____ _____    ______ ____
ROOT
ATOM      1  C   UNL     1       6.553  -0.956   1.357  0.00  0.00    +0.062 C 
ATOM      2  C   UNL     1       6.096  -0.689  -0.078  0.00  0.00    +0.259 C 
ENDROOT
BRANCH   2   3
ATOM      3  C   UNL     1       7.155   0.100  -0.804  0.00  0.00    +0.258 C 
ATOM      4  O   UNL     1       6.919   1.229  -1.180  0.00  0.00    -0.271 OA
ATOM      5  N   UNL     1       8.364  -0.449  -1.035  0.00  0.00    -0.282 N 
ATOM      6  H   UNL     1       8.575  -1.325  -0.676  0.00  0.00    +0.155 HD
BRANCH   5   7
ATOM      7  C   UNL     1       9.314   0.245  -1.792  0.00  0.00    +0.036 A 
ATOM      8  C   UNL     1       9.397   1.629  -1.706  0.00  0.00    +0.023 A 
ATOM      9  C   UNL     1      10.336   2.311  -2.455  0.00  0.00    +0.004 A 
ATOM     10  C   UNL     1      11.193   1.617  -3.290  0.00  0.00    +0.033 A 
ATOM     11  C   UNL     1      11.113   0.239  -3.378  0.00  0.00    +0.128 A 
ATOM     12  C   UNL     1      10.180  -0.449  -2.627  0.00  0.00    +0.056 A 
BRANCH  11  13
ATOM     13  N   UNL     1      12.032  -0.499  -4.273  0.00  0.00    +0.056 N 
ATOM     14  O   UNL     1      12.859   0.107  -4.931  0.00  0.00    -0.126 OA
ATOM     15  O   UNL     1      11.962  -1.712  -4.351  0.00  0.00    -0.126 OA
ENDBRANCH  11  13
ENDBRANCH   5   7
ENDBRANCH   2   3
BRANCH   2  16
ATOM     16  O   UNL     1       4.857   0.068  -0.058  0.00  0.00    -0.449 OA
BRANCH  16  17
ATOM     17  C   UNL     1       3.709  -0.637  -0.041  0.00  0.00    +0.340 C 
ATOM     18  O   UNL     1       3.742  -1.852  -0.043  0.00  0.00    -0.245 OA
BRANCH  17  19
ATOM     19  C   UNL     1       2.413   0.064  -0.021  0.00  0.00    +0.061 A 
ATOM     20  C   UNL     1       2.376   1.462  -0.018  0.00  0.00    +0.016 A 
ATOM     21  C   UNL     1       1.164   2.115  -0.001  0.00  0.00    +0.017 A 
ATOM     22  C   UNL     1      -0.018   1.386   0.013  0.00  0.00    +0.030 A 
ATOM     23  C   UNL     1       0.003  -0.013   0.015  0.00  0.00    +0.048 A 
ATOM     24  C   UNL     1       1.224  -0.668  -0.003  0.00  0.00    +0.039 A 
ATOM     25  N   UNL     1      -1.173  -0.759   0.042  0.00  0.00    -0.284 N 
ATOM     26  C   UNL     1      -2.378  -0.341  -0.334  0.00  0.00    +0.227 C 
ATOM     27  O   UNL     1      -3.304  -1.122  -0.261  0.00  0.00    -0.275 OA
ATOM     28  C   UNL     1      -2.657   1.046  -0.845  0.00  0.00    +0.170 C 
ATOM     29  S   UNL     1      -1.575   2.219   0.023  0.00  0.00    -0.114 S 
ATOM     30  H   UNL     1      -1.106  -1.671   0.365  0.00  0.00    +0.155 HD
ENDBRANCH  17  19
ENDBRANCH  16  17
ENDBRANCH   2  16
TORSDOF 6
