REMARK  Name = ZINC59255211
REMARK  3 active torsions:
REMARK  status: ('A' for Active; 'I' for Inactive)
REMARK    1  A    between atoms: C_3  and  C_18
REMARK    2  A    between atoms: C_5  and  N_7
REMARK    3  A    between atoms: C_8  and  N_17
REMARK                            x       y       z     vdW  Elec       q    Type
REMARK                         _______ _______ _______ _____ _____    ______ ____
ROOT
ATOM      1  N   UNL     1       1.222  -2.082  -0.011  0.00  0.00    -0.277 N 
ATOM      2  C   UNL     1       0.559  -2.770  -1.000  0.00  0.00    +0.122 A 
ATOM      3  C   UNL     1       0.602  -4.137  -1.010  0.00  0.00    +0.120 A 
ATOM      4  C   UNL     1       1.325  -4.804  -0.008  0.00  0.00    +0.268 A 
ATOM      5  O   UNL     1       1.378  -6.022   0.003  0.00  0.00    -0.267 OA
ATOM      6  N   UNL     1       1.960  -4.090   0.942  0.00  0.00    -0.301 N 
ATOM      7  H   UNL     1       2.460  -4.549   1.635  0.00  0.00    +0.171 HD
ATOM      8  C   UNL     1       1.912  -2.745   0.935  0.00  0.00    +0.167 A 
ATOM      9  S   UNL     1       2.735  -1.866   2.152  0.00  0.00    -0.012 S 
ATOM     10 BR   UNL     1      -0.298  -5.114  -2.355  0.00  0.00    -0.041 Br
ENDROOT
BRANCH   1  15
ATOM     11  C   UNL     1       0.130   1.358   0.701  0.00  0.00    +0.003 A 
ATOM     12  C   UNL     1       1.108   2.084   0.046  0.00  0.00    +0.012 A 
ATOM     13  C   UNL     1       2.124   1.431  -0.628  0.00  0.00    +0.057 A 
ATOM     14  C   UNL     1       2.164   0.050  -0.648  0.00  0.00    +0.038 A 
ATOM     15  C   UNL     1       1.184  -0.681   0.009  0.00  0.00    +0.051 A 
ATOM     16  C   UNL     1       0.165  -0.022   0.684  0.00  0.00    +0.026 A 
BRANCH  13  17
ATOM     17  C   UNL     1       3.187   2.226  -1.341  0.00  0.00    +0.417 C 
ATOM     18  F   UNL     1       2.935   3.592  -1.180  0.00  0.00    -0.166 F 
ATOM     19  F   UNL     1       4.441   1.916  -0.802  0.00  0.00    -0.166 F 
ATOM     20  F   UNL     1       3.173   1.906  -2.703  0.00  0.00    -0.166 F 
ENDBRANCH  13  17
ENDBRANCH   1  15
BRANCH   2  21
ATOM     21  N   UNL     1      -0.140  -2.092  -1.967  0.00  0.00    -0.343 N 
ATOM     22  H   UNL     1      -0.099  -1.124  -2.006  0.00  0.00    +0.144 HD
ATOM     23  H   UNL     1      -0.676  -2.581  -2.611  0.00  0.00    +0.144 HD
ENDBRANCH   2  21
TORSDOF 3
