REMARK  Name = ZINC45351842
REMARK  8 active torsions:
REMARK  status: ('A' for Active; 'I' for Inactive)
REMARK    1  A    between atoms: C_1  and  C_2
REMARK    2  A    between atoms: C_5  and  C_8
REMARK    3  A    between atoms: C_13  and  S_17
REMARK    4  A    between atoms: S_17  and  C_18
REMARK    5  A    between atoms: C_21  and  C_24
REMARK    6  A    between atoms: N_22  and  C_23
REMARK    7  A    between atoms: C_24  and  C_25
REMARK    8  A    between atoms: C_25  and  C_26
REMARK                            x       y       z     vdW  Elec       q    Type
REMARK                         _______ _______ _______ _____ _____    ______ ____
ROOT
ATOM      1  C   UNL     1       0.058  -4.255  -0.021  0.00  0.00    +0.001 A 
ATOM      2  C   UNL     1      -0.887  -4.953  -0.693  0.00  0.00    +0.056 A 
ATOM      3  S   UNL     1      -0.435  -6.652  -0.402  0.00  0.00    -0.076 S 
ATOM      4  C   UNL     1       1.000  -6.393   0.606  0.00  0.00    +0.113 A 
ATOM      5  C   UNL     1       1.100  -4.988   0.689  0.00  0.00    +0.048 A 
ATOM      6  C   UNL     1       2.192  -4.499   1.454  0.00  0.00    +0.116 A 
ATOM      7  N   UNL     1       3.024  -5.361   2.018  0.00  0.00    -0.228 NA
ATOM      8  C   UNL     1       2.873  -6.667   1.894  0.00  0.00    +0.223 A 
ATOM      9  N   UNL     1       1.873  -7.180   1.204  0.00  0.00    -0.228 NA
ENDROOT
BRANCH   1  14
ATOM     10  C   UNL     1      -0.015   1.503   0.013  0.00  0.00    +0.044 C 
ATOM     11  C   UNL     1       0.004  -0.004   0.003  0.00  0.00    -0.050 A 
ATOM     12  C   UNL     1      -1.087  -0.710   0.479  0.00  0.00    +0.004 A 
ATOM     13  C   UNL     1      -1.075  -2.090   0.473  0.00  0.00    +0.009 A 
ATOM     14  C   UNL     1       0.039  -2.772  -0.013  0.00  0.00    -0.017 A 
ATOM     15  C   UNL     1       1.135  -2.056  -0.491  0.00  0.00    +0.009 A 
ATOM     16  C   UNL     1       1.110  -0.676  -0.486  0.00  0.00    +0.004 A 
ENDBRANCH   1  14
BRANCH   6  17
ATOM     17  S   UNL     1       2.438  -2.765   1.649  0.00  0.00    -0.030 S 
BRANCH  17  18
ATOM     18  C   UNL     1       3.882  -2.649   2.652  0.00  0.00    +0.197 A 
ATOM     19  N   UNL     1       4.589  -3.651   3.121  0.00  0.00    -0.122 NA
ATOM     20  N   UNL     1       5.574  -3.203   3.814  0.00  0.00    -0.134 NA
ATOM     21  C   UNL     1       5.555  -1.900   3.828  0.00  0.00    +0.134 A 
ATOM     22  N   UNL     1       4.481  -1.500   3.084  0.00  0.00    -0.309 N 
ATOM     23  C   UNL     1       4.057  -0.125   2.810  0.00  0.00    +0.152 C 
BRANCH  21  24
ATOM     24  C   UNL     1       6.540  -1.000   4.529  0.00  0.00    +0.085 C 
BRANCH  24  25
ATOM     25  C   UNL     1       7.694  -0.670   3.581  0.00  0.00    +0.103 C 
BRANCH  25  26
ATOM     26  C   UNL     1       8.679   0.230   4.282  0.00  0.00    +0.211 C 
ATOM     27  O   UNL     1       8.477   0.574   5.427  0.00  0.00    -0.276 OA
ATOM     28  N   UNL     1       9.784   0.653   3.636  0.00  0.00    -0.329 N 
ATOM     29  H   UNL     1       9.945   0.378   2.720  0.00  0.00    +0.145 HD
ATOM     30  H   UNL     1      10.417   1.233   4.087  0.00  0.00    +0.145 HD
ENDBRANCH  25  26
ENDBRANCH  24  25
ENDBRANCH  21  24
ENDBRANCH  17  18
ENDBRANCH   6  17
TORSDOF 6
