REMARK  Name = ZINC20393389
REMARK  7 active torsions:
REMARK  status: ('A' for Active; 'I' for Inactive)
REMARK    1  A    between atoms: C_1  and  N_2
REMARK    2  A    between atoms: N_12  and  C_25
REMARK    3  A    between atoms: C_13  and  S_15
REMARK    4  A    between atoms: S_15  and  C_16
REMARK    5  A    between atoms: C_16  and  C_17
REMARK    6  A    between atoms: C_28  and  O_31
REMARK    7  A    between atoms: O_31  and  C_32
REMARK                            x       y       z     vdW  Elec       q    Type
REMARK                         _______ _______ _______ _____ _____    ______ ____
ROOT
ATOM      1  C   UNL     1       4.943   3.139  -2.493  0.00  0.00    +0.105 C 
ATOM      2  N   UNL     1       3.602   2.633  -2.172  0.00  0.00    -0.300 NA
ATOM      3  C   UNL     1       2.779   3.679  -1.549  0.00  0.00    +0.089 C 
ATOM      4  C   UNL     1       1.304   3.267  -1.566  0.00  0.00    +0.052 C 
ATOM      5  C   UNL     1       1.193   1.867  -0.967  0.00  0.00    -0.020 A 
ATOM      6  C   UNL     1       2.291   1.089  -0.869  0.00  0.00    +0.010 A 
ATOM      7  S   UNL     1       1.723  -0.416  -0.130  0.00  0.00    -0.072 S 
ATOM      8  C   UNL     1       0.006   0.004   0.045  0.00  0.00    +0.117 A 
ATOM      9  C   UNL     1      -0.067   1.307  -0.479  0.00  0.00    +0.076 A 
ATOM     10  C   UNL     1      -1.364   1.909  -0.471  0.00  0.00    +0.268 A 
ATOM     11  O   UNL     1      -1.524   3.037  -0.906  0.00  0.00    -0.267 OA
ATOM     12  N   UNL     1      -2.404   1.218   0.031  0.00  0.00    -0.255 N 
ATOM     13  C   UNL     1      -2.243  -0.047   0.523  0.00  0.00    +0.178 A 
ATOM     14  N   UNL     1      -1.060  -0.626   0.522  0.00  0.00    -0.215 NA
ATOM     15  C   UNL     1       3.680   1.445  -1.301  0.00  0.00    +0.126 C 
ENDROOT
BRANCH  12  16
ATOM     16  C   UNL     1      -3.677   1.806   0.046  0.00  0.00    +0.052 A 
ATOM     17  C   UNL     1      -4.087   2.548   1.146  0.00  0.00    +0.030 A 
ATOM     18  C   UNL     1      -5.339   3.130   1.158  0.00  0.00    +0.047 A 
ATOM     19  C   UNL     1      -6.191   2.965   0.076  0.00  0.00    +0.120 A 
ATOM     20  C   UNL     1      -5.785   2.219  -1.021  0.00  0.00    +0.047 A 
ATOM     21  C   UNL     1      -4.531   1.641  -1.036  0.00  0.00    +0.030 A 
BRANCH  19  22
ATOM     22  O   UNL     1      -7.426   3.534   0.090  0.00  0.00    -0.495 OA
ATOM     23  C   UNL     1      -7.779   4.289   1.252  0.00  0.00    +0.277 C 
ENDBRANCH  19  22
ENDBRANCH  12  16
BRANCH  13  24
ATOM     24  S   UNL     1      -3.636  -0.914   1.164  0.00  0.00    -0.078 S 
BRANCH  24  25
ATOM     25  C   UNL     1      -2.844  -2.468   1.647  0.00  0.00    +0.173 C 
BRANCH  25  26
ATOM     26  C   UNL     1      -3.875  -3.394   2.239  0.00  0.00    +0.226 C 
ATOM     27  O   UNL     1      -5.031  -3.039   2.327  0.00  0.00    -0.275 OA
ATOM     28  N   UNL     1      -3.511  -4.618   2.672  0.00  0.00    -0.301 N 
ATOM     29  C   UNL     1      -2.116  -5.066   2.567  0.00  0.00    +0.108 C 
ATOM     30  C   UNL     1      -1.645  -5.528   3.954  0.00  0.00    +0.019 C 
ATOM     31  C   UNL     1      -2.608  -6.593   4.484  0.00  0.00    +0.003 C 
ATOM     32  C   UNL     1      -4.008  -5.992   4.627  0.00  0.00    +0.019 C 
ATOM     33  C   UNL     1      -4.505  -5.532   3.252  0.00  0.00    +0.108 C 
ENDBRANCH  25  26
ENDBRANCH  24  25
ENDBRANCH  13  24
TORSDOF 5
