REMARK  Name = ZINC09331515
REMARK  5 active torsions:
REMARK  status: ('A' for Active; 'I' for Inactive)
REMARK    1  A    between atoms: C_1  and  C_2
REMARK    2  A    between atoms: N_24  and  C_27
REMARK    3  A    between atoms: C_29  and  N_35
REMARK    4  A    between atoms: C_32  and  O_33
REMARK    5  A    between atoms: O_33  and  C_34
REMARK                            x       y       z     vdW  Elec       q    Type
REMARK                         _______ _______ _______ _____ _____    ______ ____
ROOT
ATOM      1  C   UNL     1       5.511  -1.329  -0.050  0.00  0.00    +0.044 C 
ATOM      2  C   UNL     1       4.032  -1.042  -0.036  0.00  0.00    -0.049 A 
ATOM      3  C   UNL     1       3.579   0.266  -0.028  0.00  0.00    +0.008 A 
ATOM      4  C   UNL     1       2.227   0.527  -0.015  0.00  0.00    -0.026 A 
ATOM      5  C   UNL     1       1.303  -0.513  -0.011  0.00  0.00    +0.054 A 
ATOM      6  C   UNL     1       1.767  -1.827  -0.021  0.00  0.00    +0.063 A 
ATOM      7  C   UNL     1       3.123  -2.084  -0.033  0.00  0.00    +0.025 A 
ATOM      8 CL   UNL     1       0.636  -3.145  -0.018  0.00  0.00    -0.082 Cl
ATOM      9  N   UNL     1       0.002  -0.004   0.002  0.00  0.00    -0.285 N 
ATOM     10  C   UNL     1      -0.016   1.343   0.009  0.00  0.00    +0.212 C 
ATOM     11  O   UNL     1      -0.999   2.053   0.018  0.00  0.00    -0.277 OA
ATOM     12  C   UNL     1       1.419   1.795  -0.002  0.00  0.00    +0.053 C 
ATOM     13  C   UNL     1       1.744   2.653   1.226  0.00  0.00    +0.089 C 
ATOM     14  C   UNL     1       1.635   4.109   0.724  0.00  0.00    +0.074 C 
ATOM     15  C   UNL     1       1.285   4.006  -0.772  0.00  0.00    -0.054 C 
ATOM     16  C   UNL     1       3.175   2.734  -1.375  0.00  0.00    -0.076 C 
ATOM     17  C   UNL     1       3.403   4.123  -2.004  0.00  0.00    -0.020 C 
ATOM     18  C   UNL     1       2.174   4.958  -1.593  0.00  0.00    -0.016 C 
ATOM     19  C   UNL     1       0.456   4.680   1.477  0.00  0.00    +0.229 C 
ATOM     20  O   UNL     1       0.045   5.817   1.380  0.00  0.00    -0.275 OA
ATOM     21  N   UNL     1      -0.065   3.735   2.269  0.00  0.00    -0.206 N 
ATOM     22  C   UNL     1       0.558   2.553   2.207  0.00  0.00    +0.230 C 
ATOM     23  O   UNL     1       0.251   1.565   2.839  0.00  0.00    -0.275 OA
ATOM     24  H   UNL     1      -0.795  -0.556   0.006  0.00  0.00    +0.155 HD
ATOM     25  N   UNL     1       1.722   2.678  -1.139  0.00  0.00    +0.395 N 
ATOM     26  H   UNL     1       1.237   2.352  -1.983  0.00  0.00    -0.079 HD
ENDROOT
BRANCH  21  27
ATOM     27  C   UNL     1      -1.175   3.966   3.097  0.00  0.00    +0.088 A 
ATOM     28  C   UNL     1      -2.457   3.741   2.620  0.00  0.00    +0.060 A 
ATOM     29  C   UNL     1      -3.548   3.968   3.437  0.00  0.00    +0.128 A 
ATOM     30  C   UNL     1      -3.365   4.420   4.731  0.00  0.00    +0.036 A 
ATOM     31  C   UNL     1      -2.090   4.646   5.214  0.00  0.00    +0.050 A 
ATOM     32  C   UNL     1      -0.990   4.416   4.402  0.00  0.00    +0.142 A 
BRANCH  29  33
ATOM     33  N   UNL     1      -4.916   3.728   2.925  0.00  0.00    +0.056 N 
ATOM     34  O   UNL     1      -5.079   3.330   1.786  0.00  0.00    -0.126 OA
ATOM     35  O   UNL     1      -5.879   3.927   3.644  0.00  0.00    -0.126 OA
ENDBRANCH  29  33
BRANCH  32  36
ATOM     36  O   UNL     1       0.265   4.633   4.877  0.00  0.00    -0.493 OA
ATOM     37  C   UNL     1       0.378   5.095   6.225  0.00  0.00    +0.277 C 
ENDBRANCH  32  36
ENDBRANCH  21  27
TORSDOF 3
