REMARK  Name = ZINC48030562
REMARK  4 active torsions:
REMARK  status: ('A' for Active; 'I' for Inactive)
REMARK    1  A    between atoms: C_1  and  N_2
REMARK    2  A    between atoms: N_2  and  C_3
REMARK    3  A    between atoms: C_3  and  C_4
REMARK    4  A    between atoms: C_15  and  C_17
REMARK                            x       y       z     vdW  Elec       q    Type
REMARK                         _______ _______ _______ _____ _____    ______ ____
ROOT
ATOM      1  C   UNL     1       0.123  -0.739   1.262  0.00  0.00    +0.182 C 
ENDROOT
BRANCH   1   2
ATOM      2  C   UNL     1      -1.244  -1.037   1.823  0.00  0.00    +0.128 A 
ATOM      3  N   UNL     1      -1.326  -1.713   2.999  0.00  0.00    -0.309 N 
ATOM      4  H   UNL     1      -0.520  -1.994   3.460  0.00  0.00    +0.170 HD
ATOM      5  C   UNL     1      -2.545  -1.991   3.521  0.00  0.00    +0.266 A 
ATOM      6  O   UNL     1      -2.653  -2.596   4.575  0.00  0.00    -0.267 OA
ATOM      7  C   UNL     1      -3.674  -1.565   2.820  0.00  0.00    +0.102 A 
ATOM      8  C   UNL     1      -3.561  -0.867   1.605  0.00  0.00    +0.085 A 
ATOM      9  N   UNL     1      -2.282  -0.631   1.164  0.00  0.00    -0.232 NA
ATOM     10  C   UNL     1      -4.773  -0.498   1.006  0.00  0.00    +0.036 A 
ATOM     11  C   UNL     1      -5.946  -0.816   1.595  0.00  0.00    +0.048 A 
ATOM     12  S   UNL     1      -5.426  -1.676   3.070  0.00  0.00    -0.090 S 
ENDBRANCH   1   2
BRANCH   1  14
ATOM     13  C   UNL     1      -0.062   1.461   0.012  0.00  0.00    +0.133 C 
ATOM     14  N   UNL     1      -0.016  -0.003   0.003  0.00  0.00    -0.292 N 
ATOM     15  C   UNL     1      -0.102  -0.673  -1.163  0.00  0.00    +0.267 C 
ATOM     16  O   UNL     1      -0.160  -1.887  -1.164  0.00  0.00    -0.268 OA
BRANCH  15  17
ATOM     17  C   UNL     1      -0.124   0.068  -2.441  0.00  0.00    +0.147 A 
ATOM     18  C   UNL     1      -0.332  -0.480  -3.729  0.00  0.00    +0.054 A 
ATOM     19  C   UNL     1      -0.268   0.568  -4.583  0.00  0.00    +0.105 A 
ATOM     20  N   UNL     1      -0.035   1.674  -3.843  0.00  0.00    -0.284 N 
ATOM     21  H   UNL     1       0.057   2.571  -4.199  0.00  0.00    +0.188 HD
ATOM     22  N   UNL     1       0.040   1.367  -2.597  0.00  0.00    -0.169 NA
ENDBRANCH  15  17
ENDBRANCH   1  14
TORSDOF 3
