REMARK  Name = ZINC39607626
REMARK  6 active torsions:
REMARK  status: ('A' for Active; 'I' for Inactive)
REMARK    1  A    between atoms: C_6  and  C_10
REMARK    2  A    between atoms: C_11  and  C_12
REMARK    3  A    between atoms: C_12  and  O_14
REMARK    4  A    between atoms: O_14  and  C_15
REMARK    5  A    between atoms: C_15  and  C_16
REMARK    6  A    between atoms: N_21  and  C_22
REMARK                            x       y       z     vdW  Elec       q    Type
REMARK                         _______ _______ _______ _____ _____    ______ ____
ROOT
ATOM      1  C   UNL     1      -7.289  -2.914  -2.755  0.00  0.00    +0.258 C 
ATOM      2  O   UNL     1      -6.608  -3.584  -3.502  0.00  0.00    -0.272 OA
ATOM      3  N   UNL     1      -8.631  -2.922  -2.877  0.00  0.00    -0.237 N 
ATOM      4  C   UNL     1      -9.216  -3.674  -3.830  0.00  0.00    +0.306 C 
ATOM      5  O   UNL     1      -8.534  -4.345  -4.579  0.00  0.00    -0.252 OA
ATOM      6  N   UNL     1     -10.559  -3.682  -3.952  0.00  0.00    -0.294 N 
ATOM      7  H   UNL     1      -9.175  -2.386  -2.280  0.00  0.00    +0.159 HD
ATOM      8  H   UNL     1     -11.103  -3.146  -3.355  0.00  0.00    +0.151 HD
ENDROOT
BRANCH   6   9
ATOM      9  C   UNL     1     -11.195  -4.499  -4.988  0.00  0.00    +0.037 C 
ATOM     10  C   UNL     1     -10.701  -4.053  -6.366  0.00  0.00    +0.029 C 
ATOM     11  C   UNL     1     -11.366  -4.906  -7.447  0.00  0.00    -0.008 C 
ATOM     12  C   UNL     1     -12.884  -4.735  -7.370  0.00  0.00    +0.007 C 
ATOM     13  C   UNL     1     -13.379  -5.182  -5.993  0.00  0.00    -0.008 C 
ATOM     14  C   UNL     1     -12.714  -4.328  -4.911  0.00  0.00    +0.029 C 
ATOM     15  C   UNL     1     -13.019  -6.653  -5.774  0.00  0.00    +0.007 C 
ATOM     16  C   UNL     1     -11.501  -6.824  -5.851  0.00  0.00    -0.008 C 
ATOM     17  C   UNL     1     -11.006  -6.377  -7.229  0.00  0.00    +0.007 C 
ATOM     18  C   UNL     1     -10.836  -5.970  -4.769  0.00  0.00    +0.029 C 
ENDBRANCH   6   9
BRANCH   1  19
ATOM     19  C   UNL     1      -6.634  -2.074  -1.690  0.00  0.00    +0.328 C 
BRANCH  19  20
ATOM     20  O   UNL     1      -5.215  -2.233  -1.762  0.00  0.00    -0.452 OA
BRANCH  20  21
ATOM     21  C   UNL     1      -4.474  -1.542  -0.868  0.00  0.00    +0.332 C 
ATOM     22  O   UNL     1      -5.021  -0.823  -0.051  0.00  0.00    -0.246 OA
BRANCH  21  24
ATOM     23  C   UNL     1      -2.325  -0.954   0.019  0.00  0.00    +0.036 C 
ATOM     24  C   UNL     1      -3.073  -1.652  -0.883  0.00  0.00    +0.093 C 
BRANCH  23  30
ATOM     25  C   UNL     1      -0.017   1.371   0.010  0.00  0.00    +0.101 A 
ATOM     26  C   UNL     1       1.120   2.069   0.003  0.00  0.00    +0.067 A 
ATOM     27  S   UNL     1       2.347   0.771  -0.016  0.00  0.00    -0.058 S 
ATOM     28  C   UNL     1       1.227  -0.611  -0.013  0.00  0.00    +0.179 A 
ATOM     29  N   UNL     1       0.002  -0.004   0.002  0.00  0.00    -0.292 N 
ATOM     30  C   UNL     1      -0.922  -1.065   0.005  0.00  0.00    +0.085 A 
ATOM     31  C   UNL     1      -0.186  -2.239  -0.009  0.00  0.00    +0.156 A 
ATOM     32  N   UNL     1       1.101  -1.914  -0.019  0.00  0.00    -0.209 NA
ATOM     33 CL   UNL     1      -0.834  -3.850  -0.011  0.00  0.00    -0.060 Cl
ENDBRANCH  23  30
ENDBRANCH  21  24
ENDBRANCH  20  21
ENDBRANCH  19  20
ENDBRANCH   1  19
TORSDOF 6
