REMARK  Name = ZINC33347641
REMARK  7 active torsions:
REMARK  status: ('A' for Active; 'I' for Inactive)
REMARK    1  A    between atoms: C_1  and  C_2
REMARK    2  A    between atoms: C_2  and  N_3
REMARK    3  A    between atoms: N_15  and  C_33
REMARK    4  A    between atoms: N_20  and  C_30
REMARK    5  A    between atoms: N_23  and  C_24
REMARK    6  A    between atoms: C_30  and  C_31
REMARK    7  A    between atoms: C_33  and  C_34
REMARK                            x       y       z     vdW  Elec       q    Type
REMARK                         _______ _______ _______ _____ _____    ______ ____
ROOT
ATOM      1  N   UNL     1      -2.045   4.939  -0.230  0.00  0.00    -0.293 N 
ATOM      2  C   UNL     1      -3.311   5.493  -0.298  0.00  0.00    +0.048 A 
ATOM      3  C   UNL     1      -4.543   4.826  -0.191  0.00  0.00    +0.024 A 
ATOM      4  C   UNL     1      -5.729   5.513  -0.287  0.00  0.00    +0.002 A 
ATOM      5  C   UNL     1      -5.751   6.883  -0.491  0.00  0.00    +0.001 A 
ATOM      6  C   UNL     1      -4.553   7.567  -0.601  0.00  0.00    +0.017 A 
ATOM      7  C   UNL     1      -3.366   6.879  -0.505  0.00  0.00    +0.035 A 
ATOM      8  S   UNL     1      -1.656   7.353  -0.587  0.00  0.00    -0.071 S 
ATOM      9  C   UNL     1      -0.939   5.736  -0.350  0.00  0.00    +0.092 C 
ATOM     10  C   UNL     1       0.402   5.377  -0.305  0.00  0.00    +0.107 A 
ATOM     11  C   UNL     1       1.546   6.186  -0.433  0.00  0.00    +0.269 A 
ATOM     12  O   UNL     1       1.438   7.389  -0.611  0.00  0.00    -0.266 OA
ATOM     13  N   UNL     1       2.739   5.622  -0.357  0.00  0.00    -0.296 N 
ATOM     14  C   UNL     1       2.846   4.263  -0.155  0.00  0.00    +0.111 A 
ATOM     15  C   UNL     1       3.990   3.484  -0.046  0.00  0.00    +0.134 C 
ATOM     16  C   UNL     1       5.275   3.805  -0.505  0.00  0.00    +0.269 C 
ATOM     17  O   UNL     1       5.601   4.831  -1.080  0.00  0.00    -0.268 OA
ATOM     18  N   UNL     1       6.084   2.774  -0.194  0.00  0.00    -0.248 N 
ATOM     19  C   UNL     1       5.380   1.822   0.441  0.00  0.00    +0.151 C 
ATOM     20  S   UNL     1       6.017   0.342   1.020  0.00  0.00    -0.017 S 
ATOM     21  N   UNL     1       4.094   2.209   0.548  0.00  0.00    -0.244 N 
ATOM     22  S   UNL     1       1.133   3.762  -0.077  0.00  0.00    -0.062 S 
ENDROOT
BRANCH  21  23
ATOM     23  C   UNL     1       3.056   1.485   1.145  0.00  0.00    +0.041 A 
ATOM     24  C   UNL     1       2.467   1.947   2.315  0.00  0.00    +0.024 A 
ATOM     25  C   UNL     1       1.443   1.230   2.901  0.00  0.00    +0.002 A 
ATOM     26  C   UNL     1       1.003   0.052   2.324  0.00  0.00    +0.000 A 
ATOM     27  C   UNL     1       1.588  -0.411   1.159  0.00  0.00    +0.002 A 
ATOM     28  C   UNL     1       2.612   0.302   0.568  0.00  0.00    +0.024 A 
ENDBRANCH  21  23
BRANCH   1  30
ATOM     29  C   UNL     1      -1.827   3.200   1.476  0.00  0.00    +0.025 C 
ATOM     30  C   UNL     1      -1.889   3.497  -0.023  0.00  0.00    +0.108 C 
ENDBRANCH   1  30
BRANCH  18  31
ATOM     31  C   UNL     1       7.516   2.704  -0.496  0.00  0.00    +0.112 C 
ATOM     32  C   UNL     1       8.312   3.296   0.668  0.00  0.00    +0.025 C 
ENDBRANCH  18  31
BRANCH  13  33
ATOM     33  C   UNL     1       3.946   6.442  -0.486  0.00  0.00    +0.152 C 
BRANCH  33  34
ATOM     34  C   UNL     1       4.287   6.608  -1.945  0.00  0.00    -0.013 C 
ATOM     35  C   UNL     1       4.448   7.806  -2.448  0.00  0.00    +0.005 C 
ENDBRANCH  33  34
ENDBRANCH  13  33
TORSDOF 5
