REMARK  Name = ZINC13261642
REMARK  9 active torsions:
REMARK  status: ('A' for Active; 'I' for Inactive)
REMARK    1  A    between atoms: C_1  and  C_2
REMARK    2  A    between atoms: C_5  and  C_18
REMARK    3  A    between atoms: N_8  and  C_10
REMARK    4  A    between atoms: C_10  and  C_11
REMARK    5  A    between atoms: N_20  and  C_21
REMARK    6  A    between atoms: N_20  and  C_22
REMARK    7  A    between atoms: C_22  and  C_23
REMARK    8  A    between atoms: N_25  and  C_26
REMARK    9  A    between atoms: C_31  and  C_32
REMARK                            x       y       z     vdW  Elec       q    Type
REMARK                         _______ _______ _______ _____ _____    ______ ____
ROOT
ATOM      1  C   UNL     1       4.503  -2.814   0.131  0.00  0.00    +0.253 C 
ATOM      2  O   UNL     1       4.115  -3.967   0.156  0.00  0.00    -0.269 OA
ATOM      3  N   UNL     1       5.775  -2.539  -0.222  0.00  0.00    -0.291 N 
ATOM      4  C   UNL     1       6.252  -1.154  -0.220  0.00  0.00    +0.133 C 
ENDROOT
BRANCH   1   9
ATOM      5  C   UNL     1      -0.984  -1.101   1.459  0.00  0.00    +0.068 C 
ATOM      6  C   UNL     1       0.218  -0.195   1.379  0.00  0.00    +0.068 A 
ATOM      7  C   UNL     1       1.551  -0.610   1.056  0.00  0.00    +0.031 A 
ATOM      8  C   UNL     1       2.249  -1.783   0.731  0.00  0.00    +0.032 A 
ATOM      9  C   UNL     1       3.589  -1.725   0.485  0.00  0.00    +0.077 A 
ATOM     10  S   UNL     1       3.951   0.009   0.701  0.00  0.00    -0.064 S 
ATOM     11  C   UNL     1       2.315   0.566   1.104  0.00  0.00    +0.107 A 
ATOM     12  N   UNL     1       1.506   1.592   1.427  0.00  0.00    -0.252 N 
ATOM     13  N   UNL     1       0.211   1.086   1.591  0.00  0.00    -0.175 NA
BRANCH  12  14
ATOM     14  C   UNL     1       1.910   2.992   1.579  0.00  0.00    +0.181 C 
BRANCH  14  15
ATOM     15  C   UNL     1       2.312   3.247   3.009  0.00  0.00    -0.008 A 
ATOM     16  C   UNL     1       3.649   3.269   3.358  0.00  0.00    +0.007 A 
ATOM     17  C   UNL     1       4.018   3.502   4.669  0.00  0.00    +0.000 A 
ATOM     18  C   UNL     1       3.049   3.714   5.633  0.00  0.00    +0.001 A 
ATOM     19  C   UNL     1       1.712   3.692   5.285  0.00  0.00    +0.020 A 
ATOM     20  C   UNL     1       1.343   3.463   3.972  0.00  0.00    +0.046 A 
ATOM     21 CL   UNL     1      -0.337   3.443   3.533  0.00  0.00    -0.083 Cl
ENDBRANCH  14  15
ENDBRANCH  12  14
ENDBRANCH   1   9
BRANCH   3  22
ATOM     22  C   UNL     1       6.679  -3.625  -0.607  0.00  0.00    +0.203 C 
BRANCH  22  23
ATOM     23  C   UNL     1       6.583  -3.855  -2.093  0.00  0.00    +0.235 C 
ATOM     24  O   UNL     1       5.833  -3.179  -2.764  0.00  0.00    -0.274 OA
ATOM     25  N   UNL     1       7.331  -4.813  -2.677  0.00  0.00    -0.283 N 
ATOM     26  H   UNL     1       7.981  -5.306  -2.153  0.00  0.00    +0.155 HD
BRANCH  25  27
ATOM     27  C   UNL     1       7.170  -5.093  -4.031  0.00  0.00    +0.048 A 
ATOM     28  C   UNL     1       6.894  -4.070  -4.928  0.00  0.00    +0.024 A 
ATOM     29  C   UNL     1       6.740  -4.349  -6.271  0.00  0.00    +0.002 A 
ATOM     30  C   UNL     1       6.849  -5.651  -6.733  0.00  0.00    +0.001 A 
ATOM     31  C   UNL     1       7.117  -6.681  -5.858  0.00  0.00    +0.017 A 
ATOM     32  C   UNL     1       7.280  -6.413  -4.496  0.00  0.00    +0.084 A 
BRANCH  32  33
ATOM     33  C   UNL     1       7.567  -7.509  -3.554  0.00  0.00    +0.388 C 
ATOM     34  O   UNL     1       7.605  -7.290  -2.359  0.00  0.00    -0.241 OA
ATOM     35  O   UNL     1       7.786  -8.756  -4.017  0.00  0.00    -0.241 OA
ENDBRANCH  32  33
ENDBRANCH  25  27
ENDBRANCH  22  23
ENDBRANCH   3  22
TORSDOF 7
