REMARK  Name = ZINC40323099
REMARK  12 active torsions:
REMARK  status: ('A' for Active; 'I' for Inactive)
REMARK    1  A    between atoms: C_1  and  N_2
REMARK    2  A    between atoms: N_2  and  C_3
REMARK    3  A    between atoms: N_2  and  C_4
REMARK    4  A    between atoms: C_7  and  C_10
REMARK    5  A    between atoms: C_10  and  C_12
REMARK    6  A    between atoms: C_10  and  N_31
REMARK    7  A    between atoms: C_12  and  N_13
REMARK    8  A    between atoms: C_14  and  C_16
REMARK    9  A    between atoms: C_19  and  S_21
REMARK   10  A    between atoms: S_21  and  C_24
REMARK   11  A    between atoms: N_31  and  C_32
REMARK   12  A    between atoms: N_31  and  C_33
REMARK                            x       y       z     vdW  Elec       q    Type
REMARK                         _______ _______ _______ _____ _____    ______ ____
ROOT
ATOM      1  N   UNL     1       2.189  -3.734  -4.465  0.00  0.00    -0.310 N 
ATOM      2  C   UNL     1       3.502  -3.938  -4.688  0.00  0.00    +0.279 C 
ATOM      3  O   UNL     1       4.013  -3.542  -5.719  0.00  0.00    -0.267 OA
ATOM      4  H   UNL     1       1.781  -4.050  -3.643  0.00  0.00    +0.149 HD
ENDROOT
BRANCH   2   5
ATOM      5  C   UNL     1       4.315  -4.639  -3.689  0.00  0.00    +0.192 A 
ATOM      6  C   UNL     1       5.651  -4.906  -3.786  0.00  0.00    +0.056 A 
ATOM      7  C   UNL     1       6.012  -5.587  -2.612  0.00  0.00    +0.070 A 
ATOM      8  C   UNL     1       4.895  -5.704  -1.860  0.00  0.00    +0.246 A 
ATOM      9  O   UNL     1       3.876  -5.127  -2.510  0.00  0.00    -0.433 OA
BRANCH   8  10
ATOM     10  S   UNL     1       4.798  -6.481  -0.282  0.00  0.00    +0.058 S 
ATOM     11  O   UNL     1       3.445  -6.879  -0.109  0.00  0.00    -0.161 OA
ATOM     12  O   UNL     1       5.877  -7.403  -0.216  0.00  0.00    -0.161 OA
BRANCH  10  13
ATOM     13  C   UNL     1       5.118  -5.243   0.929  0.00  0.00    +0.097 A 
ATOM     14  C   UNL     1       6.413  -5.005   1.349  0.00  0.00    +0.028 A 
ATOM     15  C   UNL     1       6.665  -4.034   2.299  0.00  0.00    +0.017 A 
ATOM     16  C   UNL     1       5.620  -3.299   2.831  0.00  0.00    +0.018 A 
ATOM     17  C   UNL     1       4.324  -3.538   2.411  0.00  0.00    +0.017 A 
ATOM     18  C   UNL     1       4.074  -4.506   1.456  0.00  0.00    +0.028 A 
ATOM     19 BR   UNL     1       5.963  -1.970   4.131  0.00  0.00    -0.050 Br
ENDBRANCH  10  13
ENDBRANCH   8  10
ENDBRANCH   2   5
BRANCH   1  20
ATOM     20  C   UNL     1       1.376  -3.034  -5.463  0.00  0.00    +0.094 C 
BRANCH  20  21
ATOM     21  C   UNL     1      -0.035  -2.818  -4.912  0.00  0.00    -0.021 C 
BRANCH  21  25
ATOM     22  C   UNL     1       0.137  -0.185  -1.551  0.00  0.00    +0.029 A 
ATOM     23  C   UNL     1       0.041  -1.557  -1.356  0.00  0.00    +0.023 A 
ATOM     24  C   UNL     1      -0.015  -2.405  -2.444  0.00  0.00    +0.004 A 
ATOM     25  C   UNL     1       0.025  -1.890  -3.727  0.00  0.00    -0.059 A 
ATOM     26  C   UNL     1       0.121  -0.524  -3.924  0.00  0.00    +0.004 A 
ATOM     27  C   UNL     1       0.171   0.330  -2.840  0.00  0.00    +0.023 A 
BRANCH  22  29
ATOM     28  C   UNL     1       0.288   2.123  -0.659  0.00  0.00    +0.129 C 
ATOM     29  N   UNL     1       0.193   0.676  -0.452  0.00  0.00    -0.336 N 
ATOM     30  C   UNL     1       0.157   0.132   0.908  0.00  0.00    +0.129 C 
ENDBRANCH  22  29
ENDBRANCH  21  25
BRANCH  21  31
ATOM     31  N   UNL     1      -0.883  -2.226  -5.956  0.00  0.00    +0.382 N 
ATOM     32  C   UNL     1      -0.956  -3.140  -7.104  0.00  0.00    -0.096 C 
ATOM     33  C   UNL     1      -2.233  -2.003  -5.421  0.00  0.00    -0.096 C 
ATOM     34  H   UNL     1      -0.488  -1.346  -6.251  0.00  0.00    -0.082 HD
ENDBRANCH  21  31
ENDBRANCH  20  21
ENDBRANCH   1  20
TORSDOF 8
