REMARK  Name = ZINC39977434
REMARK  4 active torsions:
REMARK  status: ('A' for Active; 'I' for Inactive)
REMARK    1  A    between atoms: C_4  and  N_7
REMARK    2  A    between atoms: N_7  and  C_8
REMARK    3  A    between atoms: N_11  and  S_12
REMARK    4  A    between atoms: S_12  and  C_15
REMARK                            x       y       z     vdW  Elec       q    Type
REMARK                         _______ _______ _______ _____ _____    ______ ____
ROOT
ATOM      1  C   UNL     1       3.645  -2.110   0.066  0.00  0.00    +0.237 C 
ATOM      2  C   UNL     1       4.634  -2.627  -0.954  0.00  0.00    +0.192 C 
ATOM      3  N   UNL     1       4.485  -2.351  -2.216  0.00  0.00    -0.110 NA
ATOM      4  N   UNL     1       5.668  -3.376  -0.538  0.00  0.00    -0.226 NA
ATOM      5  C   UNL     1       5.840  -3.668   0.734  0.00  0.00    +0.089 A 
ATOM      6  C   UNL     1       6.944  -4.462   1.138  0.00  0.00    +0.030 A 
ATOM      7  C   UNL     1       7.126  -4.765   2.442  0.00  0.00    +0.002 A 
ATOM      8  C   UNL     1       6.255  -4.326   3.453  0.00  0.00    +0.002 A 
ATOM      9  C   UNL     1       5.173  -3.566   3.178  0.00  0.00    +0.027 A 
ATOM     10  C   UNL     1       4.904  -3.191   1.782  0.00  0.00    +0.063 A 
ATOM     11  N   UNL     1       3.870  -2.458   1.478  0.00  0.00    -0.359 N 
ATOM     12  H   UNL     1       3.263  -2.148   2.168  0.00  0.00    +0.162 HD
ENDROOT
BRANCH   3  13
ATOM     13  S   UNL     1       5.575  -2.924  -3.323  0.00  0.00    +0.103 S 
ATOM     14  O   UNL     1       6.812  -2.281  -3.046  0.00  0.00    -0.146 OA
ATOM     15  O   UNL     1       5.438  -4.338  -3.334  0.00  0.00    -0.146 OA
BRANCH  13  16
ATOM     16  C   UNL     1       5.056  -2.356  -4.908  0.00  0.00    +0.141 A 
ATOM     17  C   UNL     1       5.833  -1.493  -5.604  0.00  0.00    +0.031 A 
ATOM     18  C   UNL     1       5.454  -1.022  -6.861  0.00  0.00    +0.004 A 
ATOM     19  C   UNL     1       4.292  -1.408  -7.440  0.00  0.00    +0.031 A 
ATOM     20  C   UNL     1       3.426  -2.312  -6.768  0.00  0.00    +0.102 A 
ATOM     21  C   UNL     1       3.825  -2.808  -5.456  0.00  0.00    +0.127 A 
ATOM     22  N   UNL     1       2.941  -3.652  -4.923  0.00  0.00    -0.189 NA
ATOM     23  S   UNL     1       1.755  -3.778  -6.004  0.00  0.00    +0.117 S 
ATOM     24  N   UNL     1       2.254  -2.798  -7.178  0.00  0.00    -0.191 NA
ENDBRANCH  13  16
ENDBRANCH   3  13
BRANCH   1  25
ATOM     25  N   UNL     1       3.620  -0.649  -0.036  0.00  0.00    -0.318 N 
ATOM     26  H   UNL     1       4.449  -0.147  -0.010  0.00  0.00    +0.148 HD
BRANCH  25  30
ATOM     27  C   UNL     1      -0.012   1.347  -0.438  0.00  0.00    +0.000 A 
ATOM     28  C   UNL     1       0.003  -0.009  -0.169  0.00  0.00    +0.002 A 
ATOM     29  C   UNL     1       1.206  -0.674  -0.035  0.00  0.00    +0.023 A 
ATOM     30  C   UNL     1       2.401   0.021  -0.171  0.00  0.00    +0.029 A 
ATOM     31  C   UNL     1       2.382   1.383  -0.441  0.00  0.00    +0.023 A 
ATOM     32  C   UNL     1       1.176   2.042  -0.574  0.00  0.00    +0.002 A 
ENDBRANCH  25  30
ENDBRANCH   1  25
TORSDOF 4
