REMARK  Name = ZINC34685570
REMARK  8 active torsions:
REMARK  status: ('A' for Active; 'I' for Inactive)
REMARK    1  A    between atoms: C_1  and  C_2
REMARK    2  A    between atoms: C_2  and  C_4
REMARK    3  A    between atoms: C_2  and  O_15
REMARK    4  A    between atoms: N_9  and  C_12
REMARK    5  A    between atoms: C_12  and  C_13
REMARK    6  A    between atoms: O_15  and  C_16
REMARK    7  A    between atoms: C_22  and  C_34
REMARK    8  A    between atoms: C_27  and  C_29
REMARK                            x       y       z     vdW  Elec       q    Type
REMARK                         _______ _______ _______ _____ _____    ______ ____
ROOT
ATOM      1  C   UNL     1      -1.215  -1.722   1.583  0.00  0.00    +0.122 A 
ATOM      2  C   UNL     1      -0.605  -1.267   2.744  0.00  0.00    +0.046 A 
ATOM      3  C   UNL     1      -1.355  -1.089   3.886  0.00  0.00    +0.007 A 
ATOM      4  C   UNL     1      -2.719  -1.356   3.888  0.00  0.00    -0.040 A 
ATOM      5  C   UNL     1      -3.327  -1.799   2.734  0.00  0.00    -0.016 A 
ATOM      6  C   UNL     1      -2.575  -1.982   1.582  0.00  0.00    +0.051 A 
ATOM      7  C   UNL     1      -4.807  -2.080   2.659  0.00  0.00    +0.137 C 
ATOM      8  N   UNL     1      -5.378  -2.084   4.010  0.00  0.00    -0.286 N 
ATOM      9  C   UNL     1      -4.966  -1.004   4.921  0.00  0.00    +0.113 C 
ATOM     10  C   UNL     1      -3.468  -1.151   5.179  0.00  0.00    +0.054 C 
ATOM     11  C   UNL     1      -6.245  -3.039   4.401  0.00  0.00    +0.254 C 
ATOM     12  O   UNL     1      -6.611  -3.090   5.561  0.00  0.00    -0.269 OA
ENDROOT
BRANCH   7  13
ATOM     13  C   UNL     1      -5.479  -1.013   1.834  0.00  0.00    -0.023 A 
ATOM     14  C   UNL     1      -6.161  -1.357   0.682  0.00  0.00    +0.006 A 
ATOM     15  C   UNL     1      -6.778  -0.378  -0.074  0.00  0.00    +0.000 A 
ATOM     16  C   UNL     1      -6.712   0.945   0.321  0.00  0.00    +0.000 A 
ATOM     17  C   UNL     1      -6.031   1.289   1.474  0.00  0.00    +0.000 A 
ATOM     18  C   UNL     1      -5.418   0.309   2.233  0.00  0.00    +0.006 A 
ENDBRANCH   7  13
BRANCH  11  19
ATOM     19  C   UNL     1      -6.747  -4.016   3.430  0.00  0.00    +0.074 A 
ATOM     20  C   UNL     1      -7.524  -5.144   3.647  0.00  0.00    +0.021 A 
ATOM     21  C   UNL     1      -7.842  -5.874   2.528  0.00  0.00    +0.008 A 
ATOM     22  C   UNL     1      -7.390  -5.458   1.319  0.00  0.00    +0.046 A 
ATOM     23  S   UNL     1      -6.526  -4.058   1.662  0.00  0.00    -0.092 S 
ENDBRANCH  11  19
BRANCH   1  24
ATOM     24  O   UNL     1      -0.483  -1.907   0.453  0.00  0.00    -0.480 OA
BRANCH  24  26
ATOM     25  C   UNL     1      -1.428  -3.717  -0.840  0.00  0.00    +0.062 C 
ATOM     26  C   UNL     1      -1.203  -2.207  -0.744  0.00  0.00    +0.256 C 
BRANCH  26  27
ATOM     27  C   UNL     1      -0.409  -1.740  -1.938  0.00  0.00    +0.256 C 
ATOM     28  O   UNL     1       0.705  -1.287  -1.785  0.00  0.00    -0.272 OA
ATOM     29  N   UNL     1      -0.938  -1.827  -3.174  0.00  0.00    -0.296 N 
ATOM     30  C   UNL     1      -2.291  -2.368  -3.381  0.00  0.00    +0.123 C 
ATOM     31  C   UNL     1      -3.087  -1.375  -4.234  0.00  0.00    +0.103 C 
ATOM     32  N   UNL     1      -2.340  -1.083  -5.465  0.00  0.00    -0.296 NA
ATOM     33  C   UNL     1      -1.058  -0.430  -5.168  0.00  0.00    +0.103 C 
ATOM     34  C   UNL     1      -0.181  -1.378  -4.352  0.00  0.00    +0.123 C 
BRANCH  32  35
ATOM     35  C   UNL     1      -3.143  -0.271  -6.389  0.00  0.00    +0.111 C 
BRANCH  35  36
ATOM     36  C   UNL     1      -2.451  -0.198  -7.725  0.00  0.00    -0.019 C 
ATOM     37  C   UNL     1      -3.087  -0.559  -8.812  0.00  0.00    +0.005 C 
ENDBRANCH  35  36
ENDBRANCH  32  35
ENDBRANCH  26  27
ENDBRANCH  24  26
ENDBRANCH   1  24
TORSDOF 7
