REMARK  Name = ZINC05413853
REMARK  8 active torsions:
REMARK  status: ('A' for Active; 'I' for Inactive)
REMARK    1  A    between atoms: C_1  and  C_2
REMARK    2  A    between atoms: C_5  and  N_9
REMARK    3  A    between atoms: C_6  and  C_8
REMARK    4  A    between atoms: C_10  and  S_14
REMARK    5  A    between atoms: S_14  and  C_15
REMARK    6  A    between atoms: C_15  and  C_16
REMARK    7  A    between atoms: C_25  and  O_28
REMARK    8  A    between atoms: C_26  and  C_27
REMARK                            x       y       z     vdW  Elec       q    Type
REMARK                         _______ _______ _______ _____ _____    ______ ____
ROOT
ATOM      1  C   UNL     1      -1.636  -1.163  -0.262  0.00  0.00    +0.113 C 
ENDROOT
BRANCH   1   2
ATOM      2  C   UNL     1      -1.426   0.321  -0.421  0.00  0.00    -0.020 A 
ATOM      3  C   UNL     1      -2.477   1.156  -0.632  0.00  0.00    +0.097 A 
ATOM      4  C   UNL     1      -2.255   2.540  -0.779  0.00  0.00    +0.338 A 
ATOM      5  O   UNL     1      -3.206   3.277  -0.967  0.00  0.00    -0.245 OA
ATOM      6  O   UNL     1      -1.023   3.068  -0.703  0.00  0.00    -0.422 OA
ATOM      7  C   UNL     1       0.065   2.294  -0.502  0.00  0.00    +0.146 A 
ATOM      8  C   UNL     1      -0.084   0.902  -0.353  0.00  0.00    +0.022 A 
ATOM      9  C   UNL     1       1.040   0.097  -0.139  0.00  0.00    +0.015 A 
ATOM     10  C   UNL     1       2.281   0.663  -0.086  0.00  0.00    +0.046 A 
ATOM     11  C   UNL     1       2.435   2.040  -0.239  0.00  0.00    +0.123 A 
ATOM     12  C   UNL     1       1.332   2.853  -0.446  0.00  0.00    +0.034 A 
ATOM     13  C   UNL     1       1.510   4.340  -0.610  0.00  0.00    +0.051 C 
BRANCH  11  14
ATOM     14  O   UNL     1       3.675   2.588  -0.185  0.00  0.00    -0.506 OA
ATOM     15  H   UNL     1       4.120   2.641  -1.042  0.00  0.00    +0.292 HD
ENDBRANCH  11  14
ENDBRANCH   1   2
BRANCH   1  16
ATOM     16  S   UNL     1      -1.895  -1.551   1.487  0.00  0.00    -0.080 S 
BRANCH  16  18
ATOM     17  N   UNL     1      -2.334  -4.144   2.420  0.00  0.00    -0.187 N 
ATOM     18  C   UNL     1      -2.107  -3.297   1.385  0.00  0.00    +0.214 A 
ATOM     19  N   UNL     1      -2.070  -4.027   0.291  0.00  0.00    -0.101 NA
ATOM     20  N   UNL     1      -2.263  -5.266   0.569  0.00  0.00    -0.022 NA
ATOM     21  N   UNL     1      -2.434  -5.420   1.838  0.00  0.00    -0.038 NA
BRANCH  17  26
ATOM     22  C   UNL     1      -2.791  -2.822   7.921  0.00  0.00    +0.044 C 
ATOM     23  C   UNL     1      -2.670  -3.172   6.461  0.00  0.00    -0.050 A 
ATOM     24  C   UNL     1      -1.618  -2.672   5.715  0.00  0.00    +0.005 A 
ATOM     25  C   UNL     1      -1.501  -2.996   4.378  0.00  0.00    +0.028 A 
ATOM     26  C   UNL     1      -2.447  -3.817   3.779  0.00  0.00    +0.073 A 
ATOM     27  C   UNL     1      -3.502  -4.319   4.530  0.00  0.00    -0.025 A 
ATOM     28  C   UNL     1      -3.610  -3.995   5.868  0.00  0.00    +0.008 A 
ATOM     29  C   UNL     1      -4.527  -5.216   3.885  0.00  0.00    +0.046 C 
ENDBRANCH  17  26
ENDBRANCH  16  18
ENDBRANCH   1  16
TORSDOF 5
