REMARK  Name = ZINC16000468
REMARK  3 active torsions:
REMARK  status: ('A' for Active; 'I' for Inactive)
REMARK    1  A    between atoms: C_1  and  C_2
REMARK    2  A    between atoms: N_20  and  C_23
REMARK    3  A    between atoms: C_26  and  C_30
REMARK                            x       y       z     vdW  Elec       q    Type
REMARK                         _______ _______ _______ _____ _____    ______ ____
ROOT
ATOM      1  C   UNL     1      -2.338  -8.033  -3.373  0.00  0.00    +0.044 C 
ATOM      2  C   UNL     1      -0.989  -7.362  -3.420  0.00  0.00    -0.050 A 
ATOM      3  C   UNL     1      -0.264  -7.344  -4.597  0.00  0.00    +0.005 A 
ATOM      4  C   UNL     1       0.972  -6.734  -4.646  0.00  0.00    +0.024 A 
ATOM      5  C   UNL     1       1.500  -6.130  -3.506  0.00  0.00    +0.036 A 
ATOM      6  C   UNL     1       0.761  -6.153  -2.328  0.00  0.00    -0.027 A 
ATOM      7  C   UNL     1      -0.472  -6.765  -2.284  0.00  0.00    +0.008 A 
ATOM      8  C   UNL     1       1.591  -5.427  -1.305  0.00  0.00    +0.053 C 
ATOM      9  C   UNL     1       0.853  -4.225  -0.734  0.00  0.00    +0.089 C 
ATOM     10  C   UNL     1       1.598  -4.173   0.661  0.00  0.00    +0.074 C 
ATOM     11  C   UNL     1       1.502  -5.585   1.109  0.00  0.00    -0.054 C 
ATOM     12  C   UNL     1       3.353  -6.545  -0.063  0.00  0.00    -0.076 C 
ATOM     13  C   UNL     1       3.580  -6.868   1.433  0.00  0.00    -0.020 C 
ATOM     14  C   UNL     1       2.601  -5.912   2.145  0.00  0.00    -0.016 C 
ATOM     15  C   UNL     1       1.261  -2.849   1.119  0.00  0.00    +0.228 C 
ATOM     16  O   UNL     1       1.045  -2.492   2.257  0.00  0.00    -0.275 OA
ATOM     17  N   UNL     1       1.238  -2.082  -0.021  0.00  0.00    -0.209 N 
ATOM     18  C   UNL     1       1.234  -2.834  -1.162  0.00  0.00    +0.229 C 
ATOM     19  O   UNL     1       1.487  -2.459  -2.287  0.00  0.00    -0.275 OA
ATOM     20  C   UNL     1       2.841  -5.022  -2.038  0.00  0.00    +0.212 C 
ATOM     21  O   UNL     1       3.786  -4.417  -1.577  0.00  0.00    -0.277 OA
ATOM     22  N   UNL     1       2.709  -5.462  -3.304  0.00  0.00    -0.286 N 
ATOM     23  H   UNL     1       3.377  -5.329  -3.996  0.00  0.00    +0.155 HD
ATOM     24  N   UNL     1       1.906  -6.289  -0.124  0.00  0.00    +0.395 N 
ATOM     25  H   UNL     1       1.399  -7.179  -0.201  0.00  0.00    -0.079 HD
ENDROOT
BRANCH  17  26
ATOM     26  C   UNL     1       1.215  -0.680  -0.013  0.00  0.00    +0.058 A 
ATOM     27  C   UNL     1       2.405   0.035  -0.021  0.00  0.00    +0.025 A 
ATOM     28  C   UNL     1       2.380   1.416  -0.013  0.00  0.00    +0.005 A 
ATOM     29  C   UNL     1       1.170   2.087   0.002  0.00  0.00    -0.049 A 
ATOM     30  C   UNL     1      -0.017   1.378   0.010  0.00  0.00    +0.020 A 
ATOM     31  C   UNL     1       0.002  -0.004   0.002  0.00  0.00    +0.040 A 
ATOM     32 BR   UNL     1      -1.622  -0.973   0.012  0.00  0.00    -0.048 Br
ATOM     33  C   UNL     1       1.147   3.593   0.010  0.00  0.00    +0.044 C 
ENDBRANCH  17  26
TORSDOF 1
