REMARK  Name = ZINC00256878
REMARK  5 active torsions:
REMARK  status: ('A' for Active; 'I' for Inactive)
REMARK    1  A    between atoms: C_3  and  C_8
REMARK    2  A    between atoms: N_10  and  N_11
REMARK    3  A    between atoms: C_12  and  C_13
REMARK    4  A    between atoms: C_16  and  O_20
REMARK    5  A    between atoms: C_17  and  O_19
REMARK                            x       y       z     vdW  Elec       q    Type
REMARK                         _______ _______ _______ _____ _____    ______ ____
ROOT
ATOM      1  N   UNL     1      -1.318   3.413   0.027  0.00  0.00    -0.187 NA
ATOM      2  C   UNL     1      -1.302   2.115   0.020  0.00  0.00    +0.138 C 
ENDROOT
BRANCH   2   3
ATOM      3  C   UNL     1      -0.017   1.393   0.010  0.00  0.00    -0.002 A 
ATOM      4  C   UNL     1       1.186   2.105   0.002  0.00  0.00    +0.013 A 
ATOM      5  C   UNL     1       2.387   1.428  -0.013  0.00  0.00    +0.050 A 
ATOM      6  C   UNL     1       2.405   0.041  -0.021  0.00  0.00    +0.158 A 
ATOM      7  C   UNL     1       1.210  -0.675  -0.013  0.00  0.00    +0.159 A 
ATOM      8  C   UNL     1       0.002  -0.004   0.002  0.00  0.00    +0.058 A 
BRANCH   7   9
ATOM      9  O   UNL     1       1.232  -2.035  -0.020  0.00  0.00    -0.503 OA
ATOM     10  H   UNL     1       1.230  -2.424  -0.906  0.00  0.00    +0.292 HD
ENDBRANCH   7   9
BRANCH   6  11
ATOM     11  O   UNL     1       3.592  -0.622  -0.036  0.00  0.00    -0.503 OA
ATOM     12  H   UNL     1       3.927  -0.808  -0.924  0.00  0.00    +0.292 HD
ENDBRANCH   6  11
ENDBRANCH   2   3
BRANCH   1  15
ATOM     13  C   UNL     1      -2.556   5.446   0.044  0.00  0.00    +0.263 C 
ATOM     14  O   UNL     1      -1.510   6.067   0.042  0.00  0.00    -0.268 OA
ATOM     15  N   UNL     1      -2.540   4.098   0.036  0.00  0.00    -0.203 N 
ATOM     16  H   UNL     1      -3.374   3.603   0.038  0.00  0.00    +0.178 HD
BRANCH  13  19
ATOM     17  C   UNL     1      -6.247   6.141   0.064  0.00  0.00    +0.002 A 
ATOM     18  C   UNL     1      -5.047   5.460   0.050  0.00  0.00    +0.013 A 
ATOM     19  C   UNL     1      -3.845   6.169   0.054  0.00  0.00    +0.039 A 
ATOM     20  C   UNL     1      -3.865   7.565   0.061  0.00  0.00    +0.028 A 
ATOM     21  C   UNL     1      -5.072   8.235   0.070  0.00  0.00    +0.019 A 
ATOM     22  C   UNL     1      -6.261   7.524   0.072  0.00  0.00    +0.015 A 
ATOM     23 BR   UNL     1      -5.103  10.125   0.080  0.00  0.00    -0.050 Br
ENDBRANCH  13  19
ENDBRANCH   1  15
TORSDOF 5
