REMARK  Name = ZINC13801970
REMARK  7 active torsions:
REMARK  status: ('A' for Active; 'I' for Inactive)
REMARK    1  A    between atoms: C_1  and  C_2
REMARK    2  A    between atoms: C_9  and  C_26
REMARK    3  A    between atoms: C_9  and  O_27
REMARK    4  A    between atoms: C_10  and  C_23
REMARK    5  A    between atoms: C_12  and  C_14
REMARK    6  A    between atoms: C_18  and  N_20
REMARK    7  A    between atoms: C_23  and  C_25
REMARK                            x       y       z     vdW  Elec       q    Type
REMARK                         _______ _______ _______ _____ _____    ______ ____
ROOT
ATOM      1  C   UNL     1       0.064   6.309   1.792  0.00  0.00    +0.065 C 
ATOM      2  C   UNL     1       0.139   5.761   0.390  0.00  0.00    +0.037 A 
ATOM      3  C   UNL     1      -0.389   4.600  -0.039  0.00  0.00    +0.004 A 
ATOM      4  C   UNL     1      -0.097   4.468  -1.407  0.00  0.00    +0.070 A 
ATOM      5  N   UNL     1       0.583   5.513  -1.780  0.00  0.00    -0.178 NA
ATOM      6  N   UNL     1       0.747   6.349  -0.665  0.00  0.00    -0.281 N 
ATOM      7  H   UNL     1       1.229   7.225  -0.652  0.00  0.00    +0.189 HD
ATOM      8  C   UNL     1      -0.534   3.289  -2.242  0.00  0.00    +0.092 C 
ATOM      9  C   UNL     1      -1.641   2.549  -1.482  0.00  0.00    +0.079 C 
ATOM     10  C   UNL     1      -1.187   2.268  -0.049  0.00  0.00    +0.098 C 
ATOM     11  C   UNL     1      -1.165   3.576   0.752  0.00  0.00    +0.065 C 
ATOM     12  C   UNL     1      -2.904   3.412  -1.456  0.00  0.00    +0.042 C 
ENDROOT
BRANCH  11  13
ATOM     13  C   UNL     1      -0.494   3.346   2.082  0.00  0.00    -0.037 A 
ATOM     14  C   UNL     1      -1.249   2.998   3.187  0.00  0.00    +0.004 A 
ATOM     15  C   UNL     1      -0.633   2.783   4.405  0.00  0.00    +0.003 A 
ATOM     16  C   UNL     1       0.737   2.926   4.522  0.00  0.00    +0.033 A 
ATOM     17  C   UNL     1       1.491   3.279   3.419  0.00  0.00    +0.126 A 
ATOM     18  C   UNL     1       0.876   3.489   2.199  0.00  0.00    +0.037 A 
BRANCH  17  19
ATOM     19  N   UNL     1       2.958   3.432   3.545  0.00  0.00    +0.056 N 
ATOM     20  O   UNL     1       3.623   3.743   2.573  0.00  0.00    -0.126 OA
ATOM     21  O   UNL     1       3.500   3.247   4.620  0.00  0.00    -0.126 OA
ENDBRANCH  17  19
ENDBRANCH  11  13
BRANCH  10  22
ATOM     22  C   UNL     1       0.196   1.669  -0.069  0.00  0.00    +0.137 C 
ATOM     23  O   UNL     1       1.164   2.387  -0.160  0.00  0.00    -0.297 OA
ATOM     24  C   UNL     1       0.372   0.175   0.017  0.00  0.00    +0.086 C 
ENDBRANCH  10  22
BRANCH   9  25
ATOM     25  O   UNL     1      -1.924   1.314  -2.143  0.00  0.00    -0.388 OA
ATOM     26  H   UNL     1      -2.218   1.416  -3.058  0.00  0.00    +0.210 HD
ENDBRANCH   9  25
TORSDOF 4
