REMARK  Name = ZINC63229071
REMARK  11 active torsions:
REMARK  status: ('A' for Active; 'I' for Inactive)
REMARK    1  A    between atoms: C_1  and  O_2
REMARK    2  A    between atoms: O_2  and  C_3
REMARK    3  A    between atoms: C_7  and  N_9
REMARK    4  A    between atoms: C_10  and  C_12
REMARK    5  A    between atoms: C_12  and  O_13
REMARK    6  A    between atoms: O_13  and  C_14
REMARK    7  A    between atoms: C_14  and  C_16
REMARK    8  A    between atoms: C_16  and  C_18
REMARK    9  A    between atoms: C_16  and  N_28
REMARK   10  A    between atoms: C_18  and  C_19
REMARK   11  A    between atoms: C_29  and  C_31
REMARK                            x       y       z     vdW  Elec       q    Type
REMARK                         _______ _______ _______ _____ _____    ______ ____
ROOT
ATOM      1  C   UNL     1      -6.783  -8.448   0.563  0.00  0.00    +0.186 C 
ENDROOT
BRANCH   1   2
ATOM      2  N   UNL     1      -6.760  -9.909   0.668  0.00  0.00    -0.298 N 
ATOM      3  C   UNL     1      -7.832 -10.629   0.283  0.00  0.00    +0.245 C 
ATOM      4  O   UNL     1      -8.818 -10.067  -0.151  0.00  0.00    -0.270 OA
ATOM      5  H   UNL     1      -5.973 -10.358   1.015  0.00  0.00    +0.150 HD
BRANCH   3   6
ATOM      6  C   UNL     1      -7.809 -12.102   0.389  0.00  0.00    +0.037 A 
ATOM      7  C   UNL     1      -6.679 -12.751   0.893  0.00  0.00    +0.016 A 
ATOM      8  C   UNL     1      -6.663 -14.126   0.990  0.00  0.00    +0.039 A 
ATOM      9  C   UNL     1      -7.765 -14.865   0.587  0.00  0.00    +0.123 A 
ATOM     10  C   UNL     1      -8.889 -14.226   0.086  0.00  0.00    +0.039 A 
ATOM     11  C   UNL     1      -8.918 -12.851  -0.009  0.00  0.00    +0.016 A 
ATOM     12  F   UNL     1      -7.743 -16.212   0.683  0.00  0.00    -0.205 F 
ENDBRANCH   3   6
ENDBRANCH   1   2
BRANCH   1  13
ATOM     13  C   UNL     1      -5.373  -7.930   0.450  0.00  0.00    +0.328 C 
ATOM     14  O   UNL     1      -4.443  -8.702   0.456  0.00  0.00    -0.249 OA
BRANCH  13  15
ATOM     15  O   UNL     1      -5.149  -6.611   0.342  0.00  0.00    -0.454 OA
BRANCH  15  16
ATOM     16  C   UNL     1      -3.787  -6.190   0.237  0.00  0.00    +0.328 C 
BRANCH  16  18
ATOM     17  N   UNL     1      -2.543  -4.064   0.015  0.00  0.00    -0.283 N 
ATOM     18  C   UNL     1      -3.732  -4.689   0.125  0.00  0.00    +0.255 C 
ATOM     19  O   UNL     1      -4.758  -4.042   0.134  0.00  0.00    -0.272 OA
ATOM     20  H   UNL     1      -1.728  -4.584  -0.068  0.00  0.00    +0.155 HD
BRANCH  17  25
ATOM     21  C   UNL     1      -1.464  -0.623  -0.719  0.00  0.00    +0.122 A 
ATOM     22  C   UNL     1      -2.371   0.102   0.041  0.00  0.00    +0.046 A 
ATOM     23  C   UNL     1      -3.331  -0.555   0.787  0.00  0.00    +0.005 A 
ATOM     24  C   UNL     1      -3.389  -1.935   0.781  0.00  0.00    +0.023 A 
ATOM     25  C   UNL     1      -2.483  -2.666   0.022  0.00  0.00    +0.037 A 
ATOM     26  C   UNL     1      -1.523  -2.007  -0.732  0.00  0.00    +0.069 A 
BRANCH  21  28
ATOM     27  C   UNL     1      -0.518   1.452  -1.391  0.00  0.00    +0.277 C 
ATOM     28  O   UNL     1      -0.521   0.025  -1.452  0.00  0.00    -0.495 OA
ENDBRANCH  21  28
ENDBRANCH  17  25
ENDBRANCH  16  18
ENDBRANCH  15  16
ENDBRANCH  13  15
ENDBRANCH   1  13
BRANCH   1  29
ATOM     29  C   UNL     1      -7.444  -7.857   1.810  0.00  0.00    +0.067 C 
BRANCH  29  30
ATOM     30  C   UNL     1      -8.891  -8.277   1.858  0.00  0.00    -0.039 C 
ATOM     31  C   UNL     1      -9.411  -9.330   2.530  0.00  0.00    -0.001 A 
ATOM     32  C   UNL     1      -8.807 -10.361   3.382  0.00  0.00    +0.010 A 
ATOM     33  C   UNL     1      -9.603 -11.309   3.927  0.00  0.00    +0.001 A 
ATOM     34  C   UNL     1     -10.986 -11.332   3.699  0.00  0.00    +0.002 A 
ATOM     35  C   UNL     1     -11.612 -10.418   2.928  0.00  0.00    +0.026 A 
ATOM     36  C   UNL     1     -10.873  -9.375   2.305  0.00  0.00    +0.043 A 
ATOM     37  N   UNL     1     -11.243  -8.389   1.525  0.00  0.00    -0.380 N 
ATOM     38  C   UNL     1     -10.057  -7.601   1.171  0.00  0.00    +0.144 C 
ATOM     39  H   UNL     1     -12.150  -8.207   1.233  0.00  0.00    +0.160 HD
ENDBRANCH  29  30
ENDBRANCH   1  29
TORSDOF 10
