REMARK  Name = ZINC20459361
REMARK  10 active torsions:
REMARK  status: ('A' for Active; 'I' for Inactive)
REMARK    1  A    between atoms: C_1  and  C_2
REMARK    2  A    between atoms: C_6  and  C_8
REMARK    3  A    between atoms: C_8  and  C_10
REMARK    4  A    between atoms: C_8  and  C_20
REMARK    5  A    between atoms: C_12  and  O_18
REMARK    6  A    between atoms: C_14  and  O_16
REMARK    7  A    between atoms: O_16  and  C_17
REMARK    8  A    between atoms: O_18  and  C_19
REMARK    9  A    between atoms: C_20  and  C_21
REMARK   10  A    between atoms: C_20  and  C_23
REMARK                            x       y       z     vdW  Elec       q    Type
REMARK                         _______ _______ _______ _____ _____    ______ ____
ROOT
ATOM      1  C   UNL     1      -0.729   1.579   1.267  0.00  0.00    +0.079 C 
ENDROOT
BRANCH   1   7
ATOM      2  C   UNL     1       1.307  -1.534   4.625  0.00  0.00    +0.080 C 
ATOM      3  C   UNL     1       0.874  -0.269   3.929  0.00  0.00    +0.085 C 
ATOM      4  N   UNL     1       1.111   0.997   4.367  0.00  0.00    -0.169 NA
ATOM      5  H   UNL     1      -0.163  -1.005   2.151  0.00  0.00    +0.148 HD
ATOM      6  C   UNL     1       0.560   1.850   3.448  0.00  0.00    +0.258 C 
ATOM      7  C   UNL     1       0.000   1.080   2.488  0.00  0.00    +0.169 C 
ATOM      8  N   UNL     1       0.211  -0.206   2.808  0.00  0.00    -0.323 N 
ATOM      9  O   UNL     1       0.572   3.208   3.493  0.00  0.00    -0.272 OA
ENDBRANCH   1   7
BRANCH   1  10
ATOM     10  C   UNL     1      -2.143   1.058   1.278  0.00  0.00    -0.033 A 
ATOM     11  C   UNL     1      -2.375  -0.304   1.267  0.00  0.00    +0.050 A 
ATOM     12  C   UNL     1      -3.676  -0.787   1.282  0.00  0.00    +0.124 A 
ATOM     13  C   UNL     1      -4.743   0.098   1.297  0.00  0.00    +0.091 A 
ATOM     14  C   UNL     1      -4.507   1.464   1.302  0.00  0.00    +0.124 A 
ATOM     15  C   UNL     1      -3.204   1.942   1.292  0.00  0.00    +0.050 A 
BRANCH  14  16
ATOM     16  O   UNL     1      -5.550   2.335   1.316  0.00  0.00    -0.495 OA
ATOM     17  C   UNL     1      -6.864   1.772   1.325  0.00  0.00    +0.277 C 
ENDBRANCH  14  16
BRANCH  12  18
ATOM     18  O   UNL     1      -3.905  -2.127   1.277  0.00  0.00    -0.495 OA
ATOM     19  C   UNL     1      -5.269  -2.553   1.286  0.00  0.00    +0.277 C 
ENDBRANCH  12  18
ENDBRANCH   1  10
BRANCH   1  20
ATOM     20  C   UNL     1      -0.013   1.086   0.008  0.00  0.00    +0.203 C 
BRANCH  20  21
ATOM     21  C   UNL     1       1.368   1.595  -0.002  0.00  0.00    +0.082 C 
ATOM     22  N   UNL     1       2.434   1.988  -0.011  0.00  0.00    -0.195 NA
ENDBRANCH  20  21
BRANCH  20  23
ATOM     23  C   UNL     1      -0.725   1.573  -1.185  0.00  0.00    +0.082 C 
ATOM     24  N   UNL     1      -1.274   1.950  -2.105  0.00  0.00    -0.195 NA
ENDBRANCH  20  23
ENDBRANCH   1  20
TORSDOF 7
