REMARK  Name = ZINC27575478
REMARK  10 active torsions:
REMARK  status: ('A' for Active; 'I' for Inactive)
REMARK    1  A    between atoms: C_1  and  C_2
REMARK    2  A    between atoms: C_3  and  C_32
REMARK    3  A    between atoms: N_9  and  C_12
REMARK    4  A    between atoms: C_12  and  C_13
REMARK    5  A    between atoms: C_13  and  C_14
REMARK    6  A    between atoms: N_16  and  C_17
REMARK    7  A    between atoms: C_17  and  C_18
REMARK    8  A    between atoms: C_18  and  C_20
REMARK    9  A    between atoms: C_18  and  N_25
REMARK   10  A    between atoms: C_28  and  C_31
REMARK                            x       y       z     vdW  Elec       q    Type
REMARK                         _______ _______ _______ _____ _____    ______ ____
ROOT
ATOM      1  C   UNL     1      -4.423   0.006   1.223  0.00  0.00    +0.215 C 
ATOM      2  O   UNL     1      -5.098  -0.233   0.244  0.00  0.00    -0.276 OA
ATOM      3  N   UNL     1      -4.866  -0.341   2.448  0.00  0.00    -0.316 N 
ATOM      4  H   UNL     1      -4.254  -0.125   3.336  0.00  0.00    +0.149 HD
ENDROOT
BRANCH   1   5
ATOM      5  C   UNL     1      -3.090   0.691   1.070  0.00  0.00    +0.117 C 
BRANCH   5   6
ATOM      6  C   UNL     1      -2.829   0.974  -0.410  0.00  0.00    +0.135 C 
BRANCH   6  15
ATOM      7  C   UNL     1       2.338  -0.509  -1.163  0.00  0.00    +0.045 C 
ATOM      8  C   UNL     1       2.157   0.986  -1.086  0.00  0.00    -0.026 A 
ATOM      9  C   UNL     1       3.215   1.805  -1.203  0.00  0.00    -0.008 A 
ATOM     10  S   UNL     1       2.498   3.429  -1.046  0.00  0.00    -0.073 S 
ATOM     11  C   UNL     1       0.800   2.961  -0.828  0.00  0.00    +0.116 A 
ATOM     12  C   UNL     1       0.838   1.556  -0.883  0.00  0.00    +0.075 A 
ATOM     13  C   UNL     1      -0.425   0.896  -0.733  0.00  0.00    +0.262 A 
ATOM     14  O   UNL     1      -0.495  -0.321  -0.767  0.00  0.00    -0.267 OA
ATOM     15  N   UNL     1      -1.532   1.640  -0.559  0.00  0.00    -0.298 N 
ATOM     16  C   UNL     1      -1.472   2.996  -0.514  0.00  0.00    +0.203 A 
ATOM     17  N   UNL     1      -0.337   3.627  -0.648  0.00  0.00    -0.230 NA
ATOM     18  C   UNL     1       4.661   1.438  -1.416  0.00  0.00    +0.052 C 
ENDBRANCH   6  15
ENDBRANCH   5   6
ENDBRANCH   1   5
BRANCH   3  19
ATOM     19  C   UNL     1      -6.162  -1.008   2.597  0.00  0.00    +0.094 C 
BRANCH  19  20
ATOM     20  C   UNL     1      -6.423  -1.290   4.077  0.00  0.00    -0.013 C 
BRANCH  20  21
ATOM     21  N   UNL     1      -6.316  -0.040   4.841  0.00  0.00    +0.386 N 
ATOM     22  C   UNL     1      -7.064   1.042   4.187  0.00  0.00    -0.078 C 
ATOM     23  C   UNL     1      -6.812   2.358   4.926  0.00  0.00    -0.015 C 
ATOM     24  C   UNL     1      -7.259   2.212   6.384  0.00  0.00    -0.018 C 
ATOM     25  C   UNL     1      -6.501   1.048   7.028  0.00  0.00    -0.015 C 
ATOM     26  C   UNL     1      -6.762  -0.230   6.227  0.00  0.00    -0.078 C 
ATOM     27  C   UNL     1      -6.954   3.504   7.144  0.00  0.00    +0.007 C 
ATOM     28  H   UNL     1      -5.256   0.253   4.867  0.00  0.00    -0.081 HD
ENDBRANCH  20  21
BRANCH  20  29
ATOM     29  C   UNL     1      -7.808  -1.863   4.243  0.00  0.00    -0.022 A 
ATOM     30  C   UNL     1      -8.176  -3.133   4.539  0.00  0.00    +0.009 A 
ATOM     31  C   UNL     1      -9.521  -3.434   4.643  0.00  0.00    +0.008 A 
ATOM     32  C   UNL     1     -10.432  -2.450   4.446  0.00  0.00    +0.045 A 
ATOM     33  S   UNL     1      -9.387  -1.043   4.107  0.00  0.00    -0.103 S 
ENDBRANCH  20  29
ENDBRANCH  19  20
ENDBRANCH   3  19
TORSDOF 7
