REMARK  Name = ZINC09229688
REMARK  8 active torsions:
REMARK  status: ('A' for Active; 'I' for Inactive)
REMARK    1  A    between atoms: C_1  and  C_2
REMARK    2  A    between atoms: C_8  and  C_10
REMARK    3  A    between atoms: C_15  and  N_16
REMARK    4  A    between atoms: N_16  and  C_17
REMARK    5  A    between atoms: C_17  and  N_19
REMARK    6  A    between atoms: C_20  and  C_22
REMARK    7  A    between atoms: C_23  and  C_24
REMARK    8  A    between atoms: C_27  and  N_30
REMARK                            x       y       z     vdW  Elec       q    Type
REMARK                         _______ _______ _______ _____ _____    ______ ____
ROOT
ATOM      1  N   UNL     1       2.373  -2.680  -0.117  0.00  0.00    -0.296 N 
ATOM      2  H   UNL     1       3.009  -2.160   0.399  0.00  0.00    +0.154 HD
ENDROOT
BRANCH   1   8
ATOM      3  C   UNL     1       3.541  -4.787   0.134  0.00  0.00    +0.058 A 
ATOM      4  C   UNL     1       3.498  -6.178   0.257  0.00  0.00    +0.015 A 
ATOM      5  C   UNL     1       2.285  -6.832   0.254  0.00  0.00    +0.001 A 
ATOM      6  C   UNL     1       1.105  -6.116   0.129  0.00  0.00    +0.002 A 
ATOM      7  C   UNL     1       1.131  -4.741   0.012  0.00  0.00    +0.024 A 
ATOM      8  C   UNL     1       2.344  -4.066   0.007  0.00  0.00    +0.045 A 
BRANCH   3  16
ATOM      9  C   UNL     1       7.300  -3.057   4.890  0.00  0.00    +0.007 C 
ATOM     10  C   UNL     1       7.042  -3.826   3.592  0.00  0.00    -0.011 C 
ATOM     11  C   UNL     1       7.277  -2.900   2.396  0.00  0.00    +0.022 C 
ATOM     12  C   UNL     1       7.051  -3.682   1.098  0.00  0.00    +0.108 C 
ATOM     13  N   UNL     1       5.714  -4.289   1.138  0.00  0.00    -0.297 N 
ATOM     14  C   UNL     1       5.349  -5.120   2.293  0.00  0.00    +0.108 C 
ATOM     15  C   UNL     1       5.596  -4.326   3.575  0.00  0.00    +0.022 C 
ATOM     16  C   UNL     1       4.836  -4.082   0.137  0.00  0.00    +0.248 C 
ATOM     17  O   UNL     1       5.112  -3.313  -0.764  0.00  0.00    -0.270 OA
ENDBRANCH   3  16
ENDBRANCH   1   8
BRANCH   1  18
ATOM     18  C   UNL     1       1.516  -2.060  -0.953  0.00  0.00    +0.141 C 
ATOM     19  S   UNL     1       0.443  -2.982  -1.916  0.00  0.00    -0.018 S 
BRANCH  18  20
ATOM     20  N   UNL     1       1.506  -0.714  -1.030  0.00  0.00    -0.264 N 
ATOM     21  C   UNL     1       0.649  -0.095  -1.867  0.00  0.00    +0.242 C 
ATOM     22  O   UNL     1      -0.114  -0.750  -2.551  0.00  0.00    -0.270 OA
ATOM     23  H   UNL     1       2.114  -0.192  -0.485  0.00  0.00    +0.157 HD
BRANCH  21  24
ATOM     24  C   UNL     1       0.637   1.366  -1.951  0.00  0.00    +0.068 C 
ATOM     25  C   UNL     1      -0.216   1.986  -2.792  0.00  0.00    +0.013 C 
BRANCH  25  26
ATOM     26  C   UNL     1      -0.228   3.455  -2.877  0.00  0.00    -0.025 A 
ATOM     27  C   UNL     1       0.640   4.212  -2.083  0.00  0.00    +0.010 A 
ATOM     28  C   UNL     1       0.626   5.588  -2.172  0.00  0.00    +0.033 A 
ATOM     29  C   UNL     1      -0.250   6.221  -3.036  0.00  0.00    +0.126 A 
ATOM     30  C   UNL     1      -1.116   5.479  -3.821  0.00  0.00    +0.033 A 
ATOM     31  C   UNL     1      -1.111   4.102  -3.748  0.00  0.00    +0.010 A 
BRANCH  29  32
ATOM     32  N   UNL     1      -0.262   7.698  -3.122  0.00  0.00    +0.056 N 
ATOM     33  O   UNL     1      -1.033   8.258  -3.881  0.00  0.00    -0.126 OA
ATOM     34  O   UNL     1       0.498   8.354  -2.433  0.00  0.00    -0.126 OA
ENDBRANCH  29  32
ENDBRANCH  25  26
ENDBRANCH  21  24
ENDBRANCH  18  20
ENDBRANCH   1  18
TORSDOF 7
