REMARK  Name = ZINC63985981
REMARK  9 active torsions:
REMARK  status: ('A' for Active; 'I' for Inactive)
REMARK    1  A    between atoms: C_1  and  N_2
REMARK    2  A    between atoms: N_2  and  C_3
REMARK    3  A    between atoms: C_4  and  C_6
REMARK    4  A    between atoms: N_9  and  C_11
REMARK    5  A    between atoms: C_11  and  C_12
REMARK    6  A    between atoms: C_16  and  N_19
REMARK    7  A    between atoms: N_19  and  C_20
REMARK    8  A    between atoms: C_20  and  C_21
REMARK    9  A    between atoms: C_21  and  C_22
REMARK                            x       y       z     vdW  Elec       q    Type
REMARK                         _______ _______ _______ _____ _____    ______ ____
ROOT
ATOM      1  C   UNL     1      -1.427  -1.988   0.546  0.00  0.00    +0.151 A 
ATOM      2  C   UNL     1      -2.641  -2.679   0.698  0.00  0.00    +0.004 A 
ATOM      3  C   UNL     1      -2.307  -3.960   0.989  0.00  0.00    +0.043 A 
ATOM      4  N   UNL     1      -0.966  -4.027   1.006  0.00  0.00    -0.264 N 
ATOM      5  N   UNL     1      -0.462  -2.871   0.742  0.00  0.00    -0.166 NA
ATOM      6  C   UNL     1      -3.312  -5.055   1.237  0.00  0.00    +0.054 C 
ATOM      7  C   UNL     1      -4.674  -4.406   1.515  0.00  0.00    -0.009 C 
ATOM      8  C   UNL     1      -4.987  -3.378   0.425  0.00  0.00    -0.067 C 
ATOM      9  C   UNL     1      -4.051  -2.171   0.575  0.00  0.00    +0.023 C 
ENDROOT
BRANCH   1  13
ATOM     10  C   UNL     1       0.147   1.386  -0.202  0.00  0.00    +0.132 C 
ATOM     11  N   UNL     1      -0.031  -0.054   0.000  0.00  0.00    -0.302 N 
ATOM     12  C   UNL     1       1.129  -0.948  -0.041  0.00  0.00    +0.132 C 
ATOM     13  C   UNL     1      -1.261  -0.556   0.225  0.00  0.00    +0.267 C 
ATOM     14  O   UNL     1      -2.234   0.170   0.162  0.00  0.00    -0.268 OA
ENDBRANCH   1  13
BRANCH   8  15
ATOM     15  N   UNL     1      -6.381  -2.935   0.555  0.00  0.00    +0.381 N 
ATOM     16  H   UNL     1      -6.539  -2.590   1.490  0.00  0.00    -0.086 HD
ATOM     17  H   UNL     1      -6.564  -2.199  -0.110  0.00  0.00    -0.086 HD
BRANCH  15  18
ATOM     18  C   UNL     1      -7.281  -4.066   0.292  0.00  0.00    -0.078 C 
BRANCH  18  19
ATOM     19  C   UNL     1      -8.733  -3.605   0.428  0.00  0.00    +0.014 C 
BRANCH  19  20
ATOM     20  C   UNL     1      -9.656  -4.766   0.158  0.00  0.00    -0.043 C 
ATOM     21  C   UNL     1     -10.216  -5.589   1.073  0.00  0.00    -0.001 A 
ATOM     22  C   UNL     1     -10.137  -5.649   2.538  0.00  0.00    +0.010 A 
ATOM     23  C   UNL     1     -10.826  -6.610   3.194  0.00  0.00    +0.001 A 
ATOM     24  C   UNL     1     -11.612  -7.549   2.511  0.00  0.00    +0.002 A 
ATOM     25  C   UNL     1     -11.734  -7.558   1.167  0.00  0.00    +0.026 A 
ATOM     26  C   UNL     1     -11.054  -6.592   0.377  0.00  0.00    +0.043 A 
ATOM     27  N   UNL     1     -11.012  -6.396  -0.919  0.00  0.00    -0.380 N 
ATOM     28  C   UNL     1     -10.148  -5.242  -1.190  0.00  0.00    +0.144 C 
ATOM     29  H   UNL     1     -11.479  -6.924  -1.586  0.00  0.00    +0.160 HD
ENDBRANCH  19  20
ENDBRANCH  18  19
ENDBRANCH  15  18
ENDBRANCH   8  15
BRANCH   4  30
ATOM     30  C   UNL     1      -0.188  -5.238   1.280  0.00  0.00    +0.170 C 
BRANCH  30  31
ATOM     31  C   UNL     1       0.081  -5.966  -0.012  0.00  0.00    -0.012 C 
ATOM     32  C   UNL     1       1.311  -6.260  -0.354  0.00  0.00    +0.006 C 
ENDBRANCH  30  31
ENDBRANCH   4  30
TORSDOF 7
