REMARK  Name = ZINC49946859
REMARK  7 active torsions:
REMARK  status: ('A' for Active; 'I' for Inactive)
REMARK    1  A    between atoms: C_1  and  C_2
REMARK    2  A    between atoms: C_3  and  C_26
REMARK    3  A    between atoms: C_4  and  C_16
REMARK    4  A    between atoms: C_19  and  O_25
REMARK    5  A    between atoms: C_20  and  N_22
REMARK    6  A    between atoms: C_26  and  O_28
REMARK    7  A    between atoms: O_28  and  C_29
REMARK                            x       y       z     vdW  Elec       q    Type
REMARK                         _______ _______ _______ _____ _____    ______ ____
ROOT
ATOM      1  C   UNL     1      -0.013   1.086   0.008  0.00  0.00    +0.028 C 
ATOM      2  C   UNL     1      -0.753   1.593  -1.232  0.00  0.00    +0.081 C 
ATOM      3  C   UNL     1      -2.189   1.063  -1.222  0.00  0.00    +0.126 C 
ATOM      4  C   UNL     1      -2.942   1.628  -0.013  0.00  0.00    +0.051 C 
ATOM      5  C   UNL     1      -2.983   3.155  -0.122  0.00  0.00    +0.112 C 
ATOM      6  C   UNL     1      -1.577   3.667  -0.271  0.00  0.00    +0.015 C 
ATOM      7  N   UNL     1      -0.781   3.064  -1.220  0.00  0.00    -0.343 N 
ATOM      8  C   UNL     1      -1.078   4.648   0.503  0.00  0.00    +0.019 C 
ATOM      9  C   UNL     1      -1.821   5.214   1.545  0.00  0.00    +0.005 C 
ATOM     10  C   UNL     1      -3.086   4.758   1.828  0.00  0.00    +0.047 C 
ATOM     11  C   UNL     1      -3.653   3.759   1.070  0.00  0.00    +0.165 C 
ATOM     12  O   UNL     1      -4.758   3.364   1.388  0.00  0.00    -0.292 OA
ATOM     13  H   UNL     1      -0.263   3.587  -1.853  0.00  0.00    +0.146 HD
ENDROOT
BRANCH   4  14
ATOM     14  C   UNL     1      -4.347   1.084   0.006  0.00  0.00    -0.040 A 
ATOM     15  C   UNL     1      -5.194   1.321  -1.061  0.00  0.00    +0.007 A 
ATOM     16  C   UNL     1      -6.482   0.823  -1.046  0.00  0.00    +0.048 A 
ATOM     17  C   UNL     1      -6.926   0.083   0.041  0.00  0.00    +0.147 A 
ATOM     18  C   UNL     1      -6.075  -0.154   1.110  0.00  0.00    +0.168 A 
ATOM     19  C   UNL     1      -4.785   0.342   1.088  0.00  0.00    +0.040 A 
BRANCH  18  20
ATOM     20  N   UNL     1      -6.545  -0.942   2.271  0.00  0.00    +0.060 N 
ATOM     21  O   UNL     1      -5.802  -1.149   3.202  0.00  0.00    -0.126 OA
ATOM     22  O   UNL     1      -7.672  -1.380   2.288  0.00  0.00    -0.126 OA
ENDBRANCH  18  20
BRANCH  17  23
ATOM     23  O   UNL     1      -8.193  -0.407   0.058  0.00  0.00    -0.504 OA
ATOM     24  H   UNL     1      -8.278  -1.291  -0.326  0.00  0.00    +0.292 HD
ENDBRANCH  17  23
ENDBRANCH   4  14
BRANCH   3  25
ATOM     25  C   UNL     1      -2.168  -0.441  -1.141  0.00  0.00    +0.312 C 
ATOM     26  O   UNL     1      -2.695  -1.003  -0.210  0.00  0.00    -0.250 OA
BRANCH  25  27
ATOM     27  O   UNL     1      -1.565  -1.157  -2.103  0.00  0.00    -0.468 OA
ATOM     28  C   UNL     1      -1.583  -2.579  -1.962  0.00  0.00    +0.280 C 
ENDBRANCH  25  27
ENDBRANCH   3  25
TORSDOF 5
