REMARK  Name = ZINC04112521
REMARK  3 active torsions:
REMARK  status: ('A' for Active; 'I' for Inactive)
REMARK    1  A    between atoms: N_4  and  C_7
REMARK    2  A    between atoms: C_7  and  C_26
REMARK    3  A    between atoms: N_15  and  C_16
REMARK                            x       y       z     vdW  Elec       q    Type
REMARK                         _______ _______ _______ _____ _____    ______ ____
ROOT
ATOM      1  C   UNL     1       2.974  -0.582   2.301  0.00  0.00    +0.015 C 
ATOM      2  C   UNL     1       4.449  -0.188   2.414  0.00  0.00    +0.016 C 
ATOM      3  C   UNL     1       5.022  -0.742   3.722  0.00  0.00    +0.108 C 
ATOM      4  N   UNL     1       4.780  -2.190   3.769  0.00  0.00    -0.286 N 
ATOM      5  C   UNL     1       3.409  -2.683   3.580  0.00  0.00    +0.108 C 
ATOM      6  C   UNL     1       2.853  -2.108   2.274  0.00  0.00    +0.016 C 
ATOM      7  C   UNL     1       5.796  -3.050   3.980  0.00  0.00    +0.303 C 
ATOM      8  O   UNL     1       6.910  -2.627   4.225  0.00  0.00    -0.253 OA
ATOM      9  N   UNL     1       5.578  -4.379   3.921  0.00  0.00    -0.294 N 
ATOM     10  H   UNL     1       4.677  -4.717   3.799  0.00  0.00    +0.151 HD
ENDROOT
BRANCH   9  11
ATOM     11  C   UNL     1       6.701  -5.312   4.042  0.00  0.00    +0.037 C 
ATOM     12  C   UNL     1       7.704  -5.051   2.916  0.00  0.00    +0.029 C 
ATOM     13  C   UNL     1       8.877  -6.025   3.042  0.00  0.00    -0.008 C 
ATOM     14  C   UNL     1       8.359  -7.462   2.942  0.00  0.00    +0.007 C 
ATOM     15  C   UNL     1       7.357  -7.722   4.068  0.00  0.00    -0.008 C 
ATOM     16  C   UNL     1       6.184  -6.748   3.942  0.00  0.00    +0.029 C 
ATOM     17  C   UNL     1       8.044  -7.521   5.420  0.00  0.00    +0.007 C 
ATOM     18  C   UNL     1       8.561  -6.084   5.520  0.00  0.00    -0.008 C 
ATOM     19  C   UNL     1       9.564  -5.824   4.394  0.00  0.00    +0.007 C 
ATOM     20  C   UNL     1       7.388  -5.110   5.394  0.00  0.00    +0.029 C 
ENDBRANCH   9  11
BRANCH   1  24
ATOM     21  C   UNL     1       0.544   1.618  -0.421  0.00  0.00    -0.004 C 
ATOM     22  C   UNL     1       2.008   2.021  -0.224  0.00  0.00    -0.019 C 
ATOM     23  C   UNL     1       2.518   1.439   1.097  0.00  0.00    -0.077 C 
ATOM     24  N   UNL     1       2.412  -0.024   1.064  0.00  0.00    +0.389 N 
ATOM     25  C   UNL     1       1.003  -0.419   0.947  0.00  0.00    -0.077 C 
ATOM     26  C   UNL     1       0.435   0.091  -0.379  0.00  0.00    -0.019 C 
ATOM     27  H   UNL     1       2.927  -0.380   0.273  0.00  0.00    -0.080 HD
ENDBRANCH   1  24
BRANCH   1  28
ATOM     28  C   UNL     1       2.217  -0.040   3.486  0.00  0.00    +0.200 C 
ATOM     29  O   UNL     1       1.400  -0.734   4.053  0.00  0.00    -0.278 OA
ATOM     30  N   UNL     1       2.449   1.217   3.916  0.00  0.00    -0.330 N 
ATOM     31  H   UNL     1       3.049   1.796   3.420  0.00  0.00    +0.145 HD
ATOM     32  H   UNL     1       2.015   1.542   4.720  0.00  0.00    +0.145 HD
ENDBRANCH   1  28
TORSDOF 3
