REMARK  Name = ZINC19325500
REMARK  5 active torsions:
REMARK  status: ('A' for Active; 'I' for Inactive)
REMARK    1  A    between atoms: C_4  and  C_7
REMARK    2  A    between atoms: C_7  and  C_20
REMARK    3  A    between atoms: N_8  and  N_9
REMARK    4  A    between atoms: C_10  and  C_11
REMARK    5  A    between atoms: C_14  and  N_17
REMARK                            x       y       z     vdW  Elec       q    Type
REMARK                         _______ _______ _______ _____ _____    ______ ____
ROOT
ATOM      1  C   UNL     1       2.412   3.937   0.001  0.00  0.00    +0.077 C 
ATOM      2  N   UNL     1       3.575   3.344   0.069  0.00  0.00    -0.153 NA
ENDROOT
BRANCH   1   3
ATOM      3  C   UNL     1       2.336   5.438  -0.115  0.00  0.00    +0.026 C 
ATOM      4  C   UNL     1       1.665   6.034   1.130  0.00  0.00    -0.059 C 
ATOM      5  N   UNL     1       1.613   7.515   0.942  0.00  0.00    +0.397 N 
ATOM      6  C   UNL     1       2.977   8.059   0.836  0.00  0.00    +0.011 C 
ATOM      7  N   UNL     1       3.625   7.496  -0.360  0.00  0.00    -0.305 NA
ATOM      8  C   UNL     1       3.746   6.034  -0.237  0.00  0.00    +0.096 C 
ATOM      9  C   UNL     1       2.858   7.847  -1.566  0.00  0.00    +0.167 C 
ATOM     10  N   UNL     1       1.495   7.305  -1.442  0.00  0.00    -0.305 NA
ATOM     11  C   UNL     1       1.534   5.836  -1.362  0.00  0.00    +0.096 C 
ATOM     12  C   UNL     1       0.831   7.866  -0.255  0.00  0.00    +0.011 C 
ATOM     13  H   UNL     1       1.118   7.973   1.812  0.00  0.00    -0.078 HD
ENDBRANCH   1   3
BRANCH   1  17
ATOM     14  C   UNL     1      -1.149   1.636   0.100  0.00  0.00    +0.000 A 
ATOM     15  C   UNL     1       0.080   1.001   0.061  0.00  0.00    +0.001 A 
ATOM     16  C   UNL     1       1.242   1.742   0.026  0.00  0.00    +0.010 A 
ATOM     17  C   UNL     1       1.177   3.139   0.037  0.00  0.00    -0.001 A 
ATOM     18  C   UNL     1      -0.069   3.773   0.082  0.00  0.00    +0.010 A 
ATOM     19  C   UNL     1      -1.222   3.018   0.116  0.00  0.00    +0.001 A 
ENDBRANCH   1  17
BRANCH   2  20
ATOM     20  N   UNL     1       4.654   4.048   0.138  0.00  0.00    -0.157 NA
ATOM     21  C   UNL     1       5.817   3.455   0.207  0.00  0.00    +0.142 C 
BRANCH  21  22
ATOM     22  C   UNL     1       7.048   4.257   0.286  0.00  0.00    -0.005 A 
ATOM     23  C   UNL     1       6.978   5.654   0.282  0.00  0.00    +0.012 A 
ATOM     24  C   UNL     1       8.135   6.399   0.362  0.00  0.00    +0.033 A 
ATOM     25  C   UNL     1       9.365   5.768   0.434  0.00  0.00    +0.126 A 
ATOM     26  C   UNL     1       9.443   4.386   0.433  0.00  0.00    +0.033 A 
ATOM     27  C   UNL     1       8.294   3.627   0.359  0.00  0.00    +0.012 A 
BRANCH  25  28
ATOM     28  N   UNL     1      10.603   6.575   0.514  0.00  0.00    +0.056 N 
ATOM     29  O   UNL     1      11.687   6.023   0.578  0.00  0.00    -0.126 OA
ATOM     30  O   UNL     1      10.538   7.791   0.516  0.00  0.00    -0.126 OA
ENDBRANCH  25  28
ENDBRANCH  21  22
ENDBRANCH   2  20
TORSDOF 5
