REMARK  Name = ZINC33851144
REMARK  9 active torsions:
REMARK  status: ('A' for Active; 'I' for Inactive)
REMARK    1  A    between atoms: C_1  and  C_2
REMARK    2  A    between atoms: C_2  and  N_3
REMARK    3  A    between atoms: C_7  and  C_23
REMARK    4  A    between atoms: N_11  and  C_12
REMARK    5  A    between atoms: C_15  and  C_18
REMARK    6  A    between atoms: C_18  and  O_20
REMARK    7  A    between atoms: O_20  and  C_21
REMARK    8  A    between atoms: C_21  and  C_22
REMARK    9  A    between atoms: N_25  and  C_26
REMARK                            x       y       z     vdW  Elec       q    Type
REMARK                         _______ _______ _______ _____ _____    ______ ____
ROOT
ATOM      1  N   UNL     1      -1.377  -0.503  -0.002  0.00  0.00    -0.251 N 
ATOM      2  C   UNL     1      -1.942  -0.725   1.175  0.00  0.00    +0.223 C 
ATOM      3  O   UNL     1      -1.213  -0.610   2.137  0.00  0.00    -0.275 OA
ATOM      4  C   UNL     1      -3.353  -1.096   1.474  0.00  0.00    +0.120 C 
ATOM      5  C   UNL     1      -4.012  -1.862   0.325  0.00  0.00    +0.149 C 
ATOM      6  S   UNL     1      -3.763  -0.902  -1.204  0.00  0.00    -0.077 S 
ATOM      7  C   UNL     1      -2.001  -0.715  -1.216  0.00  0.00    +0.164 C 
ATOM      8  N   UNL     1      -1.316  -0.780  -2.336  0.00  0.00    -0.226 NA
ENDROOT
BRANCH   8   9
ATOM      9  C   UNL     1      -1.960  -0.991  -3.519  0.00  0.00    +0.067 A 
ATOM     10  C   UNL     1      -2.957  -1.969  -3.609  0.00  0.00    +0.028 A 
ATOM     11  C   UNL     1      -3.602  -2.180  -4.792  0.00  0.00    +0.017 A 
ATOM     12  C   UNL     1      -3.267  -1.418  -5.918  0.00  0.00    +0.059 A 
ATOM     13  C   UNL     1      -2.270  -0.439  -5.828  0.00  0.00    +0.017 A 
ATOM     14  C   UNL     1      -1.629  -0.224  -4.643  0.00  0.00    +0.028 A 
BRANCH  12  15
ATOM     15  C   UNL     1      -3.962  -1.645  -7.195  0.00  0.00    +0.339 C 
ATOM     16  O   UNL     1      -4.828  -2.495  -7.272  0.00  0.00    -0.245 OA
BRANCH  15  17
ATOM     17  O   UNL     1      -3.639  -0.911  -8.278  0.00  0.00    -0.461 OA
BRANCH  17  18
ATOM     18  C   UNL     1      -4.355  -1.186  -9.485  0.00  0.00    +0.229 C 
ATOM     19  C   UNL     1      -3.854  -0.261 -10.596  0.00  0.00    +0.048 C 
ENDBRANCH  17  18
ENDBRANCH  15  17
ENDBRANCH  12  15
ENDBRANCH   8   9
BRANCH   5  20
ATOM     20  C   UNL     1      -5.487  -2.018   0.596  0.00  0.00    +0.231 C 
ATOM     21  O   UNL     1      -6.096  -1.135   1.162  0.00  0.00    -0.274 OA
ATOM     22  N   UNL     1      -6.128  -3.138   0.209  0.00  0.00    -0.285 N 
ATOM     23  H   UNL     1      -5.657  -3.814  -0.303  0.00  0.00    +0.155 HD
BRANCH  22  24
ATOM     24  C   UNL     1      -7.474  -3.325   0.544  0.00  0.00    +0.035 A 
ATOM     25  C   UNL     1      -7.946  -4.597   0.841  0.00  0.00    +0.025 A 
ATOM     26  C   UNL     1      -9.274  -4.780   1.173  0.00  0.00    +0.023 A 
ATOM     27  C   UNL     1     -10.135  -3.697   1.210  0.00  0.00    +0.059 A 
ATOM     28  C   UNL     1      -9.668  -2.428   0.914  0.00  0.00    +0.061 A 
ATOM     29  C   UNL     1      -8.338  -2.239   0.587  0.00  0.00    +0.044 A 
ATOM     30 CL   UNL     1     -10.751  -1.072   0.960  0.00  0.00    -0.082 Cl
ATOM     31 CL   UNL     1     -11.804  -3.931   1.627  0.00  0.00    -0.082 Cl
ENDBRANCH  22  24
ENDBRANCH   5  20
BRANCH   1  33
ATOM     32  C   UNL     1      -0.027   1.536  -0.003  0.00  0.00    +0.025 C 
ATOM     33  C   UNL     1      -0.004   0.006  -0.018  0.00  0.00    +0.112 C 
ENDBRANCH   1  33
TORSDOF 7
