REMARK  Name = ZINC13123475
REMARK  9 active torsions:
REMARK  status: ('A' for Active; 'I' for Inactive)
REMARK    1  A    between atoms: C_1  and  C_2
REMARK    2  A    between atoms: C_3  and  C_9
REMARK    3  A    between atoms: C_4  and  C_8
REMARK    4  A    between atoms: N_5  and  C_7
REMARK    5  A    between atoms: C_9  and  N_10
REMARK    6  A    between atoms: N_10  and  C_11
REMARK    7  A    between atoms: C_12  and  C_14
REMARK    8  A    between atoms: C_19  and  C_30
REMARK    9  A    between atoms: C_22  and  C_25
REMARK                            x       y       z     vdW  Elec       q    Type
REMARK                         _______ _______ _______ _____ _____    ______ ____
ROOT
ATOM      1  C   UNL     1       2.987   1.777  -3.591  0.00  0.00    +0.149 A 
ATOM      2  C   UNL     1       3.464   3.104  -3.490  0.00  0.00    +0.078 A 
ATOM      3  C   UNL     1       4.594   3.187  -4.221  0.00  0.00    +0.119 A 
ATOM      4  N   UNL     1       4.833   1.961  -4.774  0.00  0.00    -0.238 N 
ATOM      5  N   UNL     1       3.819   1.098  -4.360  0.00  0.00    -0.164 NA
ATOM      6  C   UNL     1       5.979   1.670  -5.641  0.00  0.00    +0.215 C 
ATOM      7  C   UNL     1       6.531   2.990  -6.192  0.00  0.00    +0.063 C 
ATOM      8  C   UNL     1       6.745   3.985  -5.046  0.00  0.00    +0.111 C 
ATOM      9  N   UNL     1       5.435   4.282  -4.433  0.00  0.00    -0.322 N 
ATOM     10  H   UNL     1       5.174   5.185  -4.191  0.00  0.00    +0.148 HD
ENDROOT
BRANCH   8  11
ATOM     11  C   UNL     1       7.665   3.382  -4.017  0.00  0.00    +0.010 A 
ATOM     12  C   UNL     1       8.990   3.595  -3.828  0.00  0.00    +0.013 A 
ATOM     13  C   UNL     1       9.638   2.924  -2.808  0.00  0.00    +0.008 A 
ATOM     14  C   UNL     1       8.929   2.074  -2.026  0.00  0.00    +0.045 A 
ATOM     15  S   UNL     1       7.292   2.208  -2.725  0.00  0.00    -0.100 S 
ENDBRANCH   8  11
BRANCH   1  18
ATOM     16  N   UNL     1       1.493  -0.074  -3.019  0.00  0.00    -0.295 N 
ATOM     17  C   UNL     1       2.450  -0.992  -3.641  0.00  0.00    +0.132 C 
ATOM     18  C   UNL     1       1.771   1.242  -2.945  0.00  0.00    +0.267 C 
ATOM     19  O   UNL     1       1.021   1.989  -2.347  0.00  0.00    -0.268 OA
BRANCH  16  20
ATOM     20  C   UNL     1       0.232  -0.588  -2.477  0.00  0.00    +0.146 C 
BRANCH  20  23
ATOM     21  C   UNL     1      -0.192   1.317   0.020  0.00  0.00    +0.068 C 
ATOM     22  C   UNL     1       0.237  -0.127   0.072  0.00  0.00    +0.065 A 
ATOM     23  C   UNL     1       0.425  -0.967  -1.031  0.00  0.00    +0.013 A 
ATOM     24  C   UNL     1       0.809  -2.180  -0.570  0.00  0.00    +0.041 A 
ATOM     25  N   UNL     1       0.863  -2.110   0.777  0.00  0.00    -0.271 N 
ATOM     26  N   UNL     1       0.505  -0.810   1.156  0.00  0.00    -0.176 NA
ATOM     27  C   UNL     1       1.235  -3.200   1.682  0.00  0.00    +0.172 C 
ATOM     28  C   UNL     1       1.120  -3.392  -1.410  0.00  0.00    +0.065 C 
ENDBRANCH  20  23
ENDBRANCH  16  20
ENDBRANCH   1  18
BRANCH   6  29
ATOM     29  C   UNL     1       5.531   0.776  -6.799  0.00  0.00    +0.412 C 
ATOM     30  F   UNL     1       4.541   1.432  -7.540  0.00  0.00    -0.168 F 
ATOM     31  F   UNL     1       6.625   0.500  -7.625  0.00  0.00    -0.168 F 
ATOM     32  F   UNL     1       5.016  -0.422  -6.291  0.00  0.00    -0.168 F 
ENDBRANCH   6  29
TORSDOF 5
