REMARK  Name = ZINC02105411
REMARK  1 active torsions:
REMARK  status: ('A' for Active; 'I' for Inactive)
REMARK    1  A    between atoms: C_4  and  N_7
REMARK                            x       y       z     vdW  Elec       q    Type
REMARK                         _______ _______ _______ _____ _____    ______ ____
ROOT
ATOM      1  N   UNL     1       3.624  -0.652  -0.037  0.00  0.00    -0.210 N 
ATOM      2  C   UNL     1       4.801  -0.025  -0.139  0.00  0.00    +0.228 C 
ATOM      3  O   UNL     1       4.950   1.175  -0.225  0.00  0.00    -0.275 OA
ATOM      4  C   UNL     1       5.917  -1.045  -0.128  0.00  0.00    +0.074 C 
ATOM      5  C   UNL     1       6.735  -0.894   1.168  0.00  0.00    -0.054 C 
ATOM      6  C   UNL     1       6.585   0.544   1.698  0.00  0.00    -0.016 C 
ATOM      7  C   UNL     1       5.376   0.507   2.654  0.00  0.00    -0.020 C 
ATOM      8  C   UNL     1       4.871  -0.949   2.608  0.00  0.00    -0.076 C 
ATOM      9  N   UNL     1       6.054  -1.772   2.167  0.00  0.00    +0.395 N 
ATOM     10  C   UNL     1       5.598  -2.936   1.388  0.00  0.00    +0.053 C 
ATOM     11  C   UNL     1       5.164  -2.397   0.003  0.00  0.00    +0.089 C 
ATOM     12  C   UNL     1       3.710  -1.984   0.052  0.00  0.00    +0.229 C 
ATOM     13  O   UNL     1       2.770  -2.742   0.155  0.00  0.00    -0.275 OA
ATOM     14  C   UNL     1       6.679  -3.970   1.255  0.00  0.00    -0.026 A 
ATOM     15  C   UNL     1       7.949  -3.952   0.721  0.00  0.00    +0.019 A 
ATOM     16  C   UNL     1       8.728  -5.095   0.747  0.00  0.00    +0.018 A 
ATOM     17  C   UNL     1       8.229  -6.256   1.311  0.00  0.00    +0.017 A 
ATOM     18  C   UNL     1       6.958  -6.279   1.847  0.00  0.00    +0.024 A 
ATOM     19  C   UNL     1       6.167  -5.132   1.825  0.00  0.00    +0.036 A 
ATOM     20  N   UNL     1       4.871  -4.909   2.295  0.00  0.00    -0.286 N 
ATOM     21  C   UNL     1       4.463  -3.644   2.078  0.00  0.00    +0.212 C 
ATOM     22  O   UNL     1       3.389  -3.169   2.379  0.00  0.00    -0.277 OA
ATOM     23 BR   UNL     1      10.471  -5.072   0.013  0.00  0.00    -0.050 Br
ATOM     24  H   UNL     1       4.329  -5.586   2.729  0.00  0.00    +0.155 HD
ATOM     25  H   UNL     1       6.658  -2.026   2.934  0.00  0.00    -0.079 HD
ENDROOT
BRANCH   1  29
ATOM     26  C   UNL     1      -0.016   1.380   0.011  0.00  0.00    +0.000 A 
ATOM     27  C   UNL     1       0.418   0.714   1.143  0.00  0.00    +0.002 A 
ATOM     28  C   UNL     1       1.623   0.040   1.130  0.00  0.00    +0.024 A 
ATOM     29  C   UNL     1       2.399   0.031  -0.021  0.00  0.00    +0.044 A 
ATOM     30  C   UNL     1       1.961   0.699  -1.156  0.00  0.00    +0.024 A 
ATOM     31  C   UNL     1       0.755   1.372  -1.137  0.00  0.00    +0.002 A 
ENDBRANCH   1  29
TORSDOF 1
