REMARK  Name = ZINC08913976
REMARK  8 active torsions:
REMARK  status: ('A' for Active; 'I' for Inactive)
REMARK    1  A    between atoms: C_1  and  C_2
REMARK    2  A    between atoms: C_2  and  O_3
REMARK    3  A    between atoms: O_3  and  C_4
REMARK    4  A    between atoms: C_6  and  C_11
REMARK    5  A    between atoms: C_9  and  O_10
REMARK    6  A    between atoms: C_13  and  C_25
REMARK    7  A    between atoms: C_20  and  C_23
REMARK    8  A    between atoms: C_25  and  C_27
REMARK                            x       y       z     vdW  Elec       q    Type
REMARK                         _______ _______ _______ _____ _____    ______ ____
ROOT
ATOM      1  C   UNL     1       0.778  -2.924   0.426  0.00  0.00    +0.151 C 
ATOM      2  C   UNL     1       1.325  -4.227  -0.108  0.00  0.00    +0.077 C 
ATOM      3  C   UNL     1       2.643  -4.030  -0.343  0.00  0.00    +0.250 C 
ATOM      4  C   UNL     1       2.997  -2.641   0.008  0.00  0.00    +0.293 C 
ATOM      5  O   UNL     1       4.107  -2.158  -0.091  0.00  0.00    -0.266 OA
ATOM      6  N   UNL     1       1.909  -1.988   0.456  0.00  0.00    -0.235 N 
ATOM      7  C   UNL     1       1.864  -0.661   0.878  0.00  0.00    +0.172 A 
ATOM      8  C   UNL     1       2.922   0.286   0.828  0.00  0.00    +0.091 A 
ATOM      9  C   UNL     1       2.379   1.410   1.348  0.00  0.00    +0.136 A 
ATOM     10  O   UNL     1       1.111   1.112   1.665  0.00  0.00    -0.358 OA
ATOM     11  N   UNL     1       0.841  -0.037   1.399  0.00  0.00    -0.063 NA
ATOM     12  C   UNL     1       3.065   2.739   1.534  0.00  0.00    +0.089 C 
ATOM     13  O   UNL     1       3.501  -4.960  -0.826  0.00  0.00    -0.282 OA
ENDROOT
BRANCH   1  16
ATOM     14  C   UNL     1       0.457  -4.014   4.029  0.00  0.00    +0.162 A 
ATOM     15  C   UNL     1       0.959  -3.833   2.750  0.00  0.00    +0.055 A 
ATOM     16  C   UNL     1       0.231  -3.119   1.817  0.00  0.00    -0.018 A 
ATOM     17  C   UNL     1      -0.995  -2.579   2.158  0.00  0.00    +0.009 A 
ATOM     18  C   UNL     1      -1.504  -2.760   3.430  0.00  0.00    +0.049 A 
ATOM     19  C   UNL     1      -0.780  -3.475   4.370  0.00  0.00    +0.158 A 
BRANCH  19  20
ATOM     20  O   UNL     1      -1.277  -3.650   5.625  0.00  0.00    -0.503 OA
ATOM     21  H   UNL     1      -2.254  -3.223   5.893  0.00  0.00    +0.292 HD
ENDBRANCH  19  20
BRANCH  14  22
ATOM     22  O   UNL     1       1.171  -4.716   4.949  0.00  0.00    -0.489 OA
BRANCH  22  24
ATOM     23  C   UNL     1       2.981  -6.165   5.633  0.00  0.00    +0.048 C 
ATOM     24  C   UNL     1       2.378  -5.336   4.498  0.00  0.00    +0.226 C 
ENDBRANCH  22  24
ENDBRANCH  14  22
ENDBRANCH   1  16
BRANCH   2  25
ATOM     25  C   UNL     1       0.573  -5.469  -0.324  0.00  0.00    +0.202 C 
ATOM     26  O   UNL     1       1.163  -6.497  -0.604  0.00  0.00    -0.286 OA
BRANCH  25  27
ATOM     27  C   UNL     1      -0.887  -5.472  -0.203  0.00  0.00    +0.059 A 
ATOM     28  C   UNL     1      -1.761  -6.551  -0.170  0.00  0.00    +0.019 A 
ATOM     29  C   UNL     1      -3.097  -6.268  -0.049  0.00  0.00    +0.008 A 
ATOM     30  C   UNL     1      -3.497  -4.970   0.030  0.00  0.00    +0.046 A 
ATOM     31  S   UNL     1      -2.006  -4.090  -0.054  0.00  0.00    -0.093 S 
ENDBRANCH  25  27
ENDBRANCH   2  25
TORSDOF 6
