REMARK  Name = ZINC19910765
REMARK  7 active torsions:
REMARK  status: ('A' for Active; 'I' for Inactive)
REMARK    1  A    between atoms: C_1  and  C_2
REMARK    2  A    between atoms: C_2  and  C_4
REMARK    3  A    between atoms: C_10  and  C_33
REMARK    4  A    between atoms: C_12  and  O_32
REMARK    5  A    between atoms: C_22  and  C_31
REMARK    6  A    between atoms: C_23  and  O_30
REMARK    7  A    between atoms: C_26  and  O_29
REMARK                            x       y       z     vdW  Elec       q    Type
REMARK                         _______ _______ _______ _____ _____    ______ ____
ROOT
ATOM      1  C   UNL     1      -2.590   6.005  -2.526  0.00  0.00    +0.061 C 
ATOM      2  C   UNL     1      -3.621   5.293  -1.628  0.00  0.00    +0.012 C 
ATOM      3  C   UNL     1      -3.459   3.788  -1.914  0.00  0.00    +0.005 C 
ATOM      4  C   UNL     1      -1.969   3.622  -2.313  0.00  0.00    -0.001 C 
ATOM      5  C   UNL     1      -1.605   4.940  -3.000  0.00  0.00    -0.017 C 
ATOM      6  C   UNL     1      -0.151   5.300  -2.959  0.00  0.00    +0.039 C 
ATOM      7  C   UNL     1       0.618   4.941  -1.698  0.00  0.00    +0.119 C 
ATOM      8  C   UNL     1       0.326   3.516  -1.252  0.00  0.00    +0.030 C 
ATOM      9  C   UNL     1      -1.168   3.312  -1.061  0.00  0.00    -0.001 C 
ATOM     10  C   UNL     1      -1.681   4.054   0.165  0.00  0.00    +0.004 C 
ATOM     11  C   UNL     1      -0.954   3.509   1.402  0.00  0.00    +0.004 C 
ATOM     12  C   UNL     1       0.544   3.748   1.258  0.00  0.00    +0.000 C 
ATOM     13  C   UNL     1       1.119   3.126  -0.003  0.00  0.00    +0.002 C 
ATOM     14  C   UNL     1       1.201   1.604   0.111  0.00  0.00    +0.123 C 
ATOM     15  C   UNL     1       2.010   1.192   1.339  0.00  0.00    +0.063 C 
ATOM     16  C   UNL     1       1.400   1.777   2.607  0.00  0.00    +0.117 C 
ATOM     17  C   UNL     1       1.277   3.290   2.515  0.00  0.00    +0.035 C 
ATOM     18  C   UNL     1       2.567   3.639  -0.170  0.00  0.00    +0.014 C 
ATOM     19  C   UNL     1      -1.929   4.725  -4.509  0.00  0.00    +0.012 C 
ENDROOT
BRANCH   1  21
ATOM     20  C   UNL     1      -1.403   8.322  -2.562  0.00  0.00    +0.086 C 
ATOM     21  C   UNL     1      -1.955   7.149  -1.794  0.00  0.00    +0.134 C 
ATOM     22  O   UNL     1      -1.886   7.130  -0.588  0.00  0.00    -0.297 OA
ENDBRANCH   1  21
BRANCH  16  23
ATOM     23  O   UNL     1       0.129   1.182   2.869  0.00  0.00    -0.392 OA
ATOM     24  H   UNL     1      -0.452   1.491   3.750  0.00  0.00    +0.210 HD
ENDBRANCH  16  23
BRANCH  14  25
ATOM     25  O   UNL     1      -0.087   1.001   0.178  0.00  0.00    -0.391 OA
ATOM     26  H   UNL     1      -0.179  -0.092   0.262  0.00  0.00    +0.210 HD
ENDBRANCH  14  25
BRANCH   7  27
ATOM     27  O   UNL     1       0.390   5.893  -0.665  0.00  0.00    -0.391 OA
ATOM     28  H   UNL     1       0.879   5.771   0.313  0.00  0.00    +0.210 HD
ENDBRANCH   7  27
TORSDOF 4
