REMARK  Name = ZINC67490630
REMARK  7 active torsions:
REMARK  status: ('A' for Active; 'I' for Inactive)
REMARK    1  A    between atoms: C_1  and  O_2
REMARK    2  A    between atoms: O_2  and  C_3
REMARK    3  A    between atoms: C_3  and  C_5
REMARK    4  A    between atoms: C_8  and  C_10
REMARK    5  A    between atoms: C_10  and  N_11
REMARK    6  A    between atoms: C_12  and  C_14
REMARK    7  A    between atoms: C_14  and  N_15
REMARK                            x       y       z     vdW  Elec       q    Type
REMARK                         _______ _______ _______ _____ _____    ______ ____
ROOT
ATOM      1  N   UNL     1       1.603  -8.527   3.489  0.00  0.00    -0.283 NA
ATOM      2  C   UNL     1       0.419  -8.292   4.324  0.00  0.00    +0.092 C 
ATOM      3  C   UNL     1      -0.321  -9.625   4.528  0.00  0.00    +0.070 C 
ATOM      4  C   UNL     1       0.709 -10.616   5.019  0.00  0.00    +0.039 A 
ATOM      5  C   UNL     1       2.034 -10.437   4.867  0.00  0.00    +0.057 A 
ATOM      6  N   UNL     1       2.653 -11.510   5.423  0.00  0.00    -0.348 N 
ATOM      7  H   UNL     1       3.609 -11.667   5.470  0.00  0.00    +0.166 HD
ATOM      8  C   UNL     1       1.679 -12.320   5.903  0.00  0.00    +0.171 A 
ATOM      9  N   UNL     1       0.517 -11.773   5.653  0.00  0.00    -0.349 N 
ATOM     10  C   UNL     1       2.677  -9.231   4.186  0.00  0.00    +0.064 C 
ATOM     11  C   UNL     1       3.690  -9.806   3.205  0.00  0.00    +0.029 C 
ATOM     12  C   UNL     1       4.813  -8.854   2.826  0.00  0.00    +0.002 C 
ATOM     13  C   UNL     1       5.484  -8.318   4.093  0.00  0.00    +0.000 C 
ATOM     14  C   UNL     1       4.446  -7.505   4.868  0.00  0.00    +0.002 C 
ATOM     15  C   UNL     1       3.290  -8.394   5.294  0.00  0.00    +0.029 C 
ATOM     16  H   UNL     1      -0.345 -12.150   5.889  0.00  0.00    +0.166 HD
ENDROOT
BRANCH   1  17
ATOM     17  C   UNL     1       1.999  -7.320   2.773  0.00  0.00    +0.181 C 
BRANCH  17  19
ATOM     18  N   UNL     1       1.069  -5.849   1.015  0.00  0.00    -0.307 N 
ATOM     19  C   UNL     1       0.920  -6.940   1.793  0.00  0.00    +0.227 C 
ATOM     20  O   UNL     1      -0.083  -7.615   1.703  0.00  0.00    -0.274 OA
ATOM     21  H   UNL     1       1.871  -5.308   1.087  0.00  0.00    +0.149 HD
BRANCH  18  22
ATOM     22  C   UNL     1       0.020  -5.480   0.062  0.00  0.00    +0.178 C 
BRANCH  22  26
ATOM     23  C   UNL     1       0.679  -2.115  -1.197  0.00  0.00    +0.212 A 
ATOM     24  C   UNL     1       1.292  -2.845  -2.176  0.00  0.00    +0.057 A 
ATOM     25  C   UNL     1       1.127  -4.196  -1.835  0.00  0.00    +0.047 A 
ATOM     26  C   UNL     1       0.429  -4.232  -0.678  0.00  0.00    +0.123 A 
ATOM     27  O   UNL     1       0.166  -2.976  -0.294  0.00  0.00    -0.452 OA
BRANCH  23  28
ATOM     28  C   UNL     1       0.599  -0.654  -1.136  0.00  0.00    +0.375 C 
ATOM     29  O   UNL     1       1.103   0.020  -2.014  0.00  0.00    -0.241 OA
BRANCH  28  31
ATOM     30  C   UNL     1      -0.075   1.372  -0.110  0.00  0.00    +0.280 C 
ATOM     31  O   UNL     1      -0.035  -0.056  -0.106  0.00  0.00    -0.462 OA
ENDBRANCH  28  31
ENDBRANCH  23  28
ENDBRANCH  22  26
ENDBRANCH  18  22
ENDBRANCH  17  19
ENDBRANCH   1  17
TORSDOF 6
