REMARK  Name = ZINC38636205
REMARK  11 active torsions:
REMARK  status: ('A' for Active; 'I' for Inactive)
REMARK    1  A    between atoms: C_1  and  C_2
REMARK    2  A    between atoms: C_5  and  N_11
REMARK    3  A    between atoms: C_6  and  N_8
REMARK    4  A    between atoms: C_12  and  C_14
REMARK    5  A    between atoms: N_16  and  C_17
REMARK    6  A    between atoms: C_17  and  C_18
REMARK    7  A    between atoms: C_18  and  C_20
REMARK    8  A    between atoms: C_18  and  N_29
REMARK    9  A    between atoms: C_23  and  N_26
REMARK   10  A    between atoms: N_26  and  C_27
REMARK   11  A    between atoms: N_26  and  C_28
REMARK                            x       y       z     vdW  Elec       q    Type
REMARK                         _______ _______ _______ _____ _____    ______ ____
ROOT
ATOM      1  C   UNL     1       1.122  -8.342  -0.456  0.00  0.00    +0.299 C 
ATOM      2  O   UNL     1       0.431  -7.602   0.212  0.00  0.00    -0.265 OA
ATOM      3  N   UNL     1       0.842  -8.532  -1.760  0.00  0.00    -0.309 N 
ATOM      4  H   UNL     1       1.395  -9.124  -2.294  0.00  0.00    +0.149 HD
ENDROOT
BRANCH   1   6
ATOM      5  N   UNL     1       2.564  -8.854   1.473  0.00  0.00    -0.276 N 
ATOM      6  C   UNL     1       2.284  -9.044   0.168  0.00  0.00    +0.303 C 
ATOM      7  O   UNL     1       2.975  -9.785  -0.500  0.00  0.00    -0.265 OA
ATOM      8  H   UNL     1       1.968  -8.325   2.025  0.00  0.00    +0.155 HD
BRANCH   5  13
ATOM      9  C   UNL     1       7.231 -11.150   3.734  0.00  0.00    +0.044 C 
ATOM     10  C   UNL     1       5.991 -10.540   3.133  0.00  0.00    -0.048 A 
ATOM     11  C   UNL     1       5.946 -10.260   1.779  0.00  0.00    +0.005 A 
ATOM     12  C   UNL     1       4.811  -9.701   1.226  0.00  0.00    +0.026 A 
ATOM     13  C   UNL     1       3.714  -9.421   2.030  0.00  0.00    +0.064 A 
ATOM     14  C   UNL     1       3.762  -9.703   3.389  0.00  0.00    +0.148 A 
ATOM     15  C   UNL     1       4.899 -10.267   3.936  0.00  0.00    +0.038 A 
BRANCH  14  16
ATOM     16  N   UNL     1       2.595  -9.406   4.250  0.00  0.00    +0.058 N 
ATOM     17  O   UNL     1       2.674  -9.552   5.447  0.00  0.00    -0.126 OA
ATOM     18  O   UNL     1       1.563  -9.016   3.755  0.00  0.00    -0.126 OA
ENDBRANCH  14  16
ENDBRANCH   5  13
ENDBRANCH   1   6
BRANCH   3  19
ATOM     19  C   UNL     1      -0.298  -7.844  -2.372  0.00  0.00    +0.094 C 
BRANCH  19  20
ATOM     20  C   UNL     1      -0.320  -8.132  -3.874  0.00  0.00    -0.020 C 
BRANCH  20  21
ATOM     21  C   UNL     1      -0.592  -9.596  -4.101  0.00  0.00    -0.059 A 
ATOM     22  C   UNL     1      -1.887 -10.077  -4.030  0.00  0.00    +0.004 A 
ATOM     23  C   UNL     1      -2.140 -11.418  -4.237  0.00  0.00    +0.023 A 
ATOM     24  C   UNL     1      -1.092 -12.286  -4.518  0.00  0.00    +0.029 A 
ATOM     25  C   UNL     1       0.207 -11.800  -4.589  0.00  0.00    +0.023 A 
ATOM     26  C   UNL     1       0.453 -10.456  -4.386  0.00  0.00    +0.004 A 
BRANCH  24  27
ATOM     27  N   UNL     1      -1.344 -13.643  -4.728  0.00  0.00    -0.336 N 
ATOM     28  C   UNL     1      -2.715 -14.154  -4.652  0.00  0.00    +0.129 C 
ATOM     29  C   UNL     1      -0.238 -14.557  -5.024  0.00  0.00    +0.129 C 
ENDBRANCH  24  27
ENDBRANCH  20  21
BRANCH  20  30
ATOM     30  N   UNL     1      -1.377  -7.333  -4.510  0.00  0.00    +0.385 N 
ATOM     31  C   UNL     1      -1.025  -5.891  -4.467  0.00  0.00    -0.078 C 
ATOM     32  C   UNL     1      -1.877  -5.283  -5.609  0.00  0.00    -0.020 C 
ATOM     33  C   UNL     1      -1.829  -6.380  -6.697  0.00  0.00    -0.020 C 
ATOM     34  C   UNL     1      -1.484  -7.679  -5.944  0.00  0.00    -0.078 C 
ATOM     35  H   UNL     1      -2.259  -7.491  -4.047  0.00  0.00    -0.081 HD
ENDBRANCH  20  30
ENDBRANCH  19  20
ENDBRANCH   3  19
TORSDOF 8
