REMARK  Name = ZINC63637945
REMARK  4 active torsions:
REMARK  status: ('A' for Active; 'I' for Inactive)
REMARK    1  A    between atoms: C_4  and  N_16
REMARK    2  A    between atoms: C_5  and  C_7
REMARK    3  A    between atoms: C_17  and  C_19
REMARK    4  A    between atoms: C_21  and  N_26
REMARK                            x       y       z     vdW  Elec       q    Type
REMARK                         _______ _______ _______ _____ _____    ______ ____
ROOT
ATOM      1  C   UNL     1      -0.019   1.390  -0.154  0.00  0.00    +0.001 A 
ATOM      2  C   UNL     1       1.153   2.092   0.058  0.00  0.00    +0.002 A 
ATOM      3  C   UNL     1       2.346   1.415   0.216  0.00  0.00    +0.024 A 
ATOM      4  C   UNL     1       2.368   0.027   0.162  0.00  0.00    +0.041 A 
ATOM      5  C   UNL     1       1.189  -0.675  -0.051  0.00  0.00    +0.016 A 
ATOM      6  C   UNL     1      -0.001   0.009  -0.208  0.00  0.00    +0.009 A 
ENDROOT
BRANCH   5   7
ATOM      7  C   UNL     1       1.208  -2.180  -0.111  0.00  0.00    +0.208 C 
ATOM      8  N   UNL     1       2.372  -2.640  -0.879  0.00  0.00    -0.360 N 
ATOM      9  C   UNL     1       1.925  -3.309  -1.902  0.00  0.00    +0.060 A 
ATOM     10  C   UNL     1       2.594  -4.002  -3.012  0.00  0.00    +0.027 A 
ATOM     11  C   UNL     1       1.854  -4.625  -3.950  0.00  0.00    +0.002 A 
ATOM     12  C   UNL     1       0.448  -4.643  -3.917  0.00  0.00    +0.002 A 
ATOM     13  C   UNL     1      -0.264  -4.040  -2.945  0.00  0.00    +0.027 A 
ATOM     14  C   UNL     1       0.437  -3.329  -1.867  0.00  0.00    +0.060 A 
ATOM     15  N   UNL     1       0.022  -2.672  -0.823  0.00  0.00    -0.360 N 
ATOM     16  H   UNL     1       3.303  -2.474  -0.663  0.00  0.00    +0.162 HD
ATOM     17  H   UNL     1      -0.902  -2.532  -0.563  0.00  0.00    +0.162 HD
ENDBRANCH   5   7
BRANCH   4  18
ATOM     18  N   UNL     1       3.575  -0.661   0.322  0.00  0.00    -0.281 N 
ATOM     19  C   UNL     1       4.714  -0.150  -0.186  0.00  0.00    +0.250 C 
ATOM     20  O   UNL     1       4.709   0.949  -0.705  0.00  0.00    -0.270 OA
ATOM     21  H   UNL     1       3.592  -1.506   0.797  0.00  0.00    +0.155 HD
BRANCH  19  22
ATOM     22  C   UNL     1       5.969  -0.927  -0.111  0.00  0.00    +0.057 A 
ATOM     23  C   UNL     1       5.977  -2.192   0.479  0.00  0.00    +0.047 A 
ATOM     24  C   UNL     1       7.152  -2.912   0.545  0.00  0.00    +0.127 A 
ATOM     25  C   UNL     1       8.322  -2.382   0.029  0.00  0.00    +0.034 A 
ATOM     26  C   UNL     1       8.323  -1.130  -0.557  0.00  0.00    +0.023 A 
ATOM     27  C   UNL     1       7.152  -0.400  -0.636  0.00  0.00    +0.053 A 
ATOM     28 CL   UNL     1       7.153   1.169  -1.378  0.00  0.00    -0.083 Cl
BRANCH  24  29
ATOM     29  N   UNL     1       7.161  -4.253   1.171  0.00  0.00    +0.056 N 
ATOM     30  O   UNL     1       6.140  -4.717   1.623  0.00  0.00    -0.126 OA
ATOM     31  O   UNL     1       8.190  -4.885   1.229  0.00  0.00    -0.126 OA
ENDBRANCH  24  29
ENDBRANCH  19  22
ENDBRANCH   4  18
TORSDOF 4
