REMARK  Name = ZINC04341812
REMARK  5 active torsions:
REMARK  status: ('A' for Active; 'I' for Inactive)
REMARK    1  A    between atoms: C_1  and  C_2
REMARK    2  A    between atoms: C_5  and  N_8
REMARK    3  A    between atoms: C_9  and  C_11
REMARK    4  A    between atoms: C_11  and  N_12
REMARK    5  A    between atoms: N_21  and  C_22
REMARK                            x       y       z     vdW  Elec       q    Type
REMARK                         _______ _______ _______ _____ _____    ______ ____
ROOT
ATOM      1  N   UNL     1       3.668   6.178   0.312  0.00  0.00    -0.288 N 
ATOM      2  C   UNL     1       4.339   6.505  -0.821  0.00  0.00    +0.205 A 
ATOM      3  N   UNL     1       5.559   6.958  -0.812  0.00  0.00    -0.216 NA
ATOM      4  C   UNL     1       6.241   7.133   0.328  0.00  0.00    +0.190 A 
ATOM      5  C   UNL     1       5.633   6.822   1.551  0.00  0.00    +0.196 A 
ATOM      6  C   UNL     1       4.257   6.319   1.521  0.00  0.00    +0.284 A 
ATOM      7  O   UNL     1       3.667   6.035   2.548  0.00  0.00    -0.265 OA
ATOM      8  N   UNL     1       6.511   7.081   2.530  0.00  0.00    -0.122 NA
ATOM      9  N   UNL     1       7.611   7.525   2.030  0.00  0.00    -0.058 NA
ATOM     10  N   UNL     1       7.495   7.578   0.633  0.00  0.00    -0.194 N 
ENDROOT
BRANCH  10  11
ATOM     11  C   UNL     1       8.476   8.005  -0.274  0.00  0.00    +0.069 A 
ATOM     12  C   UNL     1       8.591   7.391  -1.514  0.00  0.00    +0.029 A 
ATOM     13  C   UNL     1       9.555   7.816  -2.407  0.00  0.00    +0.022 A 
ATOM     14  C   UNL     1      10.412   8.846  -2.062  0.00  0.00    +0.041 A 
ATOM     15  C   UNL     1      10.302   9.457  -0.825  0.00  0.00    +0.022 A 
ATOM     16  C   UNL     1       9.337   9.038   0.069  0.00  0.00    +0.029 A 
ATOM     17 CL   UNL     1      11.627   9.374  -3.184  0.00  0.00    -0.084 Cl
ENDBRANCH  10  11
BRANCH   1  18
ATOM     18  C   UNL     1       2.295   5.673   0.225  0.00  0.00    +0.222 C 
BRANCH  18  20
ATOM     19  N   UNL     1       1.162   3.485   0.009  0.00  0.00    -0.284 N 
ATOM     20  C   UNL     1       2.318   4.171   0.104  0.00  0.00    +0.237 C 
ATOM     21  O   UNL     1       3.377   3.580   0.091  0.00  0.00    -0.274 OA
ATOM     22  H   UNL     1       0.319   3.961  -0.058  0.00  0.00    +0.155 HD
BRANCH  19  27
ATOM     23  C   UNL     1       1.221  -2.188   0.005  0.00  0.00    +0.044 C 
ATOM     24  C   UNL     1       1.206  -0.681   0.006  0.00  0.00    -0.050 A 
ATOM     25  C   UNL     1       2.145   0.019   0.741  0.00  0.00    +0.005 A 
ATOM     26  C   UNL     1       2.133   1.400   0.745  0.00  0.00    +0.023 A 
ATOM     27  C   UNL     1       1.177   2.086   0.008  0.00  0.00    +0.033 A 
ATOM     28  C   UNL     1       0.236   1.381  -0.731  0.00  0.00    +0.023 A 
ATOM     29  C   UNL     1       0.253  -0.000  -0.729  0.00  0.00    +0.005 A 
ENDBRANCH  19  27
ENDBRANCH  18  20
ENDBRANCH   1  18
TORSDOF 4
