REMARK  Name = ZINC25456800
REMARK  7 active torsions:
REMARK  status: ('A' for Active; 'I' for Inactive)
REMARK    1  A    between atoms: C_1  and  C_2
REMARK    2  A    between atoms: C_2  and  C_4
REMARK    3  A    between atoms: C_2  and  O_17
REMARK    4  A    between atoms: O_17  and  C_18
REMARK    5  A    between atoms: C_21  and  C_25
REMARK    6  A    between atoms: C_25  and  O_27
REMARK    7  A    between atoms: O_27  and  C_28
REMARK                            x       y       z     vdW  Elec       q    Type
REMARK                         _______ _______ _______ _____ _____    ______ ____
ROOT
ATOM      1  C   UNL     1      -0.310   0.242  -0.130  0.00  0.00    +0.062 C 
ATOM      2  C   UNL     1      -0.081   1.749   0.002  0.00  0.00    +0.256 C 
ENDROOT
BRANCH   2   3
ATOM      3  C   UNL     1      -0.686   2.238   1.293  0.00  0.00    +0.261 C 
ATOM      4  O   UNL     1       0.028   2.683   2.166  0.00  0.00    -0.271 OA
ATOM      5  N   UNL     1      -2.020   2.180   1.476  0.00  0.00    -0.258 N 
ATOM      6  C   UNL     1      -2.908   1.650   0.431  0.00  0.00    +0.209 C 
ATOM      7  C   UNL     1      -4.132   2.517   0.334  0.00  0.00    +0.235 C 
ATOM      8  O   UNL     1      -4.714   2.615  -0.726  0.00  0.00    -0.274 OA
ATOM      9  N   UNL     1      -4.588   3.190   1.407  0.00  0.00    -0.283 N 
ATOM     10  C   UNL     1      -3.908   3.134   2.628  0.00  0.00    +0.055 A 
ATOM     11  C   UNL     1      -2.607   2.629   2.670  0.00  0.00    +0.058 A 
ATOM     12  C   UNL     1      -1.919   2.575   3.869  0.00  0.00    +0.025 A 
ATOM     13  C   UNL     1      -2.527   3.021   5.029  0.00  0.00    +0.002 A 
ATOM     14  C   UNL     1      -3.816   3.519   4.991  0.00  0.00    +0.002 A 
ATOM     15  C   UNL     1      -4.508   3.577   3.796  0.00  0.00    +0.025 A 
ATOM     16  H   UNL     1      -5.505   3.792   1.330  0.00  0.00    +0.155 HD
ENDBRANCH   2   3
BRANCH   2  17
ATOM     17  O   UNL     1       1.322   2.020   0.000  0.00  0.00    -0.479 OA
BRANCH  17  18
ATOM     18  C   UNL     1       1.925   2.141  -1.210  0.00  0.00    +0.136 A 
ATOM     19  C   UNL     1       1.204   1.889  -2.371  0.00  0.00    +0.047 A 
ATOM     20  C   UNL     1       1.811   2.015  -3.601  0.00  0.00    +0.018 A 
ATOM     21  C   UNL     1       3.156   2.388  -3.680  0.00  0.00    +0.060 A 
ATOM     22  C   UNL     1       3.879   2.635  -2.510  0.00  0.00    +0.034 A 
ATOM     23  C   UNL     1       3.264   2.511  -1.283  0.00  0.00    +0.060 A 
ATOM     24 BR   UNL     1       4.240   2.845   0.301  0.00  0.00    -0.046 Br
BRANCH  21  25
ATOM     25  C   UNL     1       3.811   2.518  -4.995  0.00  0.00    +0.339 C 
ATOM     26  O   UNL     1       4.980   2.841  -5.062  0.00  0.00    -0.245 OA
BRANCH  25  27
ATOM     27  O   UNL     1       3.112   2.279  -6.122  0.00  0.00    -0.464 OA
ATOM     28  C   UNL     1       3.821   2.427  -7.381  0.00  0.00    +0.280 C 
ENDBRANCH  25  27
ENDBRANCH  21  25
ENDBRANCH  17  18
ENDBRANCH   2  17
TORSDOF 5
