REMARK  Name = ZINC51091017
REMARK  5 active torsions:
REMARK  status: ('A' for Active; 'I' for Inactive)
REMARK    1  A    between atoms: C_1  and  N_2
REMARK    2  A    between atoms: N_2  and  C_3
REMARK    3  A    between atoms: C_11  and  C_13
REMARK    4  A    between atoms: C_17  and  N_19
REMARK    5  A    between atoms: N_19  and  N_20
REMARK                            x       y       z     vdW  Elec       q    Type
REMARK                         _______ _______ _______ _____ _____    ______ ____
ROOT
ATOM      1  C   UNL     1      -0.124   0.070  -2.444  0.00  0.00    +0.146 A 
ATOM      2  C   UNL     1      -0.342  -0.617  -3.636  0.00  0.00    +0.072 A 
ATOM      3  C   UNL     1      -0.361   0.091  -4.832  0.00  0.00    +0.026 A 
ATOM      4  C   UNL     1      -0.163   1.459  -4.794  0.00  0.00    +0.046 A 
ATOM      5  C   UNL     1       0.050   2.084  -3.566  0.00  0.00    +0.133 A 
ATOM      6  N   UNL     1       0.058   1.386  -2.445  0.00  0.00    -0.225 NA
ATOM      7 CL   UNL     1      -0.585  -2.335  -3.628  0.00  0.00    -0.081 Cl
ENDROOT
BRANCH   1  10
ATOM      8  C   UNL     1      -0.053   1.461   0.012  0.00  0.00    +0.132 C 
ATOM      9  N   UNL     1      -0.008  -0.004   0.003  0.00  0.00    -0.295 N 
ATOM     10  C   UNL     1      -0.102  -0.673  -1.163  0.00  0.00    +0.266 C 
ATOM     11  O   UNL     1      -0.167  -1.887  -1.164  0.00  0.00    -0.268 OA
BRANCH   9  12
ATOM     12  C   UNL     1       0.138  -0.740   1.260  0.00  0.00    +0.098 C 
ATOM     13  C   UNL     1      -1.022  -0.389   2.206  0.00  0.00    +0.046 C 
ATOM     14  C   UNL     1      -0.713  -0.900   3.634  0.00  0.00    +0.168 C 
ATOM     15  S   UNL     1       1.125  -0.872   3.684  0.00  0.00    -0.029 S 
ATOM     16  O   UNL     1       1.604  -2.198   3.858  0.00  0.00    -0.174 OA
ATOM     17  O   UNL     1       1.548   0.148   4.579  0.00  0.00    -0.174 OA
ATOM     18  C   UNL     1       1.469  -0.333   1.956  0.00  0.00    +0.188 C 
ENDBRANCH   9  12
ENDBRANCH   1  10
BRANCH   5  19
ATOM     19  N   UNL     1       0.251   3.459  -3.520  0.00  0.00    -0.268 N 
ATOM     20  H   UNL     1       0.243   3.978  -4.340  0.00  0.00    +0.167 HD
BRANCH  19  21
ATOM     21  N   UNL     1       0.460   4.080  -2.321  0.00  0.00    -0.255 NA
ATOM     22  H   UNL     1       0.590   5.073  -2.446  0.00  0.00    +0.140 HD
ATOM     23  H   UNL     1      -0.295   3.891  -1.680  0.00  0.00    +0.140 HD
ENDBRANCH  19  21
ENDBRANCH   5  19
TORSDOF 4
