REMARK  Name = ZINC01272258
REMARK  5 active torsions:
REMARK  status: ('A' for Active; 'I' for Inactive)
REMARK    1  A    between atoms: C_1  and  C_2
REMARK    2  A    between atoms: C_2  and  N_3
REMARK    3  A    between atoms: C_14  and  C_25
REMARK    4  A    between atoms: C_20  and  N_24
REMARK    5  A    between atoms: C_21  and  C_22
REMARK                            x       y       z     vdW  Elec       q    Type
REMARK                         _______ _______ _______ _____ _____    ______ ____
ROOT
ATOM      1  N   UNL     1      -0.187  -0.494   1.311  0.00  0.00    -0.270 N 
ATOM      2  C   UNL     1       1.190  -0.363   1.338  0.00  0.00    +0.041 A 
ATOM      3  C   UNL     1       2.058   0.077   0.337  0.00  0.00    +0.024 A 
ATOM      4  C   UNL     1       3.410   0.109   0.639  0.00  0.00    +0.002 A 
ATOM      5  C   UNL     1       3.892  -0.275   1.873  0.00  0.00    +0.000 A 
ATOM      6  C   UNL     1       3.039  -0.714   2.880  0.00  0.00    +0.007 A 
ATOM      7  C   UNL     1       1.692  -0.748   2.587  0.00  0.00    -0.001 A 
ATOM      8  C   UNL     1       0.508  -1.153   3.405  0.00  0.00    +0.145 C 
ATOM      9  C   UNL     1      -0.675  -0.949   2.485  0.00  0.00    +0.240 C 
ATOM     10  O   UNL     1      -1.840  -1.156   2.750  0.00  0.00    -0.274 OA
ATOM     11  C   UNL     1       0.602  -2.591   3.832  0.00  0.00    +0.066 A 
ATOM     12  C   UNL     1       0.526  -3.757   3.064  0.00  0.00    +0.101 A 
ATOM     13  N   UNL     1       0.663  -4.788   3.876  0.00  0.00    -0.171 NA
ATOM     14  N   UNL     1       0.830  -4.303   5.183  0.00  0.00    -0.246 N 
ATOM     15  H   UNL     1       0.953  -4.842   5.980  0.00  0.00    +0.192 HD
ATOM     16  C   UNL     1       0.790  -2.955   5.136  0.00  0.00    +0.224 A 
ATOM     17  O   UNL     1       0.905  -2.049   6.138  0.00  0.00    -0.423 OA
ATOM     18  C   UNL     1       0.568  -0.770   5.875  0.00  0.00    +0.201 C 
ATOM     19  C   UNL     1       0.367  -0.287   4.627  0.00  0.00    +0.110 C 
ENDROOT
BRANCH  12  20
ATOM     20  C   UNL     1       0.327  -3.823   1.595  0.00  0.00    +0.003 A 
ATOM     21  C   UNL     1       1.134  -3.069   0.745  0.00  0.00    +0.010 A 
ATOM     22  C   UNL     1       0.944  -3.135  -0.620  0.00  0.00    +0.001 A 
ATOM     23  C   UNL     1      -0.045  -3.947  -1.145  0.00  0.00    +0.000 A 
ATOM     24  C   UNL     1      -0.849  -4.697  -0.306  0.00  0.00    +0.001 A 
ATOM     25  C   UNL     1      -0.663  -4.644   1.060  0.00  0.00    +0.010 A 
ENDBRANCH  12  20
BRANCH  18  26
ATOM     26  N   UNL     1       0.420   0.091   6.934  0.00  0.00    -0.328 N 
ATOM     27  H   UNL     1       0.556  -0.226   7.840  0.00  0.00    +0.145 HD
ATOM     28  H   UNL     1       0.178   1.017   6.776  0.00  0.00    +0.145 HD
ENDBRANCH  18  26
BRANCH   1  30
ATOM     29  C   UNL     1      -1.441   1.296   0.214  0.00  0.00    +0.025 C 
ATOM     30  C   UNL     1      -1.018  -0.173   0.148  0.00  0.00    +0.110 C 
ENDBRANCH   1  30
BRANCH  19  31
ATOM     31  C   UNL     1       0.010   1.090   4.464  0.00  0.00    +0.102 C 
ATOM     32  N   UNL     1      -0.274   2.182   4.334  0.00  0.00    -0.191 NA
ENDBRANCH  19  31
TORSDOF 4
