REMARK  Name = ZINC63993815
REMARK  15 active torsions:
REMARK  status: ('A' for Active; 'I' for Inactive)
REMARK    1  A    between atoms: C_1  and  C_2
REMARK    2  A    between atoms: C_2  and  C_3
REMARK    3  A    between atoms: C_3  and  N_4
REMARK    4  A    between atoms: N_4  and  C_5
REMARK    5  A    between atoms: N_11  and  C_27
REMARK    6  A    between atoms: C_12  and  C_23
REMARK    7  A    between atoms: C_14  and  N_16
REMARK    8  A    between atoms: C_17  and  C_19
REMARK    9  A    between atoms: C_19  and  C_20
REMARK   10  A    between atoms: C_20  and  O_21
REMARK   11  A    between atoms: O_21  and  C_22
REMARK   12  A    between atoms: C_23  and  O_25
REMARK   13  A    between atoms: O_25  and  C_26
REMARK   14  A    between atoms: C_27  and  C_28
REMARK   15  A    between atoms: C_28  and  C_29
REMARK                            x       y       z     vdW  Elec       q    Type
REMARK                         _______ _______ _______ _____ _____    ______ ____
ROOT
ATOM      1  C   UNL     1       1.897  -2.303   2.313  0.00  0.00    +0.044 A 
ATOM      2  C   UNL     1       1.714  -3.685   2.276  0.00  0.00    +0.033 A 
ATOM      3  C   UNL     1       2.195  -4.441   3.326  0.00  0.00    +0.015 A 
ATOM      4  C   UNL     1       2.844  -3.825   4.387  0.00  0.00    +0.105 A 
ATOM      5  N   UNL     1       2.998  -2.501   4.383  0.00  0.00    -0.348 N 
ATOM      6  C   UNL     1       2.558  -1.747   3.397  0.00  0.00    +0.107 A 
ATOM      7  N   UNL     1       3.254  -4.751   5.343  0.00  0.00    -0.301 N 
ATOM      8  C   UNL     1       2.872  -6.105   4.933  0.00  0.00    +0.208 C 
ATOM      9  C   UNL     1       2.159  -5.930   3.582  0.00  0.00    +0.138 C 
ATOM     10  H   UNL     1       3.453  -2.079   5.129  0.00  0.00    +0.167 HD
ENDROOT
BRANCH   9  11
ATOM     11  N   UNL     1       2.878  -6.648   2.527  0.00  0.00    -0.306 N 
ATOM     12  C   UNL     1       2.239  -6.997   1.393  0.00  0.00    +0.216 C 
ATOM     13  O   UNL     1       1.068  -6.716   1.245  0.00  0.00    -0.276 OA
ATOM     14  H   UNL     1       3.814  -6.872   2.644  0.00  0.00    +0.149 HD
BRANCH  12  15
ATOM     15  C   UNL     1       2.979  -7.735   0.307  0.00  0.00    +0.124 C 
BRANCH  15  16
ATOM     16  C   UNL     1       2.030  -8.008  -0.862  0.00  0.00    +0.168 C 
BRANCH  16  17
ATOM     17  O   UNL     1       2.732  -8.709  -1.891  0.00  0.00    -0.382 OA
ATOM     18  C   UNL     1       1.933  -9.014  -3.035  0.00  0.00    +0.194 C 
ENDBRANCH  16  17
ENDBRANCH  15  16
ENDBRANCH  12  15
ENDBRANCH   9  11
BRANCH   1  19
ATOM     19  N   UNL     1       1.427  -1.493   1.272  0.00  0.00    -0.343 N 
ATOM     20  H   UNL     1       0.965  -1.891   0.517  0.00  0.00    +0.146 HD
BRANCH  19  21
ATOM     21  C   UNL     1       1.632  -0.043   1.322  0.00  0.00    +0.101 C 
BRANCH  21  23
ATOM     22  C   UNL     1       1.242   2.115   0.125  0.00  0.00    +0.005 C 
ATOM     23  C   UNL     1       1.028   0.601   0.073  0.00  0.00    +0.015 C 
ENDBRANCH  21  23
ENDBRANCH  19  21
ENDBRANCH   1  19
BRANCH   8  24
ATOM     24  C   UNL     1       1.936  -6.713   5.945  0.00  0.00    +0.330 C 
ATOM     25  O   UNL     1       1.246  -6.001   6.635  0.00  0.00    -0.249 OA
BRANCH  24  26
ATOM     26  O   UNL     1       1.870  -8.047   6.081  0.00  0.00    -0.467 OA
ATOM     27  C   UNL     1       0.961  -8.555   7.060  0.00  0.00    +0.280 C 
ENDBRANCH  24  26
ENDBRANCH   8  24
BRANCH   7  28
ATOM     28  C   UNL     1       3.966  -4.420   6.580  0.00  0.00    +0.112 C 
BRANCH  28  29
ATOM     29  C   UNL     1       5.472  -4.393   6.310  0.00  0.00    +0.052 C 
BRANCH  29  30
ATOM     30  C   UNL     1       6.207  -4.105   7.594  0.00  0.00    -0.040 C 
ATOM     31  C   UNL     1       6.746  -5.010   8.443  0.00  0.00    -0.001 A 
ATOM     32  C   UNL     1       6.806  -6.476   8.427  0.00  0.00    +0.010 A 
ATOM     33  C   UNL     1       7.428  -7.119   9.441  0.00  0.00    +0.001 A 
ATOM     34  C   UNL     1       8.016  -6.421  10.505  0.00  0.00    +0.002 A 
ATOM     35  C   UNL     1       8.002  -5.074  10.590  0.00  0.00    +0.026 A 
ATOM     36  C   UNL     1       7.374  -4.296   9.578  0.00  0.00    +0.043 A 
ATOM     37  N   UNL     1       7.229  -3.001   9.436  0.00  0.00    -0.380 N 
ATOM     38  C   UNL     1       6.497  -2.746   8.190  0.00  0.00    +0.144 C 
ATOM     39  H   UNL     1       7.555  -2.324  10.050  0.00  0.00    +0.160 HD
ENDBRANCH  29  30
ENDBRANCH  28  29
ENDBRANCH   7  28
TORSDOF 12
