REMARK  Name = ZINC02185354
REMARK  9 active torsions:
REMARK  status: ('A' for Active; 'I' for Inactive)
REMARK    1  A    between atoms: C_1  and  C_2
REMARK    2  A    between atoms: C_4  and  C_18
REMARK    3  A    between atoms: C_5  and  C_17
REMARK    4  A    between atoms: N_6  and  C_7
REMARK    5  A    between atoms: N_22  and  C_38
REMARK    6  A    between atoms: N_25  and  C_28
REMARK    7  A    between atoms: C_31  and  C_34
REMARK    8  A    between atoms: C_34  and  O_36
REMARK    9  A    between atoms: O_36  and  C_37
REMARK                            x       y       z     vdW  Elec       q    Type
REMARK                         _______ _______ _______ _____ _____    ______ ____
ROOT
ATOM      1  C   UNL     1       1.167  -1.828   0.030  0.00  0.00    +0.028 C 
ATOM      2  C   UNL     1       1.198  -0.516   0.475  0.00  0.00    +0.100 C 
ATOM      3  C   UNL     1       2.390   0.042   1.141  0.00  0.00    +0.257 C 
ATOM      4  O   UNL     1       3.382  -0.639   1.320  0.00  0.00    -0.269 OA
ATOM      5  N   UNL     1       2.349   1.327   1.548  0.00  0.00    -0.252 N 
ATOM      6  C   UNL     1       1.262   2.088   1.358  0.00  0.00    +0.153 C 
ATOM      7  S   UNL     1       1.302   3.709   1.907  0.00  0.00    -0.017 S 
ATOM      8  N   UNL     1       0.146   1.648   0.761  0.00  0.00    -0.217 N 
ATOM      9  C   UNL     1       0.043   0.383   0.303  0.00  0.00    +0.262 C 
ATOM     10  O   UNL     1      -0.976  -0.005  -0.237  0.00  0.00    -0.269 OA
ATOM     11  C   UNL     1       3.520   1.905   2.213  0.00  0.00    +0.140 C 
ENDROOT
BRANCH   1  15
ATOM     12  C   UNL     1       5.967  -3.297  -0.508  0.00  0.00    +0.064 C 
ATOM     13  C   UNL     1       4.493  -3.254  -0.200  0.00  0.00    +0.022 A 
ATOM     14  C   UNL     1       3.688  -2.197  -0.394  0.00  0.00    +0.031 A 
ATOM     15  C   UNL     1       2.346  -2.609   0.045  0.00  0.00    -0.003 A 
ATOM     16  C   UNL     1       2.477  -3.919   0.482  0.00  0.00    +0.028 A 
ATOM     17  N   UNL     1       3.762  -4.287   0.323  0.00  0.00    -0.317 N 
ATOM     18  C   UNL     1       1.371  -4.782   1.034  0.00  0.00    +0.064 C 
BRANCH  17  19
ATOM     19  C   UNL     1       4.280  -5.546   0.650  0.00  0.00    +0.047 A 
ATOM     20  C   UNL     1       4.293  -5.963   1.986  0.00  0.00    +0.027 A 
ATOM     21  C   UNL     1       4.789  -7.180   2.333  0.00  0.00    +0.010 A 
ATOM     22  C   UNL     1       5.298  -8.038   1.343  0.00  0.00    -0.018 A 
ATOM     23  C   UNL     1       5.817  -9.302   1.672  0.00  0.00    +0.008 A 
ATOM     24  C   UNL     1       6.301 -10.109   0.689  0.00  0.00    +0.001 A 
ATOM     25  C   UNL     1       6.291  -9.702  -0.644  0.00  0.00    +0.001 A 
ATOM     26  C   UNL     1       5.797  -8.485  -1.001  0.00  0.00    +0.008 A 
ATOM     27  C   UNL     1       5.288  -7.624  -0.013  0.00  0.00    -0.016 A 
ATOM     28  C   UNL     1       4.766  -6.363  -0.346  0.00  0.00    +0.034 A 
ENDBRANCH  17  19
ENDBRANCH   1  15
BRANCH   8  29
ATOM     29  C   UNL     1      -0.933   2.520   0.604  0.00  0.00    +0.043 A 
ATOM     30  C   UNL     1      -1.627   2.972   1.722  0.00  0.00    +0.025 A 
ATOM     31  C   UNL     1      -2.688   3.837   1.571  0.00  0.00    +0.017 A 
ATOM     32  C   UNL     1      -3.075   4.250   0.293  0.00  0.00    +0.059 A 
ATOM     33  C   UNL     1      -2.379   3.789  -0.828  0.00  0.00    +0.017 A 
ATOM     34  C   UNL     1      -1.315   2.929  -0.669  0.00  0.00    +0.025 A 
BRANCH  32  35
ATOM     35  C   UNL     1      -4.215   5.171   0.128  0.00  0.00    +0.339 C 
ATOM     36  O   UNL     1      -4.550   5.530  -0.984  0.00  0.00    -0.245 OA
BRANCH  35  37
ATOM     37  O   UNL     1      -4.885   5.615   1.209  0.00  0.00    -0.464 OA
ATOM     38  C   UNL     1      -5.996   6.519   0.971  0.00  0.00    +0.280 C 
ENDBRANCH  35  37
ENDBRANCH  32  35
ENDBRANCH   8  29
TORSDOF 5
