REMARK  Name = ZINC39980982
REMARK  6 active torsions:
REMARK  status: ('A' for Active; 'I' for Inactive)
REMARK    1  A    between atoms: C_1  and  O_2
REMARK    2  A    between atoms: O_2  and  C_3
REMARK    3  A    between atoms: C_7  and  N_9
REMARK    4  A    between atoms: C_10  and  C_12
REMARK    5  A    between atoms: C_12  and  S_13
REMARK    6  A    between atoms: S_13  and  C_14
REMARK                            x       y       z     vdW  Elec       q    Type
REMARK                         _______ _______ _______ _____ _____    ______ ____
ROOT
ATOM      1  S   UNL     1       3.246  -6.629   4.620  0.00  0.00    -0.075 S 
ENDROOT
BRANCH   1   2
ATOM      2  C   UNL     1       3.344  -8.382   4.476  0.00  0.00    +0.208 C 
ATOM      3  N   UNL     1       2.747  -8.952   3.457  0.00  0.00    -0.227 NA
ATOM      4  C   UNL     1       2.767 -10.411   3.387  0.00  0.00    +0.252 C 
ATOM      5  C   UNL     1       4.034 -10.857   4.101  0.00  0.00    +0.117 C 
ATOM      6  C   UNL     1       4.638 -11.740   3.257  0.00  0.00    +0.025 A 
ATOM      7  C   UNL     1       5.780 -12.566   3.402  0.00  0.00    +0.012 A 
ATOM      8  C   UNL     1       6.133 -13.336   2.339  0.00  0.00    +0.001 A 
ATOM      9  C   UNL     1       5.444 -13.363   1.123  0.00  0.00    +0.002 A 
ATOM     10  C   UNL     1       4.333 -12.619   0.875  0.00  0.00    +0.026 A 
ATOM     11  C   UNL     1       3.870 -11.755   1.974  0.00  0.00    +0.046 A 
ATOM     12  N   UNL     1       2.847 -10.960   2.041  0.00  0.00    -0.358 N 
ATOM     13  N   UNL     1       4.419 -10.291   5.249  0.00  0.00    -0.147 NA
ATOM     14  N   UNL     1       4.037  -9.063   5.421  0.00  0.00    -0.122 NA
ATOM     15  H   UNL     1       2.235 -10.764   1.313  0.00  0.00    +0.162 HD
ENDBRANCH   1   2
BRANCH   1  16
ATOM     16  C   UNL     1       2.255  -6.125   3.188  0.00  0.00    +0.173 C 
BRANCH  16  18
ATOM     17  N   UNL     1       1.387  -4.023   2.213  0.00  0.00    -0.285 N 
ATOM     18  C   UNL     1       2.092  -4.626   3.191  0.00  0.00    +0.227 C 
ATOM     19  O   UNL     1       2.596  -3.964   4.073  0.00  0.00    -0.275 OA
ATOM     20  H   UNL     1       0.921  -4.557   1.552  0.00  0.00    +0.155 HD
BRANCH  17  25
ATOM     21  C   UNL     1       0.126  -0.614   1.634  0.00  0.00    +0.122 A 
ATOM     22  C   UNL     1       1.219   0.140   2.038  0.00  0.00    +0.046 A 
ATOM     23  C   UNL     1       2.361  -0.487   2.498  0.00  0.00    +0.005 A 
ATOM     24  C   UNL     1       2.420  -1.866   2.557  0.00  0.00    +0.023 A 
ATOM     25  C   UNL     1       1.329  -2.626   2.154  0.00  0.00    +0.037 A 
ATOM     26  C   UNL     1       0.178  -1.998   1.697  0.00  0.00    +0.069 A 
BRANCH  21  28
ATOM     27  C   UNL     1      -0.980   1.432   1.144  0.00  0.00    +0.277 C 
ATOM     28  O   UNL     1      -0.997   0.004   1.182  0.00  0.00    -0.495 OA
ENDBRANCH  21  28
ENDBRANCH  17  25
ENDBRANCH  16  18
ENDBRANCH   1  16
TORSDOF 5
