REMARK  Name = ZINC23469469
REMARK  11 active torsions:
REMARK  status: ('A' for Active; 'I' for Inactive)
REMARK    1  A    between atoms: C_9  and  O_19
REMARK    2  A    between atoms: C_10  and  C_11
REMARK    3  A    between atoms: C_11  and  N_12
REMARK    4  A    between atoms: N_12  and  C_13
REMARK    5  A    between atoms: C_13  and  C_14
REMARK    6  A    between atoms: C_14  and  N_15
REMARK    7  A    between atoms: N_15  and  C_16
REMARK    8  A    between atoms: C_16  and  C_17
REMARK    9  A    between atoms: C_17  and  O_18
REMARK   10  A    between atoms: O_19  and  C_20
REMARK   11  A    between atoms: C_20  and  C_21
REMARK                            x       y       z     vdW  Elec       q    Type
REMARK                         _______ _______ _______ _____ _____    ______ ____
ROOT
ATOM      1  C   UNL     1      -0.016   1.357   0.009  0.00  0.00    +0.001 A 
ATOM      2  C   UNL     1       1.168   2.091   0.002  0.00  0.00    +0.001 A 
ATOM      3  C   UNL     1       2.378   1.468  -0.013  0.00  0.00    +0.009 A 
ATOM      4  C   UNL     1       2.438   0.064  -0.021  0.00  0.00    -0.013 A 
ATOM      5  C   UNL     1       1.232  -0.683  -0.013  0.00  0.00    -0.017 A 
ATOM      6  C   UNL     1       0.002  -0.004   0.002  0.00  0.00    +0.008 A 
ATOM      7  C   UNL     1       1.290  -2.087  -0.021  0.00  0.00    +0.012 A 
ATOM      8  C   UNL     1       2.497  -2.713  -0.036  0.00  0.00    +0.046 A 
ATOM      9  C   UNL     1       3.687  -1.979  -0.043  0.00  0.00    +0.123 A 
ATOM     10  C   UNL     1       3.668  -0.613  -0.037  0.00  0.00    -0.015 A 
ENDROOT
BRANCH  10  11
ATOM     11  C   UNL     1       4.960   0.163  -0.046  0.00  0.00    -0.043 C 
BRANCH  11  12
ATOM     12  N   UNL     1       5.393   0.408   1.336  0.00  0.00    +0.381 N 
ATOM     13  H   UNL     1       4.685   0.939   1.821  0.00  0.00    -0.086 HD
ATOM     14  H   UNL     1       5.534  -0.473   1.806  0.00  0.00    -0.086 HD
BRANCH  12  15
ATOM     15  C   UNL     1       6.652   1.165   1.327  0.00  0.00    -0.102 C 
BRANCH  15  16
ATOM     16  C   UNL     1       7.104   1.421   2.766  0.00  0.00    -0.102 C 
BRANCH  16  17
ATOM     17  N   UNL     1       8.363   2.177   2.757  0.00  0.00    +0.379 N 
ATOM     18  H   UNL     1       9.071   1.646   2.272  0.00  0.00    -0.086 HD
ATOM     19  H   UNL     1       8.222   3.059   2.287  0.00  0.00    -0.086 HD
BRANCH  17  20
ATOM     20  C   UNL     1       8.796   2.423   4.139  0.00  0.00    -0.055 C 
BRANCH  20  21
ATOM     21  C   UNL     1      10.108   3.211   4.130  0.00  0.00    +0.137 C 
BRANCH  21  22
ATOM     22  O   UNL     1       9.882   4.505   3.569  0.00  0.00    -0.397 OA
ATOM     23  H   UNL     1      10.672   5.061   3.531  0.00  0.00    +0.209 HD
ENDBRANCH  21  22
ENDBRANCH  20  21
ENDBRANCH  17  20
ENDBRANCH  16  17
ENDBRANCH  15  16
ENDBRANCH  12  15
ENDBRANCH  11  12
ENDBRANCH  10  11
BRANCH   9  24
ATOM     24  O   UNL     1       4.878  -2.633  -0.057  0.00  0.00    -0.487 OA
BRANCH  24  25
ATOM     25  C   UNL     1       4.834  -4.061  -0.064  0.00  0.00    +0.266 C 
BRANCH  25  26
ATOM     26  C   UNL     1       6.239  -4.607  -0.079  0.00  0.00    +0.008 A 
ATOM     27  C   UNL     1       7.316  -3.741  -0.079  0.00  0.00    +0.010 A 
ATOM     28  C   UNL     1       8.605  -4.241  -0.093  0.00  0.00    +0.020 A 
ATOM     29  C   UNL     1       8.817  -5.609  -0.107  0.00  0.00    +0.042 A 
ATOM     30  C   UNL     1       7.739  -6.475  -0.106  0.00  0.00    +0.040 A 
ATOM     31  C   UNL     1       6.449  -5.974  -0.087  0.00  0.00    +0.049 A 
ATOM     32 CL   UNL     1       5.096  -7.061  -0.081  0.00  0.00    -0.083 Cl
ATOM     33 CL   UNL     1      10.435  -6.236  -0.125  0.00  0.00    -0.083 Cl
ENDBRANCH  25  26
ENDBRANCH  24  25
ENDBRANCH   9  24
TORSDOF 11
