REMARK  Name = ZINC27805497
REMARK  6 active torsions:
REMARK  status: ('A' for Active; 'I' for Inactive)
REMARK    1  A    between atoms: C_1  and  C_2
REMARK    2  A    between atoms: C_5  and  N_12
REMARK    3  A    between atoms: C_7  and  S_8
REMARK    4  A    between atoms: S_8  and  N_11
REMARK    5  A    between atoms: C_13  and  C_15
REMARK    6  A    between atoms: C_17  and  C_27
REMARK                            x       y       z     vdW  Elec       q    Type
REMARK                         _______ _______ _______ _____ _____    ______ ____
ROOT
ATOM      1  N   UNL     1      -1.250   2.071   0.292  0.00  0.00    -0.282 N 
ATOM      2  C   UNL     1      -1.283   3.413   0.181  0.00  0.00    +0.262 C 
ATOM      3  O   UNL     1      -0.255   4.033   0.010  0.00  0.00    -0.271 OA
ATOM      4  H   UNL     1      -2.188   1.502   0.370  0.00  0.00    +0.155 HD
ENDROOT
BRANCH   2   5
ATOM      5  C   UNL     1      -2.598   4.144   0.271  0.00  0.00    +0.299 C 
ATOM      6  C   UNL     1      -3.428   3.873  -0.991  0.00  0.00    +0.220 C 
ATOM      7  O   UNL     1      -4.661   4.592  -0.881  0.00  0.00    -0.481 OA
ATOM      8  C   UNL     1      -4.579   5.888  -0.474  0.00  0.00    +0.163 A 
ATOM      9  C   UNL     1      -5.658   6.736  -0.680  0.00  0.00    +0.049 A 
ATOM     10  C   UNL     1      -5.592   8.053  -0.267  0.00  0.00    +0.004 A 
ATOM     11  C   UNL     1      -4.452   8.529   0.354  0.00  0.00    +0.004 A 
ATOM     12  C   UNL     1      -3.374   7.690   0.562  0.00  0.00    +0.049 A 
ATOM     13  C   UNL     1      -3.433   6.367   0.149  0.00  0.00    +0.163 A 
ATOM     14  O   UNL     1      -2.362   5.554   0.358  0.00  0.00    -0.472 OA
ATOM     15  C   UNL     1      -3.713   2.374  -1.109  0.00  0.00    +0.056 C 
ENDBRANCH   2   5
BRANCH   1  20
ATOM     16  C   UNL     1       3.723  -0.658   0.341  0.00  0.00    +0.046 C 
ATOM     17  C   UNL     1       2.403   0.067   0.330  0.00  0.00    -0.024 A 
ATOM     18  C   UNL     1       2.242   1.195  -0.455  0.00  0.00    +0.007 A 
ATOM     19  C   UNL     1       1.033   1.863  -0.468  0.00  0.00    +0.024 A 
ATOM     20  C   UNL     1      -0.022   1.400   0.308  0.00  0.00    +0.035 A 
ATOM     21  C   UNL     1       0.142   0.268   1.094  0.00  0.00    +0.052 A 
ATOM     22  C   UNL     1       1.354  -0.395   1.103  0.00  0.00    +0.110 A 
BRANCH  22  23
ATOM     23  S   UNL     1       1.564  -1.833   2.100  0.00  0.00    +0.056 S 
ATOM     24  O   UNL     1       2.774  -1.652   2.824  0.00  0.00    -0.153 OA
ATOM     25  O   UNL     1       0.319  -2.066   2.744  0.00  0.00    -0.153 OA
BRANCH  23  26
ATOM     26  N   UNL     1       1.812  -3.109   1.074  0.00  0.00    -0.204 NA
ATOM     27  H   UNL     1       1.948  -4.029   1.661  0.00  0.00    +0.144 HD
ATOM     28  H   UNL     1       2.712  -2.923   0.469  0.00  0.00    +0.144 HD
ENDBRANCH  23  26
ENDBRANCH  22  23
ENDBRANCH   1  20
TORSDOF 4
