REMARK  Name = ZINC53507169
REMARK  4 active torsions:
REMARK  status: ('A' for Active; 'I' for Inactive)
REMARK    1  A    between atoms: C_6  and  C_8
REMARK    2  A    between atoms: C_8  and  N_9
REMARK    3  A    between atoms: N_17  and  C_18
REMARK    4  A    between atoms: C_18  and  C_19
REMARK                            x       y       z     vdW  Elec       q    Type
REMARK                         _______ _______ _______ _____ _____    ______ ____
ROOT
ATOM      1  N   UNL     1       1.515  -4.112   0.483  0.00  0.00    -0.291 NA
ATOM      2  C   UNL     1       2.682  -4.259  -0.397  0.00  0.00    +0.104 C 
ATOM      3  C   UNL     1       3.466  -5.513   0.005  0.00  0.00    +0.124 C 
ATOM      4  N   UNL     1       2.543  -6.659   0.010  0.00  0.00    -0.283 N 
ATOM      5  C   UNL     1       1.284  -6.535   0.760  0.00  0.00    +0.124 C 
ATOM      6  C   UNL     1       0.586  -5.240   0.329  0.00  0.00    +0.104 C 
ATOM      7  C   UNL     1       2.844  -7.792  -0.654  0.00  0.00    +0.302 C 
ATOM      8  O   UNL     1       3.843  -7.845  -1.346  0.00  0.00    -0.253 OA
ATOM      9  N   UNL     1       2.038  -8.867  -0.552  0.00  0.00    -0.297 N 
ATOM     10  H   UNL     1       1.204  -8.803  -0.060  0.00  0.00    +0.150 HD
ENDROOT
BRANCH   1  11
ATOM     11  C   UNL     1       0.833  -2.833   0.245  0.00  0.00    +0.180 C 
BRANCH  11  17
ATOM     12  C   UNL     1      -0.004   1.544   0.006  0.00  0.00    +0.020 C 
ATOM     13  C   UNL     1       1.504   1.909  -0.001  0.00  0.00    +0.020 C 
ATOM     14  C   UNL     1       2.103   0.776   0.870  0.00  0.00    +0.108 C 
ATOM     15  N   UNL     1       1.322  -0.423   0.517  0.00  0.00    -0.300 N 
ATOM     16  C   UNL     1       0.014   0.001  -0.003  0.00  0.00    +0.108 C 
ATOM     17  C   UNL     1       1.740  -1.698   0.648  0.00  0.00    +0.230 C 
ATOM     18  O   UNL     1       2.844  -1.933   1.090  0.00  0.00    -0.274 OA
ENDBRANCH  11  17
ENDBRANCH   1  11
BRANCH   9  19
ATOM     19  C   UNL     1       2.420 -10.132  -1.185  0.00  0.00    +0.137 C 
BRANCH  19  20
ATOM     20  C   UNL     1       1.339 -11.182  -0.920  0.00  0.00    +0.135 C 
ATOM     21  C   UNL     1       1.741 -12.539  -1.551  0.00  0.00    +0.035 C 
ATOM     22  C   UNL     1       0.933 -13.527  -0.666  0.00  0.00    +0.031 C 
ATOM     23  C   UNL     1       0.961 -12.830   0.712  0.00  0.00    +0.160 C 
ATOM     24  O   UNL     1       1.230 -11.440   0.489  0.00  0.00    -0.375 OA
ENDBRANCH  19  20
ENDBRANCH   9  19
TORSDOF 4
