REMARK  Name = ZINC13302824
REMARK  5 active torsions:
REMARK  status: ('A' for Active; 'I' for Inactive)
REMARK    1  A    between atoms: C_1  and  C_2
REMARK    2  A    between atoms: C_6  and  N_8
REMARK    3  A    between atoms: N_13  and  C_14
REMARK    4  A    between atoms: C_15  and  C_21
REMARK    5  A    between atoms: C_19  and  C_20
REMARK                            x       y       z     vdW  Elec       q    Type
REMARK                         _______ _______ _______ _____ _____    ______ ____
ROOT
ATOM      1  N   UNL     1      -3.394  -5.153   2.713  0.00  0.00    -0.268 N 
ATOM      2  C   UNL     1      -3.759  -5.553   3.949  0.00  0.00    +0.163 C 
ATOM      3  S   UNL     1      -5.368  -5.934   4.392  0.00  0.00    -0.016 S 
ATOM      4  N   UNL     1      -2.719  -5.617   4.785  0.00  0.00    -0.179 NA
ATOM      5  C   UNL     1      -1.592  -5.277   4.210  0.00  0.00    +0.115 C 
ATOM      6  N   UNL     1      -0.360  -5.238   4.783  0.00  0.00    -0.303 N 
ATOM      7  C   UNL     1      -1.941  -4.944   2.779  0.00  0.00    +0.094 C 
ATOM      8  C   UNL     1      -1.223  -5.886   1.818  0.00  0.00    +0.034 C 
ATOM      9  C   UNL     1      -1.623  -5.550   0.379  0.00  0.00    +0.003 C 
ATOM     10  C   UNL     1      -1.249  -4.098   0.072  0.00  0.00    +0.000 C 
ATOM     11  C   UNL     1      -1.994  -3.165   1.029  0.00  0.00    +0.003 C 
ATOM     12  C   UNL     1      -1.596  -3.491   2.471  0.00  0.00    +0.034 C 
ATOM     13  H   UNL     1       0.425  -5.079   4.235  0.00  0.00    +0.153 HD
ENDROOT
BRANCH   6  14
ATOM     14  C   UNL     1      -0.223  -5.426   6.162  0.00  0.00    +0.038 A 
ATOM     15  C   UNL     1      -0.506  -6.664   6.726  0.00  0.00    -0.029 A 
ATOM     16  C   UNL     1      -0.369  -6.847   8.088  0.00  0.00    +0.005 A 
ATOM     17  C   UNL     1       0.048  -5.801   8.890  0.00  0.00    +0.001 A 
ATOM     18  C   UNL     1       0.330  -4.567   8.331  0.00  0.00    +0.005 A 
ATOM     19  C   UNL     1       0.201  -4.379   6.969  0.00  0.00    -0.029 A 
ATOM     20  C   UNL     1       0.513  -3.036   6.361  0.00  0.00    +0.045 C 
ATOM     21  C   UNL     1      -0.961  -7.805   5.853  0.00  0.00    +0.045 C 
ENDBRANCH   6  14
BRANCH   1  27
ATOM     22  C   UNL     1      -3.927  -3.931  -2.018  0.00  0.00    +0.044 C 
ATOM     23  C   UNL     1      -4.509  -4.387  -0.705  0.00  0.00    -0.049 A 
ATOM     24  C   UNL     1      -5.866  -4.633  -0.598  0.00  0.00    +0.003 A 
ATOM     25  C   UNL     1      -6.404  -5.051   0.605  0.00  0.00    +0.002 A 
ATOM     26  C   UNL     1      -5.587  -5.224   1.705  0.00  0.00    +0.023 A 
ATOM     27  C   UNL     1      -4.224  -4.979   1.602  0.00  0.00    +0.037 A 
ATOM     28  C   UNL     1      -3.686  -4.564   0.390  0.00  0.00    +0.027 A 
ENDBRANCH   1  27
TORSDOF 2
