REMARK  Name = ZINC50194746
REMARK  4 active torsions:
REMARK  status: ('A' for Active; 'I' for Inactive)
REMARK    1  A    between atoms: C_1  and  C_2
REMARK    2  A    between atoms: C_7  and  C_11
REMARK    3  A    between atoms: C_13  and  C_18
REMARK    4  A    between atoms: C_15  and  N_17
REMARK                            x       y       z     vdW  Elec       q    Type
REMARK                         _______ _______ _______ _____ _____    ______ ____
ROOT
ATOM      1  C   UNL     1       0.874  -5.139  -0.031  0.00  0.00    +0.022 A 
ATOM      2  C   UNL     1       0.522  -6.429   0.371  0.00  0.00    +0.024 A 
ATOM      3  C   UNL     1       1.465  -7.436   0.360  0.00  0.00    +0.057 A 
ATOM      4  C   UNL     1       2.760  -7.173  -0.048  0.00  0.00    +0.035 A 
ATOM      5  C   UNL     1       3.120  -5.892  -0.450  0.00  0.00    +0.026 A 
ATOM      6  C   UNL     1       2.178  -4.874  -0.449  0.00  0.00    +0.034 A 
ENDROOT
BRANCH   1  13
ATOM      7  C   UNL     1      -0.665   0.924  -2.436  0.00  0.00    +0.066 C 
ATOM      8  C   UNL     1      -0.476  -0.432  -1.806  0.00  0.00    +0.043 A 
ATOM      9  C   UNL     1      -1.427  -0.924  -0.966  0.00  0.00    +0.071 A 
ATOM     10  C   UNL     1      -1.221  -2.195  -0.393  0.00  0.00    +0.164 A 
ATOM     11  N   UNL     1      -1.908  -2.958   0.438  0.00  0.00    -0.129 NA
ATOM     12  N   UNL     1      -1.267  -4.053   0.655  0.00  0.00    -0.128 NA
ATOM     13  C   UNL     1      -0.135  -4.059  -0.020  0.00  0.00    +0.170 A 
ATOM     14  N   UNL     1      -0.067  -2.878  -0.709  0.00  0.00    -0.266 N 
ATOM     15  C   UNL     1       0.834  -2.319  -1.555  0.00  0.00    +0.207 A 
ATOM     16  N   UNL     1       0.622  -1.143  -2.080  0.00  0.00    -0.242 NA
ENDBRANCH   1  13
BRANCH   3  17
ATOM     17  C   UNL     1       1.084  -8.828   0.794  0.00  0.00    +0.417 C 
ATOM     18  F   UNL     1       0.634  -9.555  -0.313  0.00  0.00    -0.166 F 
ATOM     19  F   UNL     1       2.198  -9.465   1.349  0.00  0.00    -0.166 F 
ATOM     20  F   UNL     1       0.064  -8.755   1.749  0.00  0.00    -0.166 F 
ENDBRANCH   3  17
BRANCH   5  21
ATOM     21  N   UNL     1       4.430  -5.630  -0.860  0.00  0.00    -0.358 N 
ATOM     22  H   UNL     1       5.088  -6.343  -0.865  0.00  0.00    +0.142 HD
ATOM     23  H   UNL     1       4.681  -4.736  -1.140  0.00  0.00    +0.142 HD
ENDBRANCH   5  21
TORSDOF 3
