REMARK  Name = ZINC41078776
REMARK  4 active torsions:
REMARK  status: ('A' for Active; 'I' for Inactive)
REMARK    1  A    between atoms: C_1  and  C_2
REMARK    2  A    between atoms: C_5  and  O_9
REMARK    3  A    between atoms: C_6  and  N_8
REMARK    4  A    between atoms: O_9  and  C_10
REMARK                            x       y       z     vdW  Elec       q    Type
REMARK                         _______ _______ _______ _____ _____    ______ ____
ROOT
ATOM      1  C   UNL     1      -0.089   1.501   0.017  0.00  0.00    +0.044 C 
ATOM      2  C   UNL     1      -0.049  -0.005   0.007  0.00  0.00    -0.048 A 
ATOM      3  C   UNL     1      -0.259  -0.693  -1.174  0.00  0.00    +0.007 A 
ATOM      4  C   UNL     1      -0.224  -2.075  -1.189  0.00  0.00    +0.048 A 
ATOM      5  C   UNL     1       0.024  -2.775  -0.020  0.00  0.00    +0.142 A 
ATOM      6  C   UNL     1       0.236  -2.083   1.170  0.00  0.00    +0.067 A 
ATOM      7  C   UNL     1       0.204  -0.696   1.177  0.00  0.00    +0.029 A 
ENDROOT
BRANCH   6   8
ATOM      8  N   UNL     1       0.486  -2.785   2.355  0.00  0.00    -0.355 N 
ATOM      9  H   UNL     1       0.511  -3.755   2.348  0.00  0.00    +0.142 HD
ATOM     10  H   UNL     1       0.633  -2.302   3.183  0.00  0.00    +0.142 HD
ENDBRANCH   6   8
BRANCH   5  11
ATOM     11  O   UNL     1       0.059  -4.134  -0.034  0.00  0.00    -0.478 OA
BRANCH  11  12
ATOM     12  C   UNL     1      -0.050  -4.773  -1.308  0.00  0.00    +0.259 C 
ATOM     13  C   UNL     1       0.579  -6.167  -1.239  0.00  0.00    +0.054 C 
ATOM     14  C   UNL     1       0.350  -6.794   0.124  0.00  0.00    +0.006 C 
ATOM     15  C   UNL     1      -1.105  -7.113   0.415  0.00  0.00    +0.019 C 
ATOM     16  C   UNL     1      -1.929  -5.831   0.543  0.00  0.00    +0.104 C 
ATOM     17  N   UNL     1      -2.378  -5.424  -0.799  0.00  0.00    -0.312 N 
ATOM     18  C   UNL     1      -1.510  -4.919  -1.681  0.00  0.00    +0.254 C 
ATOM     19  O   UNL     1      -1.889  -4.581  -2.782  0.00  0.00    -0.272 OA
ATOM     20  H   UNL     1      -3.312  -5.521  -1.044  0.00  0.00    +0.149 HD
ENDBRANCH  11  12
ENDBRANCH   5  11
TORSDOF 3
