REMARK  Name = ZINC12702619
REMARK  9 active torsions:
REMARK  status: ('A' for Active; 'I' for Inactive)
REMARK    1  A    between atoms: C_1  and  C_2
REMARK    2  A    between atoms: C_5  and  C_7
REMARK    3  A    between atoms: N_10  and  C_12
REMARK    4  A    between atoms: C_12  and  C_13
REMARK    5  A    between atoms: N_15  and  C_16
REMARK    6  A    between atoms: N_15  and  C_23
REMARK    7  A    between atoms: C_23  and  C_25
REMARK    8  A    between atoms: C_23  and  C_32
REMARK    9  A    between atoms: N_34  and  C_35
REMARK                            x       y       z     vdW  Elec       q    Type
REMARK                         _______ _______ _______ _____ _____    ______ ____
ROOT
ATOM      1  C   UNL     1      -4.592   0.419  -1.069  0.00  0.00    +0.244 C 
ATOM      2  O   UNL     1      -3.988  -0.343  -1.794  0.00  0.00    -0.273 OA
ATOM      3  N   UNL     1      -3.937   1.092  -0.102  0.00  0.00    -0.251 N 
ENDROOT
BRANCH   3   4
ATOM      4  C   UNL     1      -4.634   1.971   0.735  0.00  0.00    +0.073 A 
ATOM      5  C   UNL     1      -4.751   3.312   0.394  0.00  0.00    +0.026 A 
ATOM      6  C   UNL     1      -5.440   4.177   1.221  0.00  0.00    +0.002 A 
ATOM      7  C   UNL     1      -6.014   3.710   2.389  0.00  0.00    +0.003 A 
ATOM      8  C   UNL     1      -5.901   2.376   2.734  0.00  0.00    +0.040 A 
ATOM      9  C   UNL     1      -5.216   1.503   1.908  0.00  0.00    +0.145 A 
ATOM     10  F   UNL     1      -5.110   0.198   2.242  0.00  0.00    -0.204 F 
ENDBRANCH   3   4
BRANCH   1  11
ATOM     11  C   UNL     1      -6.076   0.614  -1.249  0.00  0.00    +0.264 C 
BRANCH  11  15
ATOM     12  C   UNL     1      -7.078  -0.875  -4.289  0.00  0.00    +0.239 A 
ATOM     13  N   UNL     1      -7.307  -1.866  -3.414  0.00  0.00    -0.105 NA
ATOM     14  N   UNL     1      -6.972  -1.432  -2.247  0.00  0.00    -0.045 NA
ATOM     15  N   UNL     1      -6.547  -0.222  -2.356  0.00  0.00    -0.154 N 
ATOM     16  N   UNL     1      -6.607   0.142  -3.591  0.00  0.00    -0.127 NA
BRANCH  12  21
ATOM     17  C   UNL     1      -7.286   0.541  -9.101  0.00  0.00    +0.086 C 
ATOM     18  C   UNL     1      -7.405  -0.298  -7.854  0.00  0.00    +0.103 A 
ATOM     19  C   UNL     1      -7.859  -1.565  -7.800  0.00  0.00    +0.045 A 
ATOM     20  C   UNL     1      -7.797  -1.969  -6.451  0.00  0.00    +0.053 A 
ATOM     21  C   UNL     1      -7.312  -0.912  -5.748  0.00  0.00    +0.175 A 
ATOM     22  O   UNL     1      -7.075   0.094  -6.613  0.00  0.00    -0.457 OA
ENDBRANCH  12  21
ENDBRANCH  11  15
ENDBRANCH   1  11
BRANCH   3  23
ATOM     23  C   UNL     1      -2.494   0.902   0.073  0.00  0.00    +0.197 C 
BRANCH  23  24
ATOM     24  C   UNL     1      -1.776   1.324  -1.183  0.00  0.00    -0.018 A 
ATOM     25  C   UNL     1      -0.892   0.457  -1.798  0.00  0.00    +0.009 A 
ATOM     26  C   UNL     1      -0.237   0.841  -2.952  0.00  0.00    +0.038 A 
ATOM     27  C   UNL     1      -0.463   2.097  -3.490  0.00  0.00    +0.123 A 
ATOM     28  C   UNL     1      -1.344   2.966  -2.871  0.00  0.00    +0.038 A 
ATOM     29  C   UNL     1      -1.998   2.580  -1.717  0.00  0.00    +0.009 A 
ATOM     30  F   UNL     1       0.178   2.473  -4.619  0.00  0.00    -0.205 F 
ENDBRANCH  23  24
BRANCH  23  31
ATOM     31  C   UNL     1      -2.015   1.739   1.231  0.00  0.00    +0.239 C 
ATOM     32  O   UNL     1      -2.425   2.872   1.372  0.00  0.00    -0.273 OA
ATOM     33  N   UNL     1      -1.131   1.228   2.111  0.00  0.00    -0.311 N 
ATOM     34  H   UNL     1      -0.803   0.322   1.998  0.00  0.00    +0.149 HD
BRANCH  33  35
ATOM     35  C   UNL     1      -0.664   2.041   3.236  0.00  0.00    +0.073 C 
ATOM     36  C   UNL     1       0.565   2.872   2.815  0.00  0.00    +0.022 C 
ATOM     37  C   UNL     1       1.471   2.875   4.071  0.00  0.00    +0.002 C 
ATOM     38  C   UNL     1       1.286   1.441   4.628  0.00  0.00    +0.002 C 
ATOM     39  C   UNL     1      -0.206   1.131   4.390  0.00  0.00    +0.022 C 
ENDBRANCH  33  35
ENDBRANCH  23  31
ENDBRANCH   3  23
TORSDOF 8
