REMARK  Name = ZINC09562940
REMARK  13 active torsions:
REMARK  status: ('A' for Active; 'I' for Inactive)
REMARK    1  A    between atoms: C_1  and  C_2
REMARK    2  A    between atoms: C_2  and  C_3
REMARK    3  A    between atoms: C_2  and  C_4
REMARK    4  A    between atoms: C_2  and  C_5
REMARK    5  A    between atoms: C_5  and  C_7
REMARK    6  A    between atoms: N_9  and  C_27
REMARK    7  A    between atoms: C_13  and  C_14
REMARK    8  A    between atoms: C_17  and  N_23
REMARK    9  A    between atoms: C_18  and  N_20
REMARK   10  A    between atoms: N_23  and  C_24
REMARK   11  A    between atoms: N_23  and  C_25
REMARK   12  A    between atoms: C_27  and  C_28
REMARK   13  A    between atoms: C_31  and  C_34
REMARK                            x       y       z     vdW  Elec       q    Type
REMARK                         _______ _______ _______ _____ _____    ______ ____
ROOT
ATOM      1  C   UNL     1       4.177   9.143   1.745  0.00  0.00    +0.080 C 
ATOM      2  C   UNL     1       2.821   8.877   1.672  0.00  0.00    +0.087 A 
ATOM      3  N   UNL     1       1.771   9.762   1.730  0.00  0.00    -0.297 N 
ATOM      4  C   UNL     1       0.522   9.337   1.645  0.00  0.00    +0.266 A 
ATOM      5  O   UNL     1      -0.418  10.109   1.695  0.00  0.00    -0.266 OA
ATOM      6  C   UNL     1       0.320   7.885   1.486  0.00  0.00    +0.079 A 
ATOM      7  C   UNL     1      -0.838   7.183   1.375  0.00  0.00    +0.028 C 
ATOM      8  S   UNL     1       2.008   7.298   1.487  0.00  0.00    -0.066 S 
ENDROOT
BRANCH   7   9
ATOM      9  C   UNL     1      -0.799   5.750   1.059  0.00  0.00    -0.022 A 
ATOM     10  C   UNL     1      -1.928   4.951   1.282  0.00  0.00    +0.010 A 
ATOM     11  C   UNL     1      -1.890   3.618   0.987  0.00  0.00    +0.026 A 
ATOM     12  C   UNL     1      -0.733   3.048   0.464  0.00  0.00    +0.060 A 
ATOM     13  C   UNL     1       0.396   3.833   0.242  0.00  0.00    +0.148 A 
ATOM     14  C   UNL     1       0.366   5.178   0.532  0.00  0.00    +0.042 A 
BRANCH  13  15
ATOM     15  N   UNL     1       1.626   3.221  -0.308  0.00  0.00    +0.058 N 
ATOM     16  O   UNL     1       2.614   3.908  -0.502  0.00  0.00    -0.126 OA
ATOM     17  O   UNL     1       1.652   2.032  -0.568  0.00  0.00    -0.126 OA
ENDBRANCH  13  15
BRANCH  12  18
ATOM     18  N   UNL     1      -0.702   1.689   0.166  0.00  0.00    -0.334 N 
ATOM     19  C   UNL     1      -0.956   0.881   1.367  0.00  0.00    +0.129 C 
ATOM     20  C   UNL     1      -1.657   1.361  -0.900  0.00  0.00    +0.129 C 
ENDBRANCH  12  18
ENDBRANCH   7   9
BRANCH   1  21
ATOM     21  C   UNL     1       5.095   8.103   1.667  0.00  0.00    +0.164 C 
ATOM     22  O   UNL     1       4.705   6.957   1.534  0.00  0.00    -0.292 OA
BRANCH  21  24
ATOM     23  C   UNL     1       7.355   7.084   1.635  0.00  0.00    +0.019 C 
ATOM     24  C   UNL     1       6.571   8.393   1.746  0.00  0.00    +0.025 C 
ATOM     25  C   UNL     1       6.970   9.325   0.600  0.00  0.00    +0.019 C 
ATOM     26  C   UNL     1       6.888   9.065   3.083  0.00  0.00    +0.019 C 
ENDBRANCH  21  24
ENDBRANCH   1  21
BRANCH   3  27
ATOM     27  C   UNL     1       2.040  11.194   1.889  0.00  0.00    +0.161 C 
BRANCH  27  28
ATOM     28  C   UNL     1       2.085  11.537   3.356  0.00  0.00    -0.028 A 
ATOM     29  C   UNL     1       0.928  11.922   4.009  0.00  0.00    +0.006 A 
ATOM     30  C   UNL     1       0.961  12.233   5.353  0.00  0.00    +0.019 A 
ATOM     31  C   UNL     1       2.168  12.168   6.051  0.00  0.00    +0.052 A 
ATOM     32  C   UNL     1       3.333  11.784   5.384  0.00  0.00    +0.019 A 
ATOM     33  C   UNL     1       3.285  11.471   4.042  0.00  0.00    +0.006 A 
BRANCH  31  34
ATOM     34  C   UNL     1       2.211  12.494   7.445  0.00  0.00    +0.099 C 
ATOM     35  N   UNL     1       2.245  12.753   8.550  0.00  0.00    -0.191 NA
ENDBRANCH  31  34
ENDBRANCH  27  28
ENDBRANCH   3  27
TORSDOF 8
