REMARK  Name = ZINC65490853
REMARK  8 active torsions:
REMARK  status: ('A' for Active; 'I' for Inactive)
REMARK    1  A    between atoms: C_1  and  C_2
REMARK    2  A    between atoms: C_2  and  N_3
REMARK    3  A    between atoms: C_4  and  C_11
REMARK    4  A    between atoms: N_7  and  C_10
REMARK    5  A    between atoms: C_11  and  C_12
REMARK    6  A    between atoms: N_15  and  C_18
REMARK    7  A    between atoms: C_18  and  C_19
REMARK    8  A    between atoms: C_24  and  C_28
REMARK                            x       y       z     vdW  Elec       q    Type
REMARK                         _______ _______ _______ _____ _____    ______ ____
ROOT
ATOM      1  C   UNL     1      -3.132   0.079   3.333  0.00  0.00    -0.011 C 
ATOM      2  C   UNL     1      -2.248  -0.833   4.190  0.00  0.00    -0.015 C 
ATOM      3  C   UNL     1      -2.961  -1.129   5.511  0.00  0.00    -0.078 C 
ATOM      4  N   UNL     1      -3.212   0.127   6.229  0.00  0.00    +0.382 N 
ATOM      5  C   UNL     1      -4.117   0.975   5.444  0.00  0.00    -0.078 C 
ATOM      6  C   UNL     1      -3.449   1.353   4.121  0.00  0.00    -0.015 C 
ATOM      7  H   UNL     1      -2.339   0.611   6.373  0.00  0.00    -0.081 HD
ENDROOT
BRANCH   1   8
ATOM      8  C   UNL     1      -2.392   0.444   2.045  0.00  0.00    +0.043 C 
BRANCH   8  10
ATOM      9  N   UNL     1      -1.372  -0.511   0.012  0.00  0.00    -0.268 N 
ATOM     10  C   UNL     1      -2.186  -0.815   1.200  0.00  0.00    +0.163 C 
ATOM     11  N   UNL     1      -3.472  -1.287   0.650  0.00  0.00    -0.217 NA
ATOM     12  N   UNL     1      -3.345  -1.236  -0.709  0.00  0.00    -0.222 N 
ATOM     13  C   UNL     1      -2.135  -0.782  -1.062  0.00  0.00    +0.320 C 
ATOM     14  O   UNL     1      -1.770  -0.637  -2.213  0.00  0.00    -0.251 OA
ATOM     15  C   UNL     1      -4.395  -1.619  -1.655  0.00  0.00    +0.154 C 
ATOM     16  H   UNL     1      -3.675  -2.226   0.958  0.00  0.00    +0.147 HD
BRANCH   9  18
ATOM     17  C   UNL     1      -0.019   1.526   0.010  0.00  0.00    +0.024 C 
ATOM     18  C   UNL     1       0.002  -0.004   0.002  0.00  0.00    +0.107 C 
ENDBRANCH   9  18
ENDBRANCH   8  10
ENDBRANCH   1   8
BRANCH   4  19
ATOM     19  C   UNL     1      -3.826  -0.169   7.530  0.00  0.00    -0.045 C 
BRANCH  19  20
ATOM     20  C   UNL     1      -3.972   1.107   8.318  0.00  0.00    -0.058 C 
ATOM     21  C   UNL     1      -5.069   1.896   8.392  0.00  0.00    -0.003 A 
ATOM     22  C   UNL     1      -6.402   1.806   7.784  0.00  0.00    +0.010 A 
ATOM     23  C   UNL     1      -7.311   2.770   8.051  0.00  0.00    +0.001 A 
ATOM     24  C   UNL     1      -7.013   3.852   8.892  0.00  0.00    +0.005 A 
ATOM     25  C   UNL     1      -5.811   4.003   9.487  0.00  0.00    -0.027 A 
ATOM     26  C   UNL     1      -4.779   3.047   9.277  0.00  0.00    +0.046 A 
ATOM     27  N   UNL     1      -3.552   2.973   9.731  0.00  0.00    -0.380 N 
ATOM     28  C   UNL     1      -2.925   1.762   9.191  0.00  0.00    +0.142 C 
ATOM     29  C   UNL     1      -5.561   5.192  10.379  0.00  0.00    +0.046 C 
ATOM     30  H   UNL     1      -3.130   3.611  10.329  0.00  0.00    +0.160 HD
ENDBRANCH  19  20
ENDBRANCH   4  19
TORSDOF 5
