REMARK  Name = ZINC58819072
REMARK  6 active torsions:
REMARK  status: ('A' for Active; 'I' for Inactive)
REMARK    1  A    between atoms: C_1  and  C_2
REMARK    2  A    between atoms: C_2  and  C_4
REMARK    3  A    between atoms: C_2  and  O_23
REMARK    4  A    between atoms: N_6  and  C_7
REMARK    5  A    between atoms: C_15  and  C_20
REMARK    6  A    between atoms: O_23  and  C_24
REMARK                            x       y       z     vdW  Elec       q    Type
REMARK                         _______ _______ _______ _____ _____    ______ ____
ROOT
ATOM      1  C   UNL     1       0.867  -0.492  -3.264  0.00  0.00    +0.105 C 
ATOM      2  C   UNL     1      -0.254  -0.722  -4.276  0.00  0.00    +0.027 C 
ATOM      3  C   UNL     1       0.385  -1.059  -5.629  0.00  0.00    +0.008 C 
ATOM      4  C   UNL     1       1.068   0.198  -6.161  0.00  0.00    +0.054 C 
ATOM      5  C   UNL     1       1.977   0.795  -5.116  0.00  0.00    +0.024 A 
ATOM      6  C   UNL     1       1.879   0.485  -3.803  0.00  0.00    -0.007 A 
ATOM      7  C   UNL     1       2.746   1.085  -2.879  0.00  0.00    +0.025 A 
ATOM      8  C   UNL     1       3.703   1.991  -3.320  0.00  0.00    +0.101 A 
ATOM      9  C   UNL     1       3.772   2.280  -4.708  0.00  0.00    +0.261 A 
ATOM     10  O   UNL     1       4.601   3.067  -5.130  0.00  0.00    -0.267 OA
ATOM     11  N   UNL     1       2.920   1.679  -5.550  0.00  0.00    -0.325 N 
ATOM     12  H   UNL     1       2.976   1.880  -6.497  0.00  0.00    +0.169 HD
ENDROOT
BRANCH   8  13
ATOM     13  C   UNL     1       4.623   2.636  -2.371  0.00  0.00    +0.247 C 
ATOM     14  O   UNL     1       4.628   2.296  -1.203  0.00  0.00    -0.270 OA
ATOM     15  N   UNL     1       5.460   3.603  -2.795  0.00  0.00    -0.325 N 
ATOM     16  H   UNL     1       5.402   3.930  -3.707  0.00  0.00    +0.145 HD
ATOM     17  H   UNL     1       6.121   3.973  -2.188  0.00  0.00    +0.145 HD
ENDBRANCH   8  13
BRANCH   1  20
ATOM     18  C   UNL     1       0.934  -0.151  -0.852  0.00  0.00    +0.254 C 
ATOM     19  O   UNL     1       1.981  -0.762  -0.824  0.00  0.00    -0.272 OA
ATOM     20  N   UNL     1       0.296   0.040  -2.024  0.00  0.00    -0.305 N 
ATOM     21  H   UNL     1      -0.542   0.529  -2.047  0.00  0.00    +0.149 HD
BRANCH  18  23
ATOM     22  C   UNL     1       0.334   1.925   0.364  0.00  0.00    +0.062 C 
ATOM     23  C   UNL     1       0.346   0.396   0.423  0.00  0.00    +0.256 C 
BRANCH  23  24
ATOM     24  O   UNL     1       1.137  -0.032   1.534  0.00  0.00    -0.478 OA
BRANCH  24  25
ATOM     25  C   UNL     1       0.520  -0.096   2.743  0.00  0.00    +0.141 A 
ATOM     26  C   UNL     1      -0.786   0.352   2.881  0.00  0.00    +0.047 A 
ATOM     27  C   UNL     1      -1.413   0.286   4.110  0.00  0.00    +0.005 A 
ATOM     28  C   UNL     1      -0.739  -0.226   5.204  0.00  0.00    +0.022 A 
ATOM     29  C   UNL     1       0.563  -0.672   5.071  0.00  0.00    +0.063 A 
ATOM     30  C   UNL     1       1.193  -0.614   3.840  0.00  0.00    +0.101 A 
ATOM     31 CL   UNL     1       2.824  -1.182   3.671  0.00  0.00    -0.078 Cl
ATOM     32 CL   UNL     1       1.406  -1.313   6.447  0.00  0.00    -0.082 Cl
ENDBRANCH  24  25
ENDBRANCH  23  24
ENDBRANCH  18  23
ENDBRANCH   1  20
TORSDOF 5
