REMARK  Name = ZINC32939182
REMARK  6 active torsions:
REMARK  status: ('A' for Active; 'I' for Inactive)
REMARK    1  A    between atoms: C_4  and  O_7
REMARK    2  A    between atoms: O_7  and  C_8
REMARK    3  A    between atoms: C_8  and  C_9
REMARK    4  A    between atoms: N_11  and  N_12
REMARK    5  A    between atoms: C_13  and  C_14
REMARK    6  A    between atoms: C_15  and  O_27
REMARK                            x       y       z     vdW  Elec       q    Type
REMARK                         _______ _______ _______ _____ _____    ______ ____
ROOT
ATOM      1  C   UNL     1       2.078  -1.663  -0.052  0.00  0.00    +0.047 A 
ATOM      2  C   UNL     1       3.474  -1.669  -0.216  0.00  0.00    +0.126 A 
ATOM      3  C   UNL     1       4.204  -0.492  -0.239  0.00  0.00    +0.049 A 
ATOM      4  C   UNL     1       3.611   0.753  -0.103  0.00  0.00    +0.050 A 
ATOM      5  C   UNL     1       2.229   0.794   0.061  0.00  0.00    +0.136 A 
ATOM      6  C   UNL     1       1.468  -0.399   0.087  0.00  0.00    +0.036 A 
ATOM      7  C   UNL     1       0.096   0.019   0.271  0.00  0.00    +0.002 A 
ATOM      8  C   UNL     1       0.114   1.367   0.340  0.00  0.00    +0.109 A 
ATOM      9  O   UNL     1       1.378   1.815   0.215  0.00  0.00    -0.459 OA
ATOM     10  C   UNL     1      -1.126   2.211   0.525  0.00  0.00    +0.075 C 
ATOM     11  C   UNL     1      -2.354   1.355   0.205  0.00  0.00    +0.008 C 
ATOM     12  C   UNL     1      -2.271   0.030   0.969  0.00  0.00    +0.005 C 
ATOM     13  C   UNL     1      -1.146  -0.827   0.376  0.00  0.00    +0.039 C 
ENDROOT
BRANCH   1  15
ATOM     14  N   UNL     1       1.587  -3.841   0.829  0.00  0.00    -0.187 NA
ATOM     15  C   UNL     1       1.296  -2.907  -0.027  0.00  0.00    +0.142 C 
BRANCH  14  18
ATOM     16  C   UNL     1       2.934  -4.610   2.635  0.00  0.00    +0.270 C 
ATOM     17  O   UNL     1       2.438  -5.712   2.517  0.00  0.00    -0.270 OA
ATOM     18  N   UNL     1       2.554  -3.610   1.816  0.00  0.00    -0.204 N 
ATOM     19  H   UNL     1       3.004  -2.611   1.922  0.00  0.00    +0.177 HD
BRANCH  16  20
ATOM     20  C   UNL     1       3.974  -4.362   3.696  0.00  0.00    +0.326 C 
BRANCH  20  21
ATOM     21  O   UNL     1       4.205  -5.567   4.429  0.00  0.00    -0.483 OA
BRANCH  21  25
ATOM     22  C   UNL     1       6.989  -5.407   7.469  0.00  0.00    +0.000 A 
ATOM     23  C   UNL     1       6.328  -6.591   7.200  0.00  0.00    +0.004 A 
ATOM     24  C   UNL     1       5.395  -6.647   6.183  0.00  0.00    +0.045 A 
ATOM     25  C   UNL     1       5.122  -5.514   5.430  0.00  0.00    +0.121 A 
ATOM     26  C   UNL     1       5.791  -4.328   5.699  0.00  0.00    +0.045 A 
ATOM     27  C   UNL     1       6.719  -4.276   6.721  0.00  0.00    +0.004 A 
ENDBRANCH  21  25
ENDBRANCH  20  21
ENDBRANCH  16  20
ENDBRANCH  14  18
ENDBRANCH   1  15
BRANCH   2  28
ATOM     28  O   UNL     1       4.122  -2.856  -0.355  0.00  0.00    -0.506 OA
ATOM     29  H   UNL     1       5.214  -2.875  -0.484  0.00  0.00    +0.292 HD
ENDBRANCH   2  28
TORSDOF 6
