REMARK  Name = ZINC13269205
REMARK  8 active torsions:
REMARK  status: ('A' for Active; 'I' for Inactive)
REMARK    1  A    between atoms: C_1  and  C_2
REMARK    2  A    between atoms: C_3  and  C_27
REMARK    3  A    between atoms: N_9  and  C_12
REMARK    4  A    between atoms: C_12  and  C_13
REMARK    5  A    between atoms: C_13  and  S_14
REMARK    6  A    between atoms: S_14  and  N_17
REMARK    7  A    between atoms: N_17  and  C_18
REMARK    8  A    between atoms: C_23  and  C_24
REMARK                            x       y       z     vdW  Elec       q    Type
REMARK                         _______ _______ _______ _____ _____    ______ ____
ROOT
ATOM      1  S   UNL     1      -4.533  -0.075   1.444  0.00  0.00    +0.045 S 
ATOM      2  O   UNL     1      -5.652   0.683   1.006  0.00  0.00    -0.155 OA
ATOM      3  O   UNL     1      -4.294  -1.378   0.930  0.00  0.00    -0.155 OA
ENDROOT
BRANCH   1   4
ATOM      4  N   UNL     1      -4.784  -0.300   3.066  0.00  0.00    -0.220 N 
ATOM      5  H   UNL     1      -4.801  -1.197   3.434  0.00  0.00    +0.173 HD
BRANCH   4   6
ATOM      6  C   UNL     1      -4.970   0.796   3.898  0.00  0.00    +0.062 A 
ATOM      7  C   UNL     1      -5.659   1.912   3.440  0.00  0.00    +0.027 A 
ATOM      8  C   UNL     1      -5.843   3.000   4.268  0.00  0.00    +0.022 A 
ATOM      9  C   UNL     1      -5.343   2.990   5.562  0.00  0.00    +0.042 A 
ATOM     10  C   UNL     1      -4.657   1.892   6.035  0.00  0.00    +0.037 A 
ATOM     11  C   UNL     1      -4.468   0.780   5.209  0.00  0.00    +0.087 A 
ATOM     12 CL   UNL     1      -5.583   4.367   6.592  0.00  0.00    -0.084 Cl
BRANCH  11  13
ATOM     13  C   UNL     1      -3.741  -0.400   5.710  0.00  0.00    +0.388 C 
ATOM     14  O   UNL     1      -3.575  -1.363   4.987  0.00  0.00    -0.241 OA
ATOM     15  O   UNL     1      -3.261  -0.411   6.969  0.00  0.00    -0.241 OA
ENDBRANCH  11  13
ENDBRANCH   4   6
ENDBRANCH   1   4
BRANCH   1  16
ATOM     16  C   UNL     1      -3.023   0.924   1.341  0.00  0.00    +0.210 C 
BRANCH  16  17
ATOM     17  C   UNL     1      -2.691   1.196  -0.128  0.00  0.00    +0.151 C 
BRANCH  17  26
ATOM     18  C   UNL     1       2.650   0.300  -0.480  0.00  0.00    +0.045 C 
ATOM     19  C   UNL     1       2.297   1.764  -0.466  0.00  0.00    -0.026 A 
ATOM     20  C   UNL     1       3.260   2.696  -0.539  0.00  0.00    -0.008 A 
ATOM     21  S   UNL     1       2.355   4.231  -0.486  0.00  0.00    -0.073 S 
ATOM     22  C   UNL     1       0.710   3.576  -0.368  0.00  0.00    +0.116 A 
ATOM     23  C   UNL     1       0.911   2.184  -0.372  0.00  0.00    +0.075 A 
ATOM     24  C   UNL     1      -0.277   1.387  -0.285  0.00  0.00    +0.262 A 
ATOM     25  O   UNL     1      -0.207   0.170  -0.282  0.00  0.00    -0.267 OA
ATOM     26  N   UNL     1      -1.471   2.003  -0.211  0.00  0.00    -0.297 N 
ATOM     27  C   UNL     1      -1.568   3.358  -0.208  0.00  0.00    +0.203 A 
ATOM     28  N   UNL     1      -0.504   4.112  -0.287  0.00  0.00    -0.230 NA
ATOM     29  C   UNL     1       4.750   2.494  -0.642  0.00  0.00    +0.052 C 
ENDBRANCH  17  26
ENDBRANCH  16  17
ENDBRANCH   1  16
TORSDOF 6
