REMARK  Name = ZINC37377743
REMARK  3 active torsions:
REMARK  status: ('A' for Active; 'I' for Inactive)
REMARK    1  A    between atoms: C_5  and  N_7
REMARK    2  A    between atoms: N_7  and  C_8
REMARK    3  A    between atoms: C_13  and  N_14
REMARK                            x       y       z     vdW  Elec       q    Type
REMARK                         _______ _______ _______ _____ _____    ______ ____
ROOT
ATOM      1  C   UNL     1       0.068  -2.843   0.076  0.00  0.00    +0.053 A 
ATOM      2  C   UNL     1      -1.176  -2.210   0.081  0.00  0.00    +0.027 A 
ATOM      3  C   UNL     1      -2.330  -2.926   0.175  0.00  0.00    +0.030 A 
ATOM      4  C   UNL     1      -2.284  -4.328   0.269  0.00  0.00    +0.073 A 
ATOM      5  C   UNL     1      -1.026  -4.983   0.265  0.00  0.00    +0.023 A 
ATOM      6  C   UNL     1       0.155  -4.223   0.162  0.00  0.00    +0.055 A 
ATOM      7  C   UNL     1      -0.987  -6.385   0.360  0.00  0.00    +0.013 A 
ATOM      8  C   UNL     1      -2.172  -7.059   0.453  0.00  0.00    +0.020 A 
ATOM      9  C   UNL     1      -3.374  -6.355   0.451  0.00  0.00    +0.111 A 
ATOM     10  N   UNL     1      -3.407  -5.047   0.362  0.00  0.00    -0.255 NA
ENDROOT
BRANCH   6  11
ATOM     11  N   UNL     1       1.401  -4.853   0.152  0.00  0.00    -0.356 N 
ATOM     12  H   UNL     1       2.211  -4.324   0.085  0.00  0.00    +0.142 HD
ATOM     13  H   UNL     1       1.456  -5.820   0.213  0.00  0.00    +0.142 HD
ENDBRANCH   6  11
BRANCH   1  14
ATOM     14  N   UNL     1       1.238  -2.077  -0.022  0.00  0.00    -0.312 N 
ATOM     15  H   UNL     1       1.957  -2.363  -0.608  0.00  0.00    +0.152 HD
BRANCH  14  20
ATOM     16  C   UNL     1       0.526   0.608   2.383  0.00  0.00    +0.002 A 
ATOM     17  C   UNL     1       1.628   1.423   2.199  0.00  0.00    +0.001 A 
ATOM     18  C   UNL     1       2.601   1.079   1.279  0.00  0.00    +0.016 A 
ATOM     19  C   UNL     1       2.475  -0.082   0.540  0.00  0.00    +0.034 A 
ATOM     20  C   UNL     1       1.369  -0.903   0.723  0.00  0.00    +0.045 A 
ATOM     21  C   UNL     1       0.393  -0.553   1.649  0.00  0.00    +0.024 A 
ATOM     22  I   UNL     1       3.949  -0.603  -0.854  0.00  0.00    -0.042 I 
ENDBRANCH  14  20
ENDBRANCH   1  14
TORSDOF 3
