REMARK  Name = ZINC17155335
REMARK  4 active torsions:
REMARK  status: ('A' for Active; 'I' for Inactive)
REMARK    1  A    between atoms: C_3  and  N_22
REMARK    2  A    between atoms: C_6  and  N_7
REMARK    3  A    between atoms: C_11  and  N_15
REMARK    4  A    between atoms: C_26  and  N_30
REMARK                            x       y       z     vdW  Elec       q    Type
REMARK                         _______ _______ _______ _____ _____    ______ ____
ROOT
ATOM      1  C   UNL     1      -0.009   1.369  -0.201  0.00  0.00    +0.026 A 
ATOM      2  C   UNL     1       1.177   2.075  -0.209  0.00  0.00    +0.026 A 
ATOM      3  C   UNL     1       2.381   1.413  -0.013  0.00  0.00    +0.044 A 
ATOM      4  C   UNL     1       2.392   0.039   0.190  0.00  0.00    +0.026 A 
ATOM      5  C   UNL     1       1.206  -0.667   0.199  0.00  0.00    +0.026 A 
ATOM      6  C   UNL     1       0.002  -0.004   0.002  0.00  0.00    +0.044 A 
ENDROOT
BRANCH   6   7
ATOM      7  N   UNL     1      -1.203  -0.722   0.010  0.00  0.00    -0.212 N 
ATOM      8  C   UNL     1      -1.698  -1.295   1.114  0.00  0.00    +0.225 C 
ATOM      9  O   UNL     1      -1.183  -1.266   2.211  0.00  0.00    -0.275 OA
ATOM     10  C   UNL     1      -3.002  -1.984   0.776  0.00  0.00    +0.090 C 
ATOM     11  C   UNL     1      -3.176  -1.708  -0.731  0.00  0.00    +0.029 C 
ATOM     12  C   UNL     1      -1.956  -0.886  -1.085  0.00  0.00    +0.213 C 
ATOM     13  O   UNL     1      -1.699  -0.449  -2.186  0.00  0.00    -0.277 OA
BRANCH  11  14
ATOM     14  N   UNL     1      -4.404  -0.939  -0.977  0.00  0.00    +0.388 N 
ATOM     15  C   UNL     1      -5.547  -1.677  -0.405  0.00  0.00    -0.078 C 
ATOM     16  C   UNL     1      -6.647  -0.689  -0.106  0.00  0.00    -0.019 C 
ATOM     17  C   UNL     1      -7.673  -0.625  -1.253  0.00  0.00    -0.002 C 
ATOM     18  C   UNL     1      -6.990  -0.668  -2.635  0.00  0.00    -0.002 C 
ATOM     19  C   UNL     1      -5.741   0.174  -2.685  0.00  0.00    -0.019 C 
ATOM     20  C   UNL     1      -4.523  -0.712  -2.349  0.00  0.00    -0.078 C 
ATOM     21  H   UNL     1      -4.327  -0.050  -0.507  0.00  0.00    -0.081 HD
ENDBRANCH  11  14
ENDBRANCH   6   7
BRANCH   3  22
ATOM     22  N   UNL     1       3.586   2.131  -0.022  0.00  0.00    -0.212 N 
ATOM     23  C   UNL     1       4.502   1.996  -0.988  0.00  0.00    +0.225 C 
ATOM     24  O   UNL     1       4.409   1.261  -1.948  0.00  0.00    -0.275 OA
ATOM     25  C   UNL     1       5.673   2.908  -0.694  0.00  0.00    +0.090 C 
ATOM     26  C   UNL     1       5.271   3.600   0.624  0.00  0.00    +0.029 C 
ATOM     27  C   UNL     1       3.912   3.010   0.933  0.00  0.00    +0.213 C 
ATOM     28  O   UNL     1       3.228   3.289   1.895  0.00  0.00    -0.277 OA
BRANCH  26  29
ATOM     29  N   UNL     1       6.234   3.285   1.688  0.00  0.00    +0.388 N 
ATOM     30  C   UNL     1       5.761   3.890   2.949  0.00  0.00    -0.078 C 
ATOM     31  C   UNL     1       6.351   3.112   4.098  0.00  0.00    -0.019 C 
ATOM     32  C   UNL     1       7.632   3.780   4.631  0.00  0.00    -0.002 C 
ATOM     33  C   UNL     1       8.518   4.313   3.487  0.00  0.00    -0.002 C 
ATOM     34  C   UNL     1       8.587   3.360   2.321  0.00  0.00    -0.019 C 
ATOM     35  C   UNL     1       7.496   3.736   1.297  0.00  0.00    -0.078 C 
ATOM     36  H   UNL     1       6.270   2.284   1.805  0.00  0.00    -0.081 HD
ENDBRANCH  26  29
ENDBRANCH   3  22
TORSDOF 4
