REMARK  Name = ZINC38728511
REMARK  10 active torsions:
REMARK  status: ('A' for Active; 'I' for Inactive)
REMARK    1  A    between atoms: C_1  and  C_2
REMARK    2  A    between atoms: C_2  and  C_3
REMARK    3  A    between atoms: N_16  and  C_26
REMARK    4  A    between atoms: C_17  and  C_19
REMARK    5  A    between atoms: C_26  and  C_27
REMARK    6  A    between atoms: C_27  and  N_28
REMARK    7  A    between atoms: N_28  and  C_29
REMARK    8  A    between atoms: N_28  and  C_31
REMARK    9  A    between atoms: C_29  and  C_30
REMARK   10  A    between atoms: C_31  and  C_32
REMARK                            x       y       z     vdW  Elec       q    Type
REMARK                         _______ _______ _______ _____ _____    ______ ____
ROOT
ATOM      1  C   UNL     1       1.233  -0.679  -0.654  0.00  0.00    -0.047 A 
ATOM      2  C   UNL     1       0.419  -0.761  -1.775  0.00  0.00    +0.007 A 
ATOM      3  C   UNL     1       0.935  -1.134  -2.996  0.00  0.00    +0.047 A 
ATOM      4  C   UNL     1       2.291  -1.434  -3.119  0.00  0.00    +0.139 A 
ATOM      5  C   UNL     1       3.107  -1.341  -1.979  0.00  0.00    +0.065 A 
ATOM      6  C   UNL     1       2.567  -0.960  -0.751  0.00  0.00    +0.019 A 
ATOM      7  C   UNL     1       4.555  -1.642  -2.104  0.00  0.00    +0.199 A 
ATOM      8  O   UNL     1       5.299  -1.751  -1.145  0.00  0.00    -0.287 OA
ATOM      9  C   UNL     1       5.005  -1.798  -3.491  0.00  0.00    +0.072 A 
ATOM     10  C   UNL     1       4.108  -1.867  -4.519  0.00  0.00    +0.199 A 
ATOM     11  O   UNL     1       2.776  -1.805  -4.326  0.00  0.00    -0.450 OA
ATOM     12  C   UNL     1       4.858  -2.012  -5.778  0.00  0.00    +0.283 C 
ATOM     13  O   UNL     1       4.356  -2.097  -6.881  0.00  0.00    -0.267 OA
ATOM     14  N   UNL     1       6.184  -2.037  -5.529  0.00  0.00    -0.285 N 
ATOM     15  C   UNL     1       6.375  -1.906  -4.075  0.00  0.00    +0.144 C 
ENDROOT
BRANCH  15  16
ATOM     16  C   UNL     1       7.077  -3.125  -3.532  0.00  0.00    -0.022 A 
ATOM     17  C   UNL     1       6.784  -4.376  -4.042  0.00  0.00    +0.007 A 
ATOM     18  C   UNL     1       7.427  -5.493  -3.545  0.00  0.00    +0.015 A 
ATOM     19  C   UNL     1       8.365  -5.360  -2.537  0.00  0.00    +0.018 A 
ATOM     20  C   UNL     1       8.659  -4.108  -2.027  0.00  0.00    +0.015 A 
ATOM     21  C   UNL     1       8.018  -2.990  -2.528  0.00  0.00    +0.007 A 
ATOM     22 BR   UNL     1       9.245  -6.888  -1.855  0.00  0.00    -0.050 Br
ENDBRANCH  15  16
BRANCH   1  24
ATOM     23  C   UNL     1       0.717   1.250   0.816  0.00  0.00    +0.009 C 
ATOM     24  C   UNL     1       0.645  -0.272   0.672  0.00  0.00    +0.032 C 
ENDBRANCH   1  24
BRANCH  14  25
ATOM     25  C   UNL     1       7.246  -2.170  -6.529  0.00  0.00    +0.090 C 
BRANCH  25  26
ATOM     26  C   UNL     1       7.668  -0.781  -7.012  0.00  0.00    -0.060 C 
BRANCH  26  27
ATOM     27  N   UNL     1       8.819  -0.907  -7.916  0.00  0.00    +0.380 N 
ATOM     28  H   UNL     1       9.553  -1.425  -7.456  0.00  0.00    -0.082 HD
BRANCH  27  29
ATOM     29  C   UNL     1       8.410  -1.617  -9.135  0.00  0.00    -0.082 C 
ATOM     30  C   UNL     1       9.634  -1.858 -10.021  0.00  0.00    -0.017 C 
ENDBRANCH  27  29
BRANCH  27  31
ATOM     31  C   UNL     1       9.312   0.431  -8.271  0.00  0.00    -0.082 C 
ATOM     32  C   UNL     1       9.870   1.116  -7.022  0.00  0.00    -0.017 C 
ENDBRANCH  27  31
ENDBRANCH  26  27
ENDBRANCH  25  26
ENDBRANCH  14  25
TORSDOF 7
