REMARK  Name = ZINC39940556
REMARK  8 active torsions:
REMARK  status: ('A' for Active; 'I' for Inactive)
REMARK    1  A    between atoms: C_1  and  O_2
REMARK    2  A    between atoms: O_2  and  C_3
REMARK    3  A    between atoms: C_3  and  C_4
REMARK    4  A    between atoms: C_6  and  C_18
REMARK    5  A    between atoms: C_8  and  C_16
REMARK    6  A    between atoms: C_9  and  N_15
REMARK    7  A    between atoms: C_27  and  O_28
REMARK    8  A    between atoms: O_28  and  C_29
REMARK                            x       y       z     vdW  Elec       q    Type
REMARK                         _______ _______ _______ _____ _____    ______ ____
ROOT
ATOM      1  C   UNL     1       0.607  -1.947  -1.075  0.00  0.00    +0.094 C 
ATOM      2  C   UNL     1      -0.026  -2.784  -1.861  0.00  0.00    +0.032 C 
ATOM      3  C   UNL     1      -0.758  -2.628  -3.166  0.00  0.00    +0.102 C 
ATOM      4  C   UNL     1      -0.337  -3.815  -4.013  0.00  0.00    +0.098 C 
ATOM      5  C   UNL     1       0.384  -4.833  -3.499  0.00  0.00    +0.195 C 
ATOM      6  O   UNL     1       0.840  -4.938  -2.238  0.00  0.00    -0.448 OA
ATOM      7  C   UNL     1       0.186  -4.161  -1.231  0.00  0.00    +0.343 C 
ATOM      8  N   UNL     1       1.075  -3.848  -0.107  0.00  0.00    -0.138 NA
ATOM      9  N   UNL     1       1.240  -2.621  -0.082  0.00  0.00    -0.153 NA
ENDROOT
BRANCH   3  10
ATOM     10  C   UNL     1      -2.247  -2.653  -2.934  0.00  0.00    +0.014 A 
ATOM     11  C   UNL     1      -3.014  -1.494  -3.142  0.00  0.00    -0.010 A 
ATOM     12  C   UNL     1      -2.419  -0.294  -3.567  0.00  0.00    +0.009 A 
ATOM     13  C   UNL     1      -3.192   0.810  -3.759  0.00  0.00    +0.001 A 
ATOM     14  C   UNL     1      -4.567   0.769  -3.539  0.00  0.00    +0.001 A 
ATOM     15  C   UNL     1      -5.178  -0.375  -3.127  0.00  0.00    +0.008 A 
ATOM     16  C   UNL     1      -4.413  -1.536  -2.919  0.00  0.00    -0.017 A 
ATOM     17  C   UNL     1      -5.009  -2.736  -2.494  0.00  0.00    +0.012 A 
ATOM     18  C   UNL     1      -4.240  -3.840  -2.302  0.00  0.00    +0.046 A 
ATOM     19  C   UNL     1      -2.860  -3.803  -2.526  0.00  0.00    +0.125 A 
BRANCH  19  20
ATOM     20  O   UNL     1      -2.119  -4.925  -2.330  0.00  0.00    -0.495 OA
ATOM     21  C   UNL     1      -2.816  -6.097  -1.904  0.00  0.00    +0.277 C 
ENDBRANCH  19  20
ENDBRANCH   3  10
BRANCH   5  22
ATOM     22  N   UNL     1       0.682  -5.868  -4.349  0.00  0.00    -0.329 N 
ATOM     23  H   UNL     1       0.377  -5.842  -5.270  0.00  0.00    +0.145 HD
ATOM     24  H   UNL     1       1.198  -6.624  -4.030  0.00  0.00    +0.145 HD
ENDBRANCH   5  22
BRANCH   4  25
ATOM     25  C   UNL     1      -0.716  -3.856  -5.394  0.00  0.00    +0.101 C 
ATOM     26  N   UNL     1      -1.016  -3.889  -6.489  0.00  0.00    -0.191 NA
ENDBRANCH   4  25
BRANCH   1  27
ATOM     27  C   UNL     1       0.632  -0.451  -1.252  0.00  0.00    +0.216 C 
BRANCH  27  29
ATOM     28  C   UNL     1      -0.055   1.599  -0.216  0.00  0.00    +0.194 C 
ATOM     29  O   UNL     1      -0.024   0.172  -0.146  0.00  0.00    -0.377 OA
ENDBRANCH  27  29
ENDBRANCH   1  27
TORSDOF 6
