REMARK  Name = ZINC51169124
REMARK  3 active torsions:
REMARK  status: ('A' for Active; 'I' for Inactive)
REMARK    1  A    between atoms: C_4  and  C_9
REMARK    2  A    between atoms: C_6  and  N_7
REMARK    3  A    between atoms: N_7  and  N_8
REMARK                            x       y       z     vdW  Elec       q    Type
REMARK                         _______ _______ _______ _____ _____    ______ ____
ROOT
ATOM      1  C   UNL     1      -0.017   1.393   0.010  0.00  0.00    +0.064 A 
ATOM      2  C   UNL     1       1.188   2.071   0.002  0.00  0.00    +0.116 A 
ATOM      3  N   UNL     1       2.319   1.382  -0.013  0.00  0.00    -0.233 NA
ATOM      4  C   UNL     1       2.309   0.054  -0.020  0.00  0.00    +0.198 A 
ATOM      5  N   UNL     1       1.171  -0.633  -0.013  0.00  0.00    -0.209 NA
ATOM      6  C   UNL     1       0.002  -0.004   0.002  0.00  0.00    +0.136 A 
ENDROOT
BRANCH   4   7
ATOM      7  C   UNL     1       3.590  -0.676  -0.036  0.00  0.00    +0.174 A 
ATOM      8  C   UNL     1       4.830  -0.113  -0.040  0.00  0.00    +0.069 A 
ATOM      9  C   UNL     1       5.756  -1.173  -0.057  0.00  0.00    +0.071 A 
ATOM     10  C   UNL     1       5.045  -2.321  -0.063  0.00  0.00    +0.185 A 
ATOM     11  O   UNL     1       3.738  -2.016  -0.044  0.00  0.00    -0.444 OA
ATOM     12 BR   UNL     1       5.770  -4.067  -0.086  0.00  0.00    -0.007 Br
ATOM     13 BR   UNL     1       7.641  -1.018  -0.071  0.00  0.00    -0.046 Br
ENDBRANCH   4   7
BRANCH   6  14
ATOM     14  N   UNL     1      -1.182  -0.723   0.010  0.00  0.00    -0.267 N 
ATOM     15  H   UNL     1      -2.033  -0.256   0.021  0.00  0.00    +0.167 HD
BRANCH  14  16
ATOM     16  N   UNL     1      -1.153  -2.088   0.002  0.00  0.00    -0.255 NA
ATOM     17  H   UNL     1      -0.611  -2.443   0.776  0.00  0.00    +0.140 HD
ATOM     18  H   UNL     1      -2.087  -2.470   0.009  0.00  0.00    +0.140 HD
ENDBRANCH  14  16
ENDBRANCH   6  14
TORSDOF 3
