REMARK  Name = ZINC17093435
REMARK  6 active torsions:
REMARK  status: ('A' for Active; 'I' for Inactive)
REMARK    1  A    between atoms: C_3  and  O_9
REMARK    2  A    between atoms: O_9  and  C_10
REMARK    3  A    between atoms: C_10  and  N_11
REMARK    4  A    between atoms: C_14  and  C_16
REMARK    5  A    between atoms: C_19  and  C_23
REMARK    6  A    between atoms: C_19  and  O_27
REMARK                            x       y       z     vdW  Elec       q    Type
REMARK                         _______ _______ _______ _____ _____    ______ ____
ROOT
ATOM      1  N   UNL     1       4.066   4.703  -0.013  0.00  0.00    -0.235 N 
ATOM      2  C   UNL     1       5.358   4.311  -0.027  0.00  0.00    +0.113 A 
ATOM      3  C   UNL     1       5.367   2.958  -0.033  0.00  0.00    +0.054 A 
ATOM      4  C   UNL     1       4.006   2.570  -0.022  0.00  0.00    +0.149 A 
ATOM      5  N   UNL     1       3.291   3.678  -0.015  0.00  0.00    -0.164 NA
ENDROOT
BRANCH   4   6
ATOM      6  C   UNL     1       3.486   1.188  -0.025  0.00  0.00    +0.289 C 
ATOM      7  O   UNL     1       4.257   0.248  -0.037  0.00  0.00    -0.266 OA
ATOM      8  N   UNL     1       2.156   0.969  -0.013  0.00  0.00    -0.147 N 
ATOM      9  C   UNL     1       1.504  -0.352  -0.014  0.00  0.00    +0.256 C 
ATOM     10  C   UNL     1       0.002  -0.004   0.002  0.00  0.00    +0.115 C 
ATOM     11  C   UNL     1      -0.018   1.508   0.010  0.00  0.00    +0.108 C 
ATOM     12  N   UNL     1       1.171   1.953   0.001  0.00  0.00    -0.187 NA
BRANCH   9  13
ATOM     13  C   UNL     1       1.865  -1.131  -1.281  0.00  0.00    +0.438 C 
ATOM     14  F   UNL     1       1.568  -0.355  -2.406  0.00  0.00    -0.166 F 
ATOM     15  F   UNL     1       3.231  -1.433  -1.270  0.00  0.00    -0.166 F 
ATOM     16  F   UNL     1       1.125  -2.317  -1.324  0.00  0.00    -0.166 F 
ENDBRANCH   9  13
BRANCH   9  17
ATOM     17  O   UNL     1       1.863  -1.092   1.154  0.00  0.00    -0.363 OA
ATOM     18  H   UNL     1       2.798  -1.336   1.193  0.00  0.00    +0.212 HD
ENDBRANCH   9  17
ENDBRANCH   4   6
BRANCH   1  19
ATOM     19  C   UNL     1       3.612   6.096  -0.002  0.00  0.00    +0.374 C 
BRANCH  19  20
ATOM     20  O   UNL     1       4.745   6.966  -0.008  0.00  0.00    -0.468 OA
BRANCH  20  23
ATOM     21  C   UNL     1       2.940  10.125   0.022  0.00  0.00    +0.023 A 
ATOM     22  C   UNL     1       3.190   8.766   0.009  0.00  0.00    +0.048 A 
ATOM     23  C   UNL     1       4.497   8.302   0.000  0.00  0.00    +0.141 A 
ATOM     24  C   UNL     1       5.552   9.205  -0.005  0.00  0.00    +0.084 A 
ATOM     25  C   UNL     1       5.297  10.564   0.003  0.00  0.00    +0.043 A 
ATOM     26  C   UNL     1       3.992  11.023   0.017  0.00  0.00    +0.043 A 
ATOM     27 CL   UNL     1       3.674  12.730   0.028  0.00  0.00    -0.083 Cl
ATOM     28 CL   UNL     1       7.189   8.629  -0.022  0.00  0.00    -0.080 Cl
ENDBRANCH  20  23
ENDBRANCH  19  20
ENDBRANCH   1  19
TORSDOF 6
