REMARK  Name = ZINC23242806
REMARK  10 active torsions:
REMARK  status: ('A' for Active; 'I' for Inactive)
REMARK    1  A    between atoms: C_1  and  C_2
REMARK    2  A    between atoms: C_2  and  O_3
REMARK    3  A    between atoms: O_3  and  C_4
REMARK    4  A    between atoms: C_4  and  C_6
REMARK    5  A    between atoms: C_7  and  C_31
REMARK    6  A    between atoms: C_12  and  C_14
REMARK    7  A    between atoms: C_14  and  C_15
REMARK    8  A    between atoms: C_20  and  S_22
REMARK    9  A    between atoms: S_22  and  C_23
REMARK   10  A    between atoms: C_23  and  C_24
REMARK                            x       y       z     vdW  Elec       q    Type
REMARK                         _______ _______ _______ _____ _____    ______ ____
ROOT
ATOM      1  C   UNL     1      -0.109   9.917   1.564  0.00  0.00    +0.151 C 
ENDROOT
BRANCH   1   8
ATOM      2  C   UNL     1      -5.636  10.266   4.403  0.00  0.00    +0.120 A 
ATOM      3  C   UNL     1      -4.737  10.683   5.375  0.00  0.00    +0.062 A 
ATOM      4  N   UNL     1      -3.468  10.708   5.061  0.00  0.00    -0.229 NA
ATOM      5  C   UNL     1      -3.045  10.361   3.855  0.00  0.00    +0.165 A 
ATOM      6  S   UNL     1      -4.522   9.936   3.045  0.00  0.00    -0.045 S 
ATOM      7  N   UNL     1      -1.752  10.337   3.365  0.00  0.00    -0.264 N 
ATOM      8  C   UNL     1      -1.518   9.943   2.098  0.00  0.00    +0.224 C 
ATOM      9  O   UNL     1      -2.442   9.610   1.386  0.00  0.00    -0.275 OA
ATOM     10  C   UNL     1      -5.207  11.087   6.749  0.00  0.00    +0.067 C 
ATOM     11  H   UNL     1      -0.913  10.639   4.011  0.00  0.00    +0.157 HD
BRANCH   2  12
ATOM     12  C   UNL     1      -7.090  10.134   4.471  0.00  0.00    +0.348 C 
ATOM     13  O   UNL     1      -7.678  10.411   5.499  0.00  0.00    -0.244 OA
BRANCH  12  14
ATOM     14  O   UNL     1      -7.779   9.705   3.393  0.00  0.00    -0.461 OA
BRANCH  14  16
ATOM     15  C   UNL     1      -9.802   9.102   2.216  0.00  0.00    +0.048 C 
ATOM     16  C   UNL     1      -9.198   9.600   3.530  0.00  0.00    +0.229 C 
ENDBRANCH  14  16
ENDBRANCH  12  14
ENDBRANCH   2  12
ENDBRANCH   1   8
BRANCH   1  17
ATOM     17  C   UNL     1      -0.122   9.443   0.133  0.00  0.00    +0.058 A 
ATOM     18  C   UNL     1      -0.144  10.352  -0.885  0.00  0.00    +0.096 A 
ATOM     19  C   UNL     1      -0.150   9.887  -2.212  0.00  0.00    +0.274 A 
ATOM     20  O   UNL     1      -0.170  10.672  -3.145  0.00  0.00    -0.266 OA
ATOM     21  N   UNL     1      -0.135   8.555  -2.432  0.00  0.00    -0.183 NA
ATOM     22  C   UNL     1      -0.113   7.695  -1.377  0.00  0.00    +0.192 A 
ATOM     23  N   UNL     1      -0.112   8.140  -0.135  0.00  0.00    -0.226 NA
BRANCH  22  24
ATOM     24  S   UNL     1      -0.086   5.959  -1.675  0.00  0.00    -0.081 S 
BRANCH  24  25
ATOM     25  C   UNL     1      -0.065   5.348   0.029  0.00  0.00    +0.112 C 
BRANCH  25  26
ATOM     26  C   UNL     1      -0.040   3.841   0.022  0.00  0.00    -0.036 A 
ATOM     27  C   UNL     1       1.169   3.170   0.011  0.00  0.00    +0.004 A 
ATOM     28  C   UNL     1       1.193   1.788   0.004  0.00  0.00    +0.002 A 
ATOM     29  C   UNL     1       0.008   1.076   0.008  0.00  0.00    +0.020 A 
ATOM     30  C   UNL     1      -1.202   1.747   0.014  0.00  0.00    +0.041 A 
ATOM     31  C   UNL     1      -1.225   3.131   0.027  0.00  0.00    +0.024 A 
ATOM     32 CL   UNL     1      -2.690   0.854   0.011  0.00  0.00    -0.084 Cl
ENDBRANCH  25  26
ENDBRANCH  24  25
ENDBRANCH  22  24
ENDBRANCH   1  17
TORSDOF 8
