REMARK  Name = ZINC29355085
REMARK  8 active torsions:
REMARK  status: ('A' for Active; 'I' for Inactive)
REMARK    1  A    between atoms: C_1  and  C_2
REMARK    2  A    between atoms: N_4  and  C_5
REMARK    3  A    between atoms: C_6  and  C_14
REMARK    4  A    between atoms: C_14  and  O_16
REMARK    5  A    between atoms: O_16  and  C_17
REMARK    6  A    between atoms: C_17  and  C_18
REMARK    7  A    between atoms: C_22  and  C_31
REMARK    8  A    between atoms: N_33  and  C_34
REMARK                            x       y       z     vdW  Elec       q    Type
REMARK                         _______ _______ _______ _____ _____    ______ ____
ROOT
ATOM      1  C   UNL     1       2.358   5.255  -0.480  0.00  0.00    +0.328 C 
ENDROOT
BRANCH   1   2
ATOM      2  C   UNL     1       1.044   5.959  -0.264  0.00  0.00    +0.258 C 
ATOM      3  O   UNL     1       0.983   7.168  -0.346  0.00  0.00    -0.272 OA
ATOM      4  N   UNL     1      -0.064   5.247   0.021  0.00  0.00    -0.261 N 
ATOM      5  C   UNL     1      -0.040   3.774   0.036  0.00  0.00    +0.168 C 
ATOM      6  C   UNL     1      -0.853   3.309   1.253  0.00  0.00    +0.276 C 
ATOM      7  O   UNL     1      -2.181   3.827   1.146  0.00  0.00    -0.476 OA
ATOM      8  C   UNL     1      -2.325   5.152   0.880  0.00  0.00    +0.143 A 
ATOM      9  C   UNL     1      -1.283   5.882   0.314  0.00  0.00    +0.078 A 
ATOM     10  C   UNL     1      -1.446   7.231   0.043  0.00  0.00    +0.027 A 
ATOM     11  C   UNL     1      -2.645   7.853   0.338  0.00  0.00    +0.002 A 
ATOM     12  C   UNL     1      -3.679   7.131   0.902  0.00  0.00    +0.004 A 
ATOM     13  C   UNL     1      -3.521   5.786   1.179  0.00  0.00    +0.047 A 
BRANCH   6  14
ATOM     14  C   UNL     1      -0.899   1.803   1.288  0.00  0.00    +0.255 C 
ATOM     15  O   UNL     1      -1.954   1.225   1.135  0.00  0.00    -0.272 OA
ATOM     16  N   UNL     1       0.233   1.099   1.487  0.00  0.00    -0.315 N 
ATOM     17  C   UNL     1       0.188  -0.365   1.521  0.00  0.00    +0.128 C 
ATOM     18  H   UNL     1       1.190   1.623   1.625  0.00  0.00    +0.148 HD
ENDBRANCH   6  14
ENDBRANCH   1   2
BRANCH   1  19
ATOM     19  O   UNL     1       3.412   6.239  -0.653  0.00  0.00    -0.452 OA
BRANCH  19  20
ATOM     20  C   UNL     1       4.660   5.770  -0.859  0.00  0.00    +0.342 C 
ATOM     21  O   UNL     1       4.861   4.571  -0.892  0.00  0.00    -0.245 OA
BRANCH  20  23
ATOM     22  C   UNL     1       6.508   7.169   0.041  0.00  0.00    +0.086 A 
ATOM     23  C   UNL     1       5.772   6.704  -1.042  0.00  0.00    +0.091 A 
ATOM     24  C   UNL     1       6.143   7.186  -2.362  0.00  0.00    -0.021 A 
ATOM     25  C   UNL     1       7.187   8.042  -2.389  0.00  0.00    -0.004 A 
ATOM     26  S   UNL     1       7.676   8.215  -0.697  0.00  0.00    -0.077 S 
ATOM     27  C   UNL     1       7.788   8.695  -3.596  0.00  0.00    +0.043 C 
ATOM     28  C   UNL     1       7.284   7.959  -4.846  0.00  0.00    +0.005 C 
ATOM     29  C   UNL     1       5.765   7.790  -4.740  0.00  0.00    +0.005 C 
ATOM     30  C   UNL     1       5.430   6.776  -3.644  0.00  0.00    +0.037 C 
BRANCH  22  34
ATOM     31  C   UNL     1       6.995   7.091   3.761  0.00  0.00    +0.109 C 
ATOM     32  C   UNL     1       7.168   7.419   2.301  0.00  0.00    +0.214 C 
ATOM     33  O   UNL     1       8.044   8.181   1.950  0.00  0.00    -0.276 OA
ATOM     34  N   UNL     1       6.349   6.867   1.384  0.00  0.00    -0.280 N 
ATOM     35  H   UNL     1       5.555   6.176   1.702  0.00  0.00    +0.155 HD
ENDBRANCH  22  34
ENDBRANCH  20  23
ENDBRANCH  19  20
ENDBRANCH   1  19
TORSDOF 6
