REMARK  Name = ZINC08273289
REMARK  9 active torsions:
REMARK  status: ('A' for Active; 'I' for Inactive)
REMARK    1  A    between atoms: C_1  and  C_2
REMARK    2  A    between atoms: C_2  and  O_3
REMARK    3  A    between atoms: O_3  and  C_4
REMARK    4  A    between atoms: C_9  and  C_10
REMARK    5  A    between atoms: C_10  and  N_11
REMARK    6  A    between atoms: C_12  and  C_14
REMARK    7  A    between atoms: C_14  and  N_15
REMARK    8  A    between atoms: C_21  and  C_24
REMARK    9  A    between atoms: C_29  and  C_32
REMARK                            x       y       z     vdW  Elec       q    Type
REMARK                         _______ _______ _______ _____ _____    ______ ____
ROOT
ATOM      1  N   UNL     1       0.568  -2.898   1.333  0.00  0.00    -0.310 N 
ATOM      2  C   UNL     1       1.714  -3.571   1.560  0.00  0.00    +0.231 C 
ATOM      3  O   UNL     1       2.287  -4.119   0.641  0.00  0.00    -0.274 OA
ATOM      4  H   UNL     1       0.110  -2.460   2.068  0.00  0.00    +0.149 HD
ENDROOT
BRANCH   1   5
ATOM      5  C   UNL     1       0.015  -2.827  -0.021  0.00  0.00    +0.143 C 
BRANCH   5  11
ATOM      6  C   UNL     1      -1.201  -0.638   0.010  0.00  0.00    +0.126 A 
ATOM      7  C   UNL     1      -2.378   0.099   0.025  0.00  0.00    +0.053 A 
ATOM      8  C   UNL     1      -3.593  -0.548   0.031  0.00  0.00    +0.001 A 
ATOM      9  C   UNL     1      -3.662  -1.935   0.018  0.00  0.00    +0.125 A 
ATOM     10  C   UNL     1      -2.478  -2.669   0.007  0.00  0.00    +0.054 A 
ATOM     11  C   UNL     1      -1.259  -2.023  -0.003  0.00  0.00    +0.015 A 
ATOM     12  O   UNL     1      -4.954  -2.365   0.011  0.00  0.00    -0.488 OA
ATOM     13  C   UNL     1      -5.810  -1.300   0.460  0.00  0.00    +0.175 C 
ATOM     14  C   UNL     1      -5.019  -0.033   0.057  0.00  0.00    +0.083 C 
ATOM     15  C   UNL     1      -6.000  -1.361   1.977  0.00  0.00    +0.052 C 
BRANCH   6  16
ATOM     16  O   UNL     1       0.002  -0.004   0.002  0.00  0.00    -0.492 OA
BRANCH  16  18
ATOM     17  C   UNL     1       1.418   1.954  -0.001  0.00  0.00    +0.048 C 
ATOM     18  C   UNL     1      -0.017   1.425   0.010  0.00  0.00    +0.225 C 
ENDBRANCH  16  18
ENDBRANCH   6  16
ENDBRANCH   5  11
ENDBRANCH   1   5
BRANCH   2  19
ATOM     19  C   UNL     1       2.283  -3.644   2.953  0.00  0.00    +0.213 C 
BRANCH  19  20
ATOM     20  N   UNL     1       3.521  -4.426   2.935  0.00  0.00    -0.215 N 
ATOM     21  C   UNL     1       3.578  -5.761   3.121  0.00  0.00    +0.247 C 
ATOM     22  O   UNL     1       2.651  -6.513   3.327  0.00  0.00    -0.273 OA
ATOM     23  C   UNL     1       5.042  -6.121   3.015  0.00  0.00    +0.113 C 
ATOM     24  C   UNL     1       5.531  -6.733   4.323  0.00  0.00    +0.035 C 
ATOM     25  C   UNL     1       4.800  -8.053   4.577  0.00  0.00    +0.006 C 
ATOM     26  C   UNL     1       5.066  -9.013   3.415  0.00  0.00    -0.014 C 
ATOM     27  C   UNL     1       4.548  -8.396   2.114  0.00  0.00    +0.006 C 
ATOM     28  C   UNL     1       5.278  -7.077   1.850  0.00  0.00    +0.035 C 
ATOM     29  C   UNL     1       4.345 -10.338   3.673  0.00  0.00    +0.007 C 
ATOM     30  N   UNL     1       5.709  -4.836   2.768  0.00  0.00    -0.285 N 
ATOM     31  C   UNL     1       4.738  -3.903   2.737  0.00  0.00    +0.310 C 
ATOM     32  O   UNL     1       4.943  -2.720   2.552  0.00  0.00    -0.252 OA
ATOM     33  H   UNL     1       6.660  -4.688   2.649  0.00  0.00    +0.151 HD
ENDBRANCH  19  20
ENDBRANCH   2  19
TORSDOF 6
