REMARK  Name = ZINC66001102
REMARK  6 active torsions:
REMARK  status: ('A' for Active; 'I' for Inactive)
REMARK    1  A    between atoms: C_5  and  C_7
REMARK    2  A    between atoms: C_7  and  N_8
REMARK    3  A    between atoms: C_11  and  N_14
REMARK    4  A    between atoms: N_14  and  S_15
REMARK    5  A    between atoms: S_15  and  C_18
REMARK    6  A    between atoms: C_21  and  N_23
REMARK                            x       y       z     vdW  Elec       q    Type
REMARK                         _______ _______ _______ _____ _____    ______ ____
ROOT
ATOM      1  N   UNL     1       1.488  -2.680   1.337  0.00  0.00    +0.383 N 
ATOM      2  C   UNL     1       2.833  -2.268   1.756  0.00  0.00    -0.077 C 
ATOM      3  C   UNL     1       3.079  -2.710   3.200  0.00  0.00    +0.002 C 
ATOM      4  C   UNL     1       2.959  -4.235   3.289  0.00  0.00    +0.073 C 
ATOM      5  C   UNL     1       1.579  -4.659   2.779  0.00  0.00    +0.002 C 
ATOM      6  C   UNL     1       1.389  -4.145   1.350  0.00  0.00    -0.077 C 
ATOM      7  H   UNL     1       0.806  -2.292   1.971  0.00  0.00    -0.081 HD
ENDROOT
BRANCH   4   8
ATOM      8  N   UNL     1       3.118  -4.658   4.683  0.00  0.00    -0.187 NA
ATOM      9  H   UNL     1       2.779  -4.101   5.401  0.00  0.00    +0.148 HD
BRANCH   8  10
ATOM     10  S   UNL     1       3.877  -6.088   5.032  0.00  0.00    +0.065 S 
ATOM     11  O   UNL     1       3.897  -6.202   6.448  0.00  0.00    -0.153 OA
ATOM     12  O   UNL     1       3.288  -7.075   4.197  0.00  0.00    -0.153 OA
BRANCH  10  13
ATOM     13  C   UNL     1       5.554  -5.927   4.516  0.00  0.00    +0.145 A 
ATOM     14  C   UNL     1       6.625  -5.485   5.219  0.00  0.00    +0.038 A 
ATOM     15  C   UNL     1       7.862  -5.444   4.603  0.00  0.00    +0.042 A 
ATOM     16  C   UNL     1       7.967  -5.847   3.313  0.00  0.00    +0.165 A 
ATOM     17  S   UNL     1       6.285  -6.311   2.933  0.00  0.00    -0.045 S 
BRANCH  16  18
ATOM     18  N   UNL     1       9.166  -5.895   2.446  0.00  0.00    +0.063 N 
ATOM     19  O   UNL     1      10.238  -5.541   2.877  0.00  0.00    -0.126 OA
ATOM     20  O   UNL     1       9.072  -6.288   1.306  0.00  0.00    -0.126 OA
ENDBRANCH  16  18
ENDBRANCH  10  13
ENDBRANCH   8  10
ENDBRANCH   4   8
BRANCH   1  21
ATOM     21  C   UNL     1       1.228  -2.186  -0.022  0.00  0.00    -0.040 C 
BRANCH  21  26
ATOM     22  C   UNL     1      -0.017   1.378   0.010  0.00  0.00    +0.000 A 
ATOM     23  C   UNL     1       1.171   2.087   0.002  0.00  0.00    +0.003 A 
ATOM     24  C   UNL     1       2.377   1.414  -0.013  0.00  0.00    +0.038 A 
ATOM     25  C   UNL     1       2.397   0.029  -0.021  0.00  0.00    +0.125 A 
ATOM     26  C   UNL     1       1.208  -0.679  -0.013  0.00  0.00    -0.029 A 
ATOM     27  C   UNL     1       0.002  -0.004   0.002  0.00  0.00    +0.004 A 
ATOM     28  F   UNL     1       3.577  -0.630  -0.036  0.00  0.00    -0.205 F 
ENDBRANCH  21  26
ENDBRANCH   1  21
TORSDOF 6
