REMARK  Name = ZINC19927812
REMARK  4 active torsions:
REMARK  status: ('A' for Active; 'I' for Inactive)
REMARK    1  A    between atoms: C_4  and  O_27
REMARK    2  A    between atoms: C_5  and  C_7
REMARK    3  A    between atoms: C_10  and  C_22
REMARK    4  A    between atoms: C_12  and  C_15
REMARK                            x       y       z     vdW  Elec       q    Type
REMARK                         _______ _______ _______ _____ _____    ______ ____
ROOT
ATOM      1  C   UNL     1       1.227  -2.187  -0.022  0.00  0.00    +0.095 C 
ATOM      2  C   UNL     1       1.359  -2.710   1.412  0.00  0.00    +0.079 C 
ATOM      3  C   UNL     1       1.064  -4.184   1.436  0.00  0.00    +0.054 C 
ATOM      4  N   UNL     1       0.478  -4.798   0.471  0.00  0.00    -0.264 NA
ATOM      5  C   UNL     1       0.039  -4.152  -0.759  0.00  0.00    +0.204 C 
ATOM      6  N   UNL     1      -0.035  -2.697  -0.585  0.00  0.00    -0.284 NA
ATOM      7  H   UNL     1      -0.819  -2.443  -0.003  0.00  0.00    +0.125 HD
ENDROOT
BRANCH   5   8
ATOM      8  C   UNL     1       1.016  -4.469  -1.862  0.00  0.00    -0.009 A 
ATOM      9  C   UNL     1       1.221  -3.562  -2.885  0.00  0.00    +0.008 A 
ATOM     10  C   UNL     1       2.117  -3.852  -3.897  0.00  0.00    +0.020 A 
ATOM     11  C   UNL     1       2.809  -5.050  -3.885  0.00  0.00    +0.041 A 
ATOM     12  C   UNL     1       2.604  -5.957  -2.861  0.00  0.00    +0.020 A 
ATOM     13  C   UNL     1       1.712  -5.663  -1.847  0.00  0.00    +0.008 A 
ATOM     14 CL   UNL     1       3.935  -5.415  -5.155  0.00  0.00    -0.084 Cl
ENDBRANCH   5   8
BRANCH   1  19
ATOM     15  C   UNL     1      -0.017   1.378   0.010  0.00  0.00    +0.001 A 
ATOM     16  C   UNL     1       1.170   2.088   0.002  0.00  0.00    +0.004 A 
ATOM     17  C   UNL     1       2.377   1.417  -0.013  0.00  0.00    +0.046 A 
ATOM     18  C   UNL     1       2.399   0.030  -0.021  0.00  0.00    +0.122 A 
ATOM     19  C   UNL     1       1.207  -0.680  -0.013  0.00  0.00    +0.011 A 
ATOM     20  C   UNL     1       0.002  -0.004   0.002  0.00  0.00    +0.009 A 
BRANCH  18  21
ATOM     21  O   UNL     1       3.586  -0.632  -0.037  0.00  0.00    -0.506 OA
ATOM     22  H   UNL     1       3.938  -0.829   0.842  0.00  0.00    +0.292 HD
ENDBRANCH  18  21
ENDBRANCH   1  19
BRANCH   3  23
ATOM     23  C   UNL     1       1.463  -4.957   2.615  0.00  0.00    +0.033 A 
ATOM     24  C   UNL     1       1.307  -6.311   2.866  0.00  0.00    +0.017 A 
ATOM     25  C   UNL     1       1.789  -6.753   4.077  0.00  0.00    +0.008 A 
ATOM     26  C   UNL     1       2.367  -5.864   4.920  0.00  0.00    +0.046 A 
ATOM     27  S   UNL     1       2.283  -4.402   4.098  0.00  0.00    -0.095 S 
ENDBRANCH   3  23
TORSDOF 4
