REMARK  Name = ZINC56062259
REMARK  7 active torsions:
REMARK  status: ('A' for Active; 'I' for Inactive)
REMARK    1  A    between atoms: C_1  and  C_2
REMARK    2  A    between atoms: N_7  and  S_9
REMARK    3  A    between atoms: S_9  and  N_12
REMARK    4  A    between atoms: N_12  and  C_13
REMARK    5  A    between atoms: C_13  and  C_14
REMARK    6  A    between atoms: C_22  and  C_29
REMARK    7  A    between atoms: C_25  and  C_28
REMARK                            x       y       z     vdW  Elec       q    Type
REMARK                         _______ _______ _______ _____ _____    ______ ____
ROOT
ATOM      1  C   UNL     1       3.058  -2.486   5.271  0.00  0.00    -0.016 A 
ATOM      2  C   UNL     1       2.519  -2.762   6.521  0.00  0.00    +0.009 A 
ATOM      3  C   UNL     1       3.365  -3.210   7.520  0.00  0.00    +0.042 A 
ATOM      4  C   UNL     1       4.718  -3.367   7.240  0.00  0.00    +0.099 A 
ATOM      5  N   UNL     1       5.194  -3.093   6.035  0.00  0.00    -0.349 N 
ATOM      6  C   UNL     1       4.409  -2.670   5.061  0.00  0.00    +0.089 A 
ATOM      7  N   UNL     1       5.580  -3.816   8.235  0.00  0.00    -0.312 N 
ATOM      8  C   UNL     1       5.108  -4.007   9.615  0.00  0.00    +0.137 C 
ATOM      9  C   UNL     1       6.074  -3.284  10.561  0.00  0.00    +0.133 C 
ATOM     10  O   UNL     1       7.411  -3.708  10.282  0.00  0.00    -0.371 OA
ATOM     11  C   UNL     1       7.864  -3.386   8.965  0.00  0.00    +0.133 C 
ATOM     12  C   UNL     1       6.988  -4.119   7.937  0.00  0.00    +0.137 C 
ATOM     13  C   UNL     1       9.320  -3.828   8.803  0.00  0.00    +0.039 C 
ATOM     14  C   UNL     1       5.721  -3.624  12.010  0.00  0.00    +0.039 C 
ATOM     15  H   UNL     1       6.141  -3.210   5.862  0.00  0.00    +0.167 HD
ENDROOT
BRANCH   1  16
ATOM     16  C   UNL     1       2.174  -1.996   4.153  0.00  0.00    +0.143 C 
BRANCH  16  17
ATOM     17  N   UNL     1       1.650  -3.143   3.406  0.00  0.00    -0.175 NA
ATOM     18  H   UNL     1       2.051  -4.019   3.519  0.00  0.00    +0.149 HD
BRANCH  17  19
ATOM     19  S   UNL     1       0.374  -2.943   2.370  0.00  0.00    +0.097 S 
ATOM     20  O   UNL     1      -0.620  -2.223   3.085  0.00  0.00    -0.141 OA
ATOM     21  O   UNL     1       0.122  -4.215   1.786  0.00  0.00    -0.141 OA
BRANCH  19  27
ATOM     22  C   UNL     1      -0.041   1.546   0.039  0.00  0.00    +0.009 C 
ATOM     23  C   UNL     1       0.001   0.017   0.013  0.00  0.00    +0.002 C 
ATOM     24  C   UNL     1       0.733  -0.453  -1.246  0.00  0.00    +0.006 C 
ATOM     25  C   UNL     1       0.746  -1.982  -1.290  0.00  0.00    +0.017 C 
ATOM     26  C   UNL     1       1.497  -2.518  -0.067  0.00  0.00    +0.110 C 
ATOM     27  N   UNL     1       0.888  -1.954   1.145  0.00  0.00    -0.166 NA
ATOM     28  C   UNL     1       0.742  -0.496   1.251  0.00  0.00    +0.113 C 
ENDBRANCH  19  27
ENDBRANCH  17  19
ENDBRANCH  16  17
ENDBRANCH   1  16
TORSDOF 4
