REMARK  Name = ZINC17077824
REMARK  7 active torsions:
REMARK  status: ('A' for Active; 'I' for Inactive)
REMARK    1  A    between atoms: C_1  and  C_2
REMARK    2  A    between atoms: C_5  and  C_8
REMARK    3  A    between atoms: C_13  and  C_17
REMARK    4  A    between atoms: C_13  and  C_18
REMARK    5  A    between atoms: C_23  and  S_25
REMARK    6  A    between atoms: S_25  and  C_26
REMARK    7  A    between atoms: C_26  and  C_27
REMARK                            x       y       z     vdW  Elec       q    Type
REMARK                         _______ _______ _______ _____ _____    ______ ____
ROOT
ATOM      1  C   UNL     1       0.059  -4.275  -0.021  0.00  0.00    +0.175 C 
ATOM      2  C   UNL     1       1.308  -4.765   0.678  0.00  0.00    +0.041 C 
ATOM      3  C   UNL     1       1.273  -5.308   1.913  0.00  0.00    +0.020 C 
ATOM      4  C   UNL     1       2.539  -5.772   2.594  0.00  0.00    +0.058 C 
ATOM      5  C   UNL     1       3.539  -6.258   1.542  0.00  0.00    -0.023 C 
ATOM      6  C   UNL     1       3.823  -5.104   0.576  0.00  0.00    +0.086 C 
ATOM      7  C   UNL     1       2.524  -4.633  -0.018  0.00  0.00    +0.164 C 
ATOM      8  O   UNL     1       2.525  -4.128  -1.123  0.00  0.00    -0.292 OA
ATOM      9  C   UNL     1       4.838  -6.689   2.227  0.00  0.00    +0.011 C 
ATOM     10  C   UNL     1       2.945  -7.440   0.774  0.00  0.00    +0.011 C 
ATOM     11  N   UNL     1       0.094  -5.467   2.601  0.00  0.00    -0.287 N 
ATOM     12  C   UNL     1      -1.093  -5.332   1.900  0.00  0.00    +0.219 A 
ATOM     13  N   UNL     1      -1.124  -4.778   0.665  0.00  0.00    -0.220 N 
ATOM     14  N   UNL     1      -2.455  -4.805   0.253  0.00  0.00    -0.141 NA
ATOM     15  C   UNL     1      -3.144  -5.352   1.231  0.00  0.00    +0.211 A 
ATOM     16  N   UNL     1      -2.311  -5.669   2.226  0.00  0.00    -0.187 NA
ATOM     17  H   UNL     1       0.093  -5.667   3.550  0.00  0.00    +0.155 HD
ENDROOT
BRANCH   1  22
ATOM     18  C   UNL     1      -0.018   1.503   0.010  0.00  0.00    +0.044 C 
ATOM     19  C   UNL     1       0.002  -0.004   0.002  0.00  0.00    -0.050 A 
ATOM     20  C   UNL     1       0.006  -0.689  -1.199  0.00  0.00    +0.004 A 
ATOM     21  C   UNL     1       0.025  -2.071  -1.206  0.00  0.00    +0.006 A 
ATOM     22  C   UNL     1       0.040  -2.768  -0.013  0.00  0.00    -0.018 A 
ATOM     23  C   UNL     1       0.037  -2.084   1.188  0.00  0.00    +0.006 A 
ATOM     24  C   UNL     1       0.023  -0.702   1.195  0.00  0.00    +0.004 A 
ENDBRANCH   1  22
BRANCH  15  25
ATOM     25  S   UNL     1      -4.885  -5.625   1.230  0.00  0.00    -0.080 S 
BRANCH  25  26
ATOM     26  C   UNL     1      -5.209  -6.397   2.838  0.00  0.00    +0.104 C 
BRANCH  26  27
ATOM     27  C   UNL     1      -6.683  -6.687   2.969  0.00  0.00    -0.023 C 
ATOM     28  C   UNL     1      -7.102  -7.926   3.045  0.00  0.00    +0.005 C 
ENDBRANCH  26  27
ENDBRANCH  25  26
ENDBRANCH  15  25
TORSDOF 4
