REMARK  Name = ZINC12871769
REMARK  14 active torsions:
REMARK  status: ('A' for Active; 'I' for Inactive)
REMARK    1  A    between atoms: C_1  and  C_2
REMARK    2  A    between atoms: C_5  and  C_36
REMARK    3  A    between atoms: C_9  and  C_10
REMARK    4  A    between atoms: C_9  and  N_70
REMARK    5  A    between atoms: C_16  and  C_18
REMARK    6  A    between atoms: C_18  and  C_20
REMARK    7  A    between atoms: C_18  and  N_23
REMARK    8  A    between atoms: C_20  and  C_21
REMARK    9  A    between atoms: C_20  and  C_22
REMARK   10  A    between atoms: C_24  and  C_26
REMARK   11  A    between atoms: C_28  and  O_34
REMARK   12  A    between atoms: C_30  and  O_32
REMARK   13  A    between atoms: O_32  and  C_33
REMARK   14  A    between atoms: O_34  and  C_35
REMARK                            x       y       z     vdW  Elec       q    Type
REMARK                         _______ _______ _______ _____ _____    ______ ____
ROOT
ATOM      1  C   UNL     1      -1.185   1.211   4.410  0.00  0.00    +0.034 A 
ATOM      2  C   UNL     1      -2.430   1.068   4.929  0.00  0.00    +0.070 A 
ATOM      3  S   UNL     1      -2.524   2.517   5.970  0.00  0.00    -0.060 S 
ATOM      4  C   UNL     1      -0.945   3.149   5.620  0.00  0.00    +0.165 A 
ATOM      5  N   UNL     1      -0.468   2.255   4.777  0.00  0.00    -0.231 NA
ATOM      6  N   UNL     1      -0.338   4.301   6.109  0.00  0.00    -0.263 N 
ATOM      7  C   UNL     1      -0.996   5.093   6.978  0.00  0.00    +0.239 C 
ATOM      8  O   UNL     1      -2.149   4.852   7.265  0.00  0.00    -0.273 OA
ATOM      9  H   UNL     1       0.559   4.534   5.823  0.00  0.00    +0.157 HD
ENDROOT
BRANCH   1  10
ATOM     10  C   UNL     1      -0.633   0.198   3.441  0.00  0.00    -0.022 C 
BRANCH  10  18
ATOM     11  C   UNL     1      -2.430   2.393   0.332  0.00  0.00    +0.005 C 
ATOM     12  C   UNL     1      -0.919   2.549   0.514  0.00  0.00    -0.031 C 
ATOM     13  C   UNL     1      -0.188   1.707  -0.535  0.00  0.00    +0.003 C 
ATOM     14  C   UNL     1      -0.533   0.230  -0.323  0.00  0.00    -0.031 C 
ATOM     15  C   UNL     1      -0.146  -0.180   1.100  0.00  0.00    -0.075 C 
ATOM     16  C   UNL     1      -0.521   2.072   1.913  0.00  0.00    -0.075 C 
ATOM     17  C   UNL     1       0.241  -0.625  -1.329  0.00  0.00    +0.005 C 
ATOM     18  N   UNL     1      -0.902   0.651   2.061  0.00  0.00    +0.384 N 
ATOM     19  H   UNL     1      -1.906   0.553   1.868  0.00  0.00    -0.081 HD
ENDBRANCH  10  18
ENDBRANCH   1  10
BRANCH   7  20
ATOM     20  C   UNL     1      -0.298   6.278   7.594  0.00  0.00    +0.162 C 
BRANCH  20  21
ATOM     21  N   UNL     1      -0.896   6.573   8.898  0.00  0.00    -0.300 N 
ATOM     22  C   UNL     1      -0.176   7.213   9.841  0.00  0.00    +0.245 C 
ATOM     23  O   UNL     1       0.970   7.545   9.609  0.00  0.00    -0.270 OA
ATOM     24  H   UNL     1      -1.811   6.309   9.083  0.00  0.00    +0.150 HD
BRANCH  22  25
ATOM     25  C   UNL     1      -0.780   7.512  11.157  0.00  0.00    +0.044 A 
ATOM     26  C   UNL     1      -2.098   7.136  11.423  0.00  0.00    +0.059 A 
ATOM     27  C   UNL     1      -2.658   7.412  12.660  0.00  0.00    +0.124 A 
ATOM     28  C   UNL     1      -1.915   8.072  13.628  0.00  0.00    +0.091 A 
ATOM     29  C   UNL     1      -0.607   8.451  13.366  0.00  0.00    +0.124 A 
ATOM     30  C   UNL     1      -0.037   8.174  12.134  0.00  0.00    +0.059 A 
BRANCH  29  31
ATOM     31  O   UNL     1       0.117   9.096  14.318  0.00  0.00    -0.495 OA
ATOM     32  C   UNL     1      -0.532   9.350  15.566  0.00  0.00    +0.277 C 
ENDBRANCH  29  31
BRANCH  27  33
ATOM     33  O   UNL     1      -3.938   7.042  12.922  0.00  0.00    -0.495 OA
ATOM     34  C   UNL     1      -4.455   7.364  14.216  0.00  0.00    +0.277 C 
ENDBRANCH  27  33
ENDBRANCH  22  25
ENDBRANCH  20  21
BRANCH  20  35
ATOM     35  C   UNL     1      -0.450   7.493   6.676  0.00  0.00    +0.012 C 
ATOM     36  C   UNL     1       0.288   7.233   5.361  0.00  0.00    +0.009 C 
ATOM     37  C   UNL     1      -1.933   7.734   6.390  0.00  0.00    +0.009 C 
ENDBRANCH  20  35
ENDBRANCH   7  20
TORSDOF 8
