REMARK  Name = ZINC19945644
REMARK  6 active torsions:
REMARK  status: ('A' for Active; 'I' for Inactive)
REMARK    1  A    between atoms: C_1  and  C_2
REMARK    2  A    between atoms: C_8  and  N_10
REMARK    3  A    between atoms: N_10  and  C_11
REMARK    4  A    between atoms: C_11  and  C_13
REMARK    5  A    between atoms: C_11  and  C_14
REMARK    6  A    between atoms: C_18  and  N_20
REMARK                            x       y       z     vdW  Elec       q    Type
REMARK                         _______ _______ _______ _____ _____    ______ ____
ROOT
ATOM      1  C   UNL     1      -2.647   5.600  -0.729  0.00  0.00    -0.044 C 
ATOM      2  C   UNL     1      -3.891   5.644   0.161  0.00  0.00    -0.009 C 
ENDROOT
BRANCH   1   3
ATOM      3  C   UNL     1      -2.333   6.989  -1.221  0.00  0.00    -0.060 A 
ATOM      4  C   UNL     1      -1.669   7.880  -0.397  0.00  0.00    +0.002 A 
ATOM      5  C   UNL     1      -1.379   9.155  -0.845  0.00  0.00    +0.002 A 
ATOM      6  C   UNL     1      -1.751   9.544  -2.117  0.00  0.00    +0.028 A 
ATOM      7  C   UNL     1      -2.417   8.652  -2.946  0.00  0.00    +0.069 A 
ATOM      8  C   UNL     1      -2.702   7.370  -2.496  0.00  0.00    +0.030 A 
BRANCH   7   9
ATOM      9  N   UNL     1      -2.796   9.043  -4.239  0.00  0.00    -0.200 N 
ATOM     10  C   UNL     1      -2.511  10.208  -4.860  0.00  0.00    +0.250 A 
ATOM     11  N   UNL     1      -3.055  10.159  -6.047  0.00  0.00    -0.116 NA
ATOM     12  N   UNL     1      -3.665   9.042  -6.220  0.00  0.00    -0.023 NA
ATOM     13  N   UNL     1      -3.550   8.305  -5.168  0.00  0.00    -0.039 NA
ENDBRANCH   7   9
ENDBRANCH   1   3
BRANCH   1  14
ATOM     14  N   UNL     1      -1.510   5.085   0.044  0.00  0.00    +0.385 N 
ATOM     15  H   UNL     1      -1.595   5.444   1.080  0.00  0.00    -0.085 HD
ATOM     16  H   UNL     1      -0.579   5.466  -0.401  0.00  0.00    -0.085 HD
BRANCH  14  23
ATOM     17  C   UNL     1       0.686   3.639   1.264  0.00  0.00    +0.006 C 
ATOM     18  C   UNL     1      -0.750   3.109   1.275  0.00  0.00    -0.028 C 
ATOM     19  C   UNL     1      -0.729   1.579   1.267  0.00  0.00    +0.002 C 
ATOM     20  C   UNL     1      -0.013   1.086   0.008  0.00  0.00    +0.000 C 
ATOM     21  C   UNL     1      -0.753   1.593  -1.232  0.00  0.00    -0.002 C 
ATOM     22  C   UNL     1      -0.773   3.123  -1.223  0.00  0.00    -0.015 C 
ATOM     23  C   UNL     1      -1.490   3.616   0.036  0.00  0.00    -0.068 C 
ENDBRANCH  14  23
ENDBRANCH   1  14
TORSDOF 4
