REMARK  Name = ZINC08251500
REMARK  9 active torsions:
REMARK  status: ('A' for Active; 'I' for Inactive)
REMARK    1  A    between atoms: C_1  and  C_2
REMARK    2  A    between atoms: C_3  and  C_27
REMARK    3  A    between atoms: N_4  and  C_21
REMARK    4  A    between atoms: C_5  and  N_9
REMARK    5  A    between atoms: C_6  and  C_7
REMARK    6  A    between atoms: C_10  and  C_12
REMARK    7  A    between atoms: C_12  and  S_13
REMARK    8  A    between atoms: S_13  and  C_14
REMARK    9  A    between atoms: N_19  and  C_20
REMARK                            x       y       z     vdW  Elec       q    Type
REMARK                         _______ _______ _______ _____ _____    ______ ____
ROOT
ATOM      1  C   UNL     1       4.876   2.335  -0.023  0.00  0.00    +0.047 C 
ATOM      2  C   UNL     1       3.370   2.359   0.022  0.00  0.00    -0.011 A 
ATOM      3  C   UNL     1       2.578   3.424  -0.188  0.00  0.00    +0.022 A 
ATOM      4  N   UNL     1       1.268   3.044  -0.066  0.00  0.00    -0.329 N 
ATOM      5  C   UNL     1       1.190   1.723   0.237  0.00  0.00    +0.124 A 
ATOM      6  C   UNL     1       2.483   1.224   0.305  0.00  0.00    +0.095 A 
ATOM      7  C   UNL     1       3.056   4.815  -0.514  0.00  0.00    +0.064 C 
ENDROOT
BRANCH   4   8
ATOM      8  C   UNL     1       0.118   3.936  -0.234  0.00  0.00    +0.089 C 
ATOM      9  C   UNL     1      -0.764   3.872   1.015  0.00  0.00    +0.025 C 
ATOM     10  C   UNL     1      -1.965   4.803   0.840  0.00  0.00    +0.002 C 
ATOM     11  C   UNL     1      -2.777   4.364  -0.380  0.00  0.00    +0.000 C 
ATOM     12  C   UNL     1      -1.895   4.428  -1.629  0.00  0.00    +0.002 C 
ATOM     13  C   UNL     1      -0.694   3.497  -1.454  0.00  0.00    +0.025 C 
ENDBRANCH   4   8
BRANCH   5  14
ATOM     14  N   UNL     1       0.024   0.999   0.438  0.00  0.00    -0.270 N 
ATOM     15  C   UNL     1      -0.043   0.091   1.432  0.00  0.00    +0.229 C 
ATOM     16  O   UNL     1       0.907  -0.074   2.167  0.00  0.00    -0.275 OA
ATOM     17  H   UNL     1      -0.744   1.149  -0.135  0.00  0.00    +0.156 HD
BRANCH  15  18
ATOM     18  C   UNL     1      -1.298  -0.719   1.629  0.00  0.00    +0.172 C 
BRANCH  18  19
ATOM     19  S   UNL     1      -1.025  -1.949   2.934  0.00  0.00    -0.088 S 
BRANCH  19  20
ATOM     20  C   UNL     1      -2.563  -2.803   3.043  0.00  0.00    +0.160 A 
ATOM     21  N   UNL     1      -3.672  -2.618   2.354  0.00  0.00    -0.133 NA
ATOM     22  N   UNL     1      -4.772  -3.407   2.603  0.00  0.00    -0.125 NA
ATOM     23  C   UNL     1      -4.711  -4.344   3.528  0.00  0.00    +0.182 A 
ATOM     24  S   UNL     1      -3.033  -4.155   4.111  0.00  0.00    -0.025 S 
ATOM     25  N   UNL     1      -5.689  -5.243   3.937  0.00  0.00    -0.325 N 
ATOM     26  C   UNL     1      -7.012  -5.222   3.308  0.00  0.00    +0.127 C 
ATOM     27  H   UNL     1      -5.497  -5.884   4.639  0.00  0.00    +0.148 HD
ENDBRANCH  19  20
ENDBRANCH  18  19
ENDBRANCH  15  18
ENDBRANCH   5  14
BRANCH   6  28
ATOM     28  C   UNL     1       2.873  -0.124   0.592  0.00  0.00    +0.103 C 
ATOM     29  N   UNL     1       3.183  -1.193   0.820  0.00  0.00    -0.191 NA
ENDBRANCH   6  28
TORSDOF 6
