REMARK  Name = ZINC12762679
REMARK  6 active torsions:
REMARK  status: ('A' for Active; 'I' for Inactive)
REMARK    1  A    between atoms: C_1  and  O_2
REMARK    2  A    between atoms: O_2  and  C_3
REMARK    3  A    between atoms: C_8  and  N_9
REMARK    4  A    between atoms: N_12  and  C_13
REMARK    5  A    between atoms: N_17  and  C_18
REMARK    6  A    between atoms: C_23  and  N_58
REMARK                            x       y       z     vdW  Elec       q    Type
REMARK                         _______ _______ _______ _____ _____    ______ ____
ROOT
ATOM      1  C   UNL     1      -1.596   2.294   1.379  0.00  0.00    +0.125 A 
ATOM      2  C   UNL     1      -1.884   2.863   2.581  0.00  0.00    +0.065 A 
ATOM      3  C   UNL     1      -0.800   2.635   3.433  0.00  0.00    +0.136 A 
ATOM      4  N   UNL     1       0.103   1.952   2.776  0.00  0.00    -0.178 NA
ATOM      5  N   UNL     1      -0.371   1.728   1.477  0.00  0.00    -0.247 N 
ENDROOT
BRANCH   5   6
ATOM      6  C   UNL     1       0.332   1.005   0.415  0.00  0.00    +0.106 C 
ATOM      7  C   UNL     1       1.661   1.703   0.115  0.00  0.00    +0.008 C 
ATOM      8  C   UNL     1       2.419   0.909  -0.952  0.00  0.00    -0.076 C 
ATOM      9  C   UNL     1       1.398  -1.162  -0.218  0.00  0.00    -0.076 C 
ATOM     10  C   UNL     1       0.610  -0.430   0.871  0.00  0.00    +0.008 C 
ATOM     11  N   UNL     1       2.676  -0.455  -0.443  0.00  0.00    +0.382 N 
ATOM     12  H   UNL     1       3.181  -0.388   0.449  0.00  0.00    -0.081 HD
BRANCH  11  13
ATOM     13  C   UNL     1       3.506  -1.206  -1.407  0.00  0.00    -0.067 C 
ATOM     14  C   UNL     1       4.912  -0.616  -1.398  0.00  0.00    -0.005 C 
ATOM     15  C   UNL     1       5.875  -1.548  -2.140  0.00  0.00    +0.067 C 
ATOM     16  S   UNL     1       5.343  -1.676  -3.874  0.00  0.00    -0.161 S 
ATOM     17  C   UNL     1       3.588  -2.130  -3.732  0.00  0.00    +0.067 C 
ATOM     18  C   UNL     1       2.895  -1.129  -2.804  0.00  0.00    -0.005 C 
ENDBRANCH  11  13
ENDBRANCH   5   6
BRANCH   1  22
ATOM     19  N   UNL     1      -4.411   2.898  -0.800  0.00  0.00    -0.266 N 
ATOM     20  C   UNL     1      -3.619   2.898   0.291  0.00  0.00    +0.309 C 
ATOM     21  O   UNL     1      -3.991   3.445   1.312  0.00  0.00    -0.252 OA
ATOM     22  N   UNL     1      -2.416   2.293   0.250  0.00  0.00    -0.254 N 
ATOM     23  H   UNL     1      -4.143   2.410  -1.594  0.00  0.00    +0.156 HD
ATOM     24  H   UNL     1      -2.119   1.858  -0.565  0.00  0.00    +0.158 HD
BRANCH  19  30
ATOM     25  C   UNL     1      -6.141   4.123  -1.970  0.00  0.00    +0.141 A 
ATOM     26  C   UNL     1      -7.339   4.818  -1.951  0.00  0.00    +0.047 A 
ATOM     27  C   UNL     1      -8.018   4.993  -0.759  0.00  0.00    +0.004 A 
ATOM     28  C   UNL     1      -7.505   4.475   0.416  0.00  0.00    +0.002 A 
ATOM     29  C   UNL     1      -6.312   3.777   0.404  0.00  0.00    +0.027 A 
ATOM     30  C   UNL     1      -5.623   3.602  -0.786  0.00  0.00    +0.077 A 
BRANCH  25  32
ATOM     31  C   UNL     1      -6.063   4.511  -4.315  0.00  0.00    +0.277 C 
ATOM     32  O   UNL     1      -5.472   3.950  -3.141  0.00  0.00    -0.493 OA
ENDBRANCH  25  32
ENDBRANCH  19  30
ENDBRANCH   1  22
TORSDOF 5
