REMARK  Name = ZINC10013211
REMARK  9 active torsions:
REMARK  status: ('A' for Active; 'I' for Inactive)
REMARK    1  A    between atoms: C_1  and  C_2
REMARK    2  A    between atoms: C_2  and  O_3
REMARK    3  A    between atoms: O_3  and  C_4
REMARK    4  A    between atoms: C_4  and  C_6
REMARK    5  A    between atoms: C_6  and  N_7
REMARK    6  A    between atoms: C_8  and  C_10
REMARK    7  A    between atoms: C_11  and  C_31
REMARK    8  A    between atoms: C_15  and  C_19
REMARK    9  A    between atoms: N_23  and  C_26
REMARK                            x       y       z     vdW  Elec       q    Type
REMARK                         _______ _______ _______ _____ _____    ______ ____
ROOT
ATOM      1  C   UNL     1      -0.891  10.307  -4.187  0.00  0.00    +0.079 A 
ATOM      2  C   UNL     1      -0.494   9.419  -3.234  0.00  0.00    -0.019 A 
ATOM      3  C   UNL     1       0.070   9.884  -2.039  0.00  0.00    +0.051 A 
ATOM      4  C   UNL     1       0.550   9.143  -0.918  0.00  0.00    +0.133 A 
ATOM      5  N   UNL     1       1.046   9.793   0.121  0.00  0.00    -0.217 NA
ATOM      6  C   UNL     1       1.124  11.112   0.156  0.00  0.00    +0.129 A 
ATOM      7  N   UNL     1       0.697  11.854  -0.847  0.00  0.00    -0.225 NA
ATOM      8  C   UNL     1       0.183  11.291  -1.922  0.00  0.00    +0.114 A 
ATOM      9  S   UNL     1      -0.490  11.884  -3.453  0.00  0.00    -0.064 S 
ATOM     10  C   UNL     1       1.707  11.783   1.373  0.00  0.00    +0.088 C 
ATOM     11  N   UNL     1       0.492   7.764  -0.916  0.00  0.00    -0.312 N 
ATOM     12  C   UNL     1       1.834   7.181  -0.777  0.00  0.00    +0.125 C 
ATOM     13  C   UNL     1       1.736   5.655  -0.859  0.00  0.00    +0.125 C 
ATOM     14  N   UNL     1       0.840   5.168   0.199  0.00  0.00    -0.314 N 
ATOM     15  C   UNL     1      -0.501   5.751   0.060  0.00  0.00    +0.125 C 
ATOM     16  C   UNL     1      -0.403   7.276   0.142  0.00  0.00    +0.125 C 
ATOM     17  C   UNL     1      -0.662   7.939  -3.464  0.00  0.00    +0.046 C 
ENDROOT
BRANCH  14  18
ATOM     18  C   UNL     1       0.782   3.779   0.201  0.00  0.00    +0.099 A 
ATOM     19  C   UNL     1      -0.015   3.123   1.134  0.00  0.00    +0.042 A 
ATOM     20  C   UNL     1      -0.068   1.741   1.121  0.00  0.00    +0.005 A 
ATOM     21  C   UNL     1       0.690   1.058   0.179  0.00  0.00    +0.018 A 
ATOM     22  C   UNL     1       1.460   1.772  -0.716  0.00  0.00    +0.084 A 
ATOM     23  N   UNL     1       1.532   3.130  -0.737  0.00  0.00    -0.350 N 
ATOM     24  H   UNL     1       2.113   3.635  -1.415  0.00  0.00    +0.166 HD
ENDBRANCH  14  18
BRANCH   1  26
ATOM     25  N   UNL     1      -1.828  11.056  -6.311  0.00  0.00    -0.300 N 
ATOM     26  C   UNL     1      -1.499  10.035  -5.495  0.00  0.00    +0.251 C 
ATOM     27  O   UNL     1      -1.705   8.887  -5.843  0.00  0.00    -0.270 OA
ATOM     28  H   UNL     1      -1.663  11.971  -6.034  0.00  0.00    +0.150 HD
BRANCH  25  29
ATOM     29  C   UNL     1      -2.434  10.784  -7.617  0.00  0.00    +0.225 C 
BRANCH  29  30
ATOM     30  C   UNL     1      -2.703  12.086  -8.326  0.00  0.00    +0.324 C 
ATOM     31  O   UNL     1      -2.417  13.133  -7.796  0.00  0.00    -0.249 OA
BRANCH  30  32
ATOM     32  O   UNL     1      -3.259  12.082  -9.548  0.00  0.00    -0.464 OA
BRANCH  32  34
ATOM     33  C   UNL     1      -4.125  13.168 -11.548  0.00  0.00    +0.048 C 
ATOM     34  C   UNL     1      -3.489  13.373 -10.172  0.00  0.00    +0.229 C 
ENDBRANCH  32  34
ENDBRANCH  30  32
ENDBRANCH  29  30
ENDBRANCH  25  29
ENDBRANCH   1  26
TORSDOF 6
