REMARK  Name = ZINC46849799
REMARK  6 active torsions:
REMARK  status: ('A' for Active; 'I' for Inactive)
REMARK    1  A    between atoms: C_1  and  C_2
REMARK    2  A    between atoms: C_18  and  S_19
REMARK    3  A    between atoms: S_19  and  C_20
REMARK    4  A    between atoms: C_20  and  C_21
REMARK    5  A    between atoms: C_24  and  S_26
REMARK    6  A    between atoms: S_26  and  N_29
REMARK                            x       y       z     vdW  Elec       q    Type
REMARK                         _______ _______ _______ _____ _____    ______ ____
ROOT
ATOM      1  C   UNL     1       0.080   1.500  -0.089  0.00  0.00    +0.045 C 
ATOM      2  C   UNL     1       0.036  -0.005  -0.032  0.00  0.00    -0.032 A 
ATOM      3  C   UNL     1      -1.181  -0.670   0.022  0.00  0.00    +0.008 A 
ATOM      4  C   UNL     1      -1.176  -2.053   0.073  0.00  0.00    +0.047 A 
ATOM      5  C   UNL     1       0.040  -2.725   0.070  0.00  0.00    +0.142 A 
ATOM      6  N   UNL     1       1.180  -2.055   0.018  0.00  0.00    -0.237 NA
ATOM      7  C   UNL     1       1.207  -0.738  -0.037  0.00  0.00    +0.116 A 
ATOM      8  N   UNL     1       0.059  -4.120   0.122  0.00  0.00    -0.239 N 
ATOM      9  C   UNL     1       0.068  -4.748   1.321  0.00  0.00    +0.268 A 
ATOM     10  O   UNL     1       0.060  -4.118   2.362  0.00  0.00    -0.267 OA
ATOM     11  C   UNL     1       0.088  -6.216   1.320  0.00  0.00    +0.065 A 
ATOM     12  C   UNL     1       0.098  -6.954   2.503  0.00  0.00    +0.015 A 
ATOM     13  C   UNL     1       0.116  -8.320   2.445  0.00  0.00    +0.001 A 
ATOM     14  C   UNL     1       0.124  -8.979   1.222  0.00  0.00    +0.002 A 
ATOM     15  C   UNL     1       0.116  -8.281   0.048  0.00  0.00    +0.028 A 
ATOM     16  C   UNL     1       0.097  -6.883   0.073  0.00  0.00    +0.079 A 
ATOM     17  N   UNL     1       0.086  -6.153  -1.066  0.00  0.00    -0.223 NA
ATOM     18  C   UNL     1       0.064  -4.843  -1.040  0.00  0.00    +0.178 A 
ENDROOT
BRANCH  18  19
ATOM     19  S   UNL     1       0.045  -3.972  -2.572  0.00  0.00    -0.079 S 
BRANCH  19  20
ATOM     20  C   UNL     1       0.056  -5.285  -3.823  0.00  0.00    +0.151 C 
BRANCH  20  21
ATOM     21  C   UNL     1       0.041  -4.669  -5.198  0.00  0.00    +0.118 A 
ATOM     22  C   UNL     1       1.125  -4.337  -5.924  0.00  0.00    +0.047 A 
ATOM     23  C   UNL     1       0.652  -3.794  -7.141  0.00  0.00    +0.071 A 
ATOM     24  C   UNL     1      -0.691  -3.826  -7.086  0.00  0.00    +0.258 A 
ATOM     25  O   UNL     1      -1.056  -4.362  -5.910  0.00  0.00    -0.441 OA
BRANCH  24  26
ATOM     26  S   UNL     1      -1.787  -3.266  -8.347  0.00  0.00    +0.094 S 
ATOM     27  O   UNL     1      -3.018  -2.957  -7.708  0.00  0.00    -0.150 OA
ATOM     28  O   UNL     1      -1.067  -2.312  -9.117  0.00  0.00    -0.150 OA
BRANCH  26  29
ATOM     29  N   UNL     1      -2.083  -4.553  -9.346  0.00  0.00    -0.174 NA
ATOM     30  C   UNL     1      -1.297  -4.914 -10.535  0.00  0.00    +0.109 C 
ATOM     31  C   UNL     1      -1.957  -6.162 -11.159  0.00  0.00    +0.018 C 
ATOM     32  C   UNL     1      -3.408  -6.099 -10.611  0.00  0.00    +0.018 C 
ATOM     33  C   UNL     1      -3.175  -5.531  -9.186  0.00  0.00    +0.109 C 
ENDBRANCH  26  29
ENDBRANCH  24  26
ENDBRANCH  20  21
ENDBRANCH  19  20
ENDBRANCH  18  19
TORSDOF 5
