REMARK  Name = ZINC35397553
REMARK  5 active torsions:
REMARK  status: ('A' for Active; 'I' for Inactive)
REMARK    1  A    between atoms: C_5  and  S_7
REMARK    2  A    between atoms: S_7  and  N_10
REMARK    3  A    between atoms: N_10  and  C_11
REMARK    4  A    between atoms: C_13  and  C_29
REMARK    5  A    between atoms: C_20  and  N_23
REMARK                            x       y       z     vdW  Elec       q    Type
REMARK                         _______ _______ _______ _____ _____    ______ ____
ROOT
ATOM      1  C   UNL     1       1.109  -4.314   1.894  0.00  0.00    +0.091 A 
ATOM      2  C   UNL     1      -0.005  -5.136   1.996  0.00  0.00    +0.046 A 
ATOM      3  C   UNL     1       0.198  -6.504   2.227  0.00  0.00    +0.103 A 
ATOM      4  C   UNL     1       1.514  -6.983   2.345  0.00  0.00    +0.113 A 
ATOM      5  N   UNL     1       2.542  -6.156   2.240  0.00  0.00    -0.347 N 
ATOM      6  C   UNL     1       2.378  -4.867   2.017  0.00  0.00    +0.110 A 
ATOM      7  N   UNL     1       1.737  -8.330   2.573  0.00  0.00    -0.316 N 
ATOM      8  C   UNL     1       1.724  -8.870   3.940  0.00  0.00    +0.105 C 
ATOM      9  C   UNL     1       3.031  -9.632   4.181  0.00  0.00    +0.004 C 
ATOM     10  C   UNL     1       3.209 -10.690   3.089  0.00  0.00    -0.066 C 
ATOM     11  C   UNL     1       3.294 -10.005   1.723  0.00  0.00    +0.004 C 
ATOM     12  C   UNL     1       1.985  -9.248   1.453  0.00  0.00    +0.105 C 
ATOM     13  H   UNL     1       3.442  -6.509   2.324  0.00  0.00    +0.167 HD
ENDROOT
BRANCH  10  14
ATOM     14  N   UNL     1       4.444 -11.445   3.336  0.00  0.00    +0.382 N 
ATOM     15  C   UNL     1       4.619 -12.453   2.284  0.00  0.00    -0.078 C 
ATOM     16  C   UNL     1       5.944 -13.188   2.491  0.00  0.00    -0.019 C 
ATOM     17  C   UNL     1       5.933 -13.874   3.860  0.00  0.00    -0.004 C 
ATOM     18  C   UNL     1       5.677 -12.824   4.944  0.00  0.00    -0.019 C 
ATOM     19  C   UNL     1       4.361 -12.102   4.646  0.00  0.00    -0.078 C 
ATOM     20  H   UNL     1       5.231 -10.813   3.328  0.00  0.00    -0.081 HD
ENDBRANCH  10  14
BRANCH   3  21
ATOM     21  C   UNL     1      -0.946  -7.420   2.344  0.00  0.00    +0.390 C 
ATOM     22  O   UNL     1      -2.087  -6.978   2.346  0.00  0.00    -0.240 OA
ATOM     23  O   UNL     1      -0.757  -8.626   2.439  0.00  0.00    -0.240 OA
ENDBRANCH   3  21
BRANCH   1  24
ATOM     24  N   UNL     1       0.955  -2.941   1.664  0.00  0.00    -0.096 NA
BRANCH  24  25
ATOM     25  S   UNL     1       2.289  -1.968   1.537  0.00  0.00    +0.092 S 
ATOM     26  O   UNL     1       2.973  -2.369   0.357  0.00  0.00    -0.148 OA
ATOM     27  O   UNL     1       2.912  -1.964   2.814  0.00  0.00    -0.148 OA
BRANCH  25  32
ATOM     28  C   UNL     1       1.065   1.408  -0.266  0.00  0.00    +0.005 A 
ATOM     29  C   UNL     1       0.809   2.248   0.802  0.00  0.00    +0.038 A 
ATOM     30  C   UNL     1       1.005   1.799   2.097  0.00  0.00    +0.125 A 
ATOM     31  C   UNL     1       1.458   0.510   2.321  0.00  0.00    +0.067 A 
ATOM     32  C   UNL     1       1.713  -0.328   1.252  0.00  0.00    +0.113 A 
ATOM     33  C   UNL     1       1.517   0.121  -0.041  0.00  0.00    +0.029 A 
ATOM     34  F   UNL     1       0.755   2.619   3.141  0.00  0.00    -0.205 F 
ENDBRANCH  25  32
ENDBRANCH  24  25
ENDBRANCH   1  24
TORSDOF 5
