REMARK  Name = ZINC64991860
REMARK  5 active torsions:
REMARK  status: ('A' for Active; 'I' for Inactive)
REMARK    1  A    between atoms: C_1  and  N_2
REMARK    2  A    between atoms: N_9  and  C_22
REMARK    3  A    between atoms: C_11  and  C_12
REMARK    4  A    between atoms: N_14  and  C_15
REMARK    5  A    between atoms: C_15  and  C_16
REMARK                            x       y       z     vdW  Elec       q    Type
REMARK                         _______ _______ _______ _____ _____    ______ ____
ROOT
ATOM      1  C   UNL     1      -0.018   1.461   0.010  0.00  0.00    +0.153 C 
ATOM      2  N   UNL     1       0.002  -0.004   0.002  0.00  0.00    -0.301 N 
ATOM      3  C   UNL     1       0.005  -0.670  -1.181  0.00  0.00    +0.202 A 
ATOM      4  N   UNL     1       0.023  -1.972  -1.243  0.00  0.00    -0.233 NA
ATOM      5  C   UNL     1       0.038  -2.716  -0.127  0.00  0.00    +0.128 A 
ATOM      6  C   UNL     1       0.036  -2.093   1.128  0.00  0.00    +0.158 A 
ATOM      7  C   UNL     1       0.022  -0.680   1.173  0.00  0.00    +0.280 A 
ATOM      8  O   UNL     1       0.025  -0.087   2.238  0.00  0.00    -0.265 OA
ATOM      9  N   UNL     1       0.053  -3.094   2.059  0.00  0.00    -0.225 N 
ATOM     10  N   UNL     1       0.066  -4.248   1.495  0.00  0.00    -0.159 NA
ATOM     11  C   UNL     1       0.058  -4.146   0.178  0.00  0.00    +0.173 A 
ENDROOT
BRANCH   9  12
ATOM     12  C   UNL     1       0.057  -2.888   3.443  0.00  0.00    +0.066 A 
ATOM     13  C   UNL     1       0.731  -1.800   3.983  0.00  0.00    +0.029 A 
ATOM     14  C   UNL     1       0.732  -1.599   5.349  0.00  0.00    +0.022 A 
ATOM     15  C   UNL     1       0.064  -2.481   6.180  0.00  0.00    +0.041 A 
ATOM     16  C   UNL     1      -0.607  -3.567   5.645  0.00  0.00    +0.022 A 
ATOM     17  C   UNL     1      -0.617  -3.769   4.279  0.00  0.00    +0.029 A 
ATOM     18 CL   UNL     1       0.069  -2.226   7.898  0.00  0.00    -0.084 Cl
ENDBRANCH   9  12
BRANCH  11  19
ATOM     19  C   UNL     1       0.069  -5.255  -0.793  0.00  0.00    +0.266 C 
ATOM     20  O   UNL     1       0.061  -5.019  -1.986  0.00  0.00    -0.268 OA
ATOM     21  N   UNL     1       0.088  -6.531  -0.358  0.00  0.00    -0.308 N 
ATOM     22  H   UNL     1       0.094  -6.719   0.593  0.00  0.00    +0.149 HD
BRANCH  21  23
ATOM     23  C   UNL     1       0.098  -7.633  -1.323  0.00  0.00    +0.136 C 
BRANCH  23  24
ATOM     24  C   UNL     1       0.119  -8.967  -0.574  0.00  0.00    +0.135 C 
ATOM     25  C   UNL     1       0.165 -10.147  -1.577  0.00  0.00    +0.035 C 
ATOM     26  C   UNL     1       0.814 -11.253  -0.701  0.00  0.00    +0.031 C 
ATOM     27  C   UNL     1       1.782 -10.442   0.187  0.00  0.00    +0.160 C 
ATOM     28  O   UNL     1       1.322  -9.084   0.202  0.00  0.00    -0.375 OA
ENDBRANCH  23  24
ENDBRANCH  21  23
ENDBRANCH  11  19
TORSDOF 4
