REMARK  Name = ZINC39469781
REMARK  6 active torsions:
REMARK  status: ('A' for Active; 'I' for Inactive)
REMARK    1  A    between atoms: C_1  and  C_2
REMARK    2  A    between atoms: C_2  and  O_3
REMARK    3  A    between atoms: O_3  and  C_4
REMARK    4  A    between atoms: P_13  and  S_23
REMARK    5  A    between atoms: S_23  and  O_26
REMARK    6  A    between atoms: O_26  and  C_27
REMARK                            x       y       z     vdW  Elec       q    Type
REMARK                         _______ _______ _______ _____ _____    ______ ____
ROOT
ATOM      1  C   UNL     1       0.777  -1.811  -1.336  0.00  0.00    +0.159 C 
ATOM      2  C   UNL     1       0.265  -2.628  -0.415  0.00  0.00    +0.026 C 
ATOM      3  C   UNL     1       0.361  -4.117  -0.524  0.00  0.00    +0.016 C 
ATOM      4  C   UNL     1      -0.889  -4.803   0.022  0.00  0.00    -0.003 C 
ATOM      5  C   UNL     1      -0.734  -6.325  -0.096  0.00  0.00    -0.020 C 
ATOM      6  C   UNL     1      -2.026  -6.956   0.441  0.00  0.00    +0.158 C 
ATOM      7  O   UNL     1      -1.897  -8.389   0.430  0.00  0.00    -0.301 OA
ATOM      8  P   UNL     1      -1.390  -9.093  -0.947  0.00  0.00    +0.431 P 
ATOM      9  O   UNL     1      -2.514  -9.226  -1.899  0.00  0.00    -0.246 OA
ATOM     10  N   UNL     1      -0.240  -8.077  -1.556  0.00  0.00    -0.271 NA
ATOM     11  N   UNL     1      -0.499  -6.723  -1.483  0.00  0.00    +0.398 N 
ATOM     12  C   UNL     1       0.695  -6.061  -2.036  0.00  0.00    -0.050 C 
ATOM     13  C   UNL     1       0.523  -4.547  -1.984  0.00  0.00    -0.011 C 
ATOM     14  C   UNL     1       1.745  -3.835  -2.574  0.00  0.00    +0.085 C 
ATOM     15  C   UNL     1       1.449  -2.348  -2.529  0.00  0.00    +0.197 C 
ATOM     16  O   UNL     1       1.762  -1.621  -3.449  0.00  0.00    -0.289 OA
ATOM     17  H   UNL     1       0.575  -8.422  -1.953  0.00  0.00    +0.113 HD
ATOM     18  H   UNL     1      -1.306  -6.491  -2.042  0.00  0.00    -0.055 HD
ENDROOT
BRANCH   8  19
ATOM     19  S   UNL     1      -0.550 -10.996  -0.533  0.00  0.00    +0.209 S 
ATOM     20  O   UNL     1      -0.269 -11.597  -1.789  0.00  0.00    -0.126 OA
ATOM     21  O   UNL     1       0.450 -10.792   0.456  0.00  0.00    -0.126 OA
BRANCH  19  22
ATOM     22  O   UNL     1      -1.640 -11.836   0.117  0.00  0.00    -0.339 OA
BRANCH  22  23
ATOM     23  C   UNL     1      -2.586 -12.282  -0.750  0.00  0.00    +0.157 A 
ATOM     24  C   UNL     1      -3.715 -11.516  -1.002  0.00  0.00    +0.048 A 
ATOM     25  C   UNL     1      -4.675 -11.972  -1.885  0.00  0.00    +0.004 A 
ATOM     26  C   UNL     1      -4.511 -13.190  -2.517  0.00  0.00    +0.000 A 
ATOM     27  C   UNL     1      -3.387 -13.956  -2.268  0.00  0.00    +0.004 A 
ATOM     28  C   UNL     1      -2.421 -13.502  -1.391  0.00  0.00    +0.048 A 
ENDBRANCH  22  23
ENDBRANCH  19  22
ENDBRANCH   8  19
BRANCH   1  29
ATOM     29  O   UNL     1       0.671  -0.465  -1.174  0.00  0.00    -0.489 OA
BRANCH  29  31
ATOM     30  C   UNL     1      -0.019   1.526   0.010  0.00  0.00    +0.048 C 
ATOM     31  C   UNL     1       0.002  -0.004   0.002  0.00  0.00    +0.226 C 
ENDBRANCH  29  31
ENDBRANCH   1  29
TORSDOF 5
