REMARK  Name = ZINC12288816
REMARK  9 active torsions:
REMARK  status: ('A' for Active; 'I' for Inactive)
REMARK    1  A    between atoms: C_1  and  C_2
REMARK    2  A    between atoms: N_5  and  S_11
REMARK    3  A    between atoms: C_7  and  C_10
REMARK    4  A    between atoms: S_11  and  C_14
REMARK    5  A    between atoms: C_17  and  C_20
REMARK    6  A    between atoms: C_20  and  N_22
REMARK    7  A    between atoms: N_24  and  C_35
REMARK    8  A    between atoms: C_27  and  N_32
REMARK    9  A    between atoms: C_35  and  C_36
REMARK                            x       y       z     vdW  Elec       q    Type
REMARK                         _______ _______ _______ _____ _____    ______ ____
ROOT
ATOM      1  C   UNL     1       1.849  -6.985  -0.035  0.00  0.00    +0.269 C 
ATOM      2  O   UNL     1       2.928  -7.479   0.240  0.00  0.00    -0.268 OA
ENDROOT
BRANCH   1   3
ATOM      3  N   UNL     1       0.997  -7.641  -0.830  0.00  0.00    -0.152 NA
ATOM      4  C   UNL     1       1.328  -8.831  -1.320  0.00  0.00    +0.167 A 
ATOM      5  N   UNL     1       0.598  -9.642  -2.132  0.00  0.00    -0.317 N 
ATOM      6  C   UNL     1       1.115 -10.855  -2.547  0.00  0.00    +0.060 A 
ATOM      7  C   UNL     1       0.521 -11.815  -3.381  0.00  0.00    +0.059 A 
ATOM      8  C   UNL     1       1.180 -12.981  -3.690  0.00  0.00    +0.128 A 
ATOM      9  C   UNL     1       2.446 -13.245  -3.193  0.00  0.00    +0.034 A 
ATOM     10  C   UNL     1       3.055 -12.315  -2.369  0.00  0.00    +0.019 A 
ATOM     11  C   UNL     1       2.396 -11.149  -2.058  0.00  0.00    +0.039 A 
ATOM     12  S   UNL     1       2.792  -9.727  -1.071  0.00  0.00    -0.052 S 
BRANCH   8  13
ATOM     13  N   UNL     1       0.526 -13.974  -4.572  0.00  0.00    +0.056 N 
ATOM     14  O   UNL     1      -0.587 -13.754  -5.016  0.00  0.00    -0.126 OA
ATOM     15  O   UNL     1       1.099 -15.011  -4.854  0.00  0.00    -0.126 OA
ENDBRANCH   8  13
BRANCH   5  16
ATOM     16  C   UNL     1      -0.737  -9.227  -2.571  0.00  0.00    +0.151 C 
BRANCH  16  17
ATOM     17  C   UNL     1      -1.363  -8.351  -1.517  0.00  0.00    -0.013 C 
ATOM     18  C   UNL     1      -1.802  -7.158  -1.832  0.00  0.00    +0.005 C 
ENDBRANCH  16  17
ENDBRANCH   5  16
ENDBRANCH   1   3
BRANCH   1  22
ATOM     19  C   UNL     1       0.790  -3.178   1.531  0.00  0.00    +0.106 A 
ATOM     20  C   UNL     1      -0.095  -3.857   0.713  0.00  0.00    +0.029 A 
ATOM     21  C   UNL     1       0.245  -5.091   0.197  0.00  0.00    +0.015 A 
ATOM     22  C   UNL     1       1.480  -5.659   0.511  0.00  0.00    +0.039 A 
ATOM     23  C   UNL     1       2.366  -4.972   1.341  0.00  0.00    +0.015 A 
ATOM     24  C   UNL     1       2.017  -3.736   1.846  0.00  0.00    +0.029 A 
BRANCH  19  25
ATOM     25  S   UNL     1       0.352  -1.600   2.181  0.00  0.00    +0.061 S 
ATOM     26  O   UNL     1       1.121  -1.419   3.361  0.00  0.00    -0.153 OA
ATOM     27  O   UNL     1      -1.068  -1.542   2.180  0.00  0.00    -0.153 OA
BRANCH  25  31
ATOM     28  C   UNL     1      -0.733   2.023   1.270  0.00  0.00    +0.039 C 
ATOM     29  C   UNL     1      -0.019   1.529   0.010  0.00  0.00    +0.131 C 
ATOM     30  C   UNL     1       0.002  -0.004   0.002  0.00  0.00    +0.140 C 
ATOM     31  N   UNL     1       0.873  -0.462   1.096  0.00  0.00    -0.172 NA
ATOM     32  C   UNL     1       2.220   0.121   1.199  0.00  0.00    +0.140 C 
ATOM     33  C   UNL     1       2.091   1.647   1.149  0.00  0.00    +0.131 C 
ATOM     34  O   UNL     1       1.325   2.018   0.000  0.00  0.00    -0.371 OA
ATOM     35  C   UNL     1       3.483   2.275   1.060  0.00  0.00    +0.039 C 
ENDBRANCH  25  31
ENDBRANCH  19  25
ENDBRANCH   1  22
TORSDOF 7
