REMARK  Name = ZINC20206189
REMARK  6 active torsions:
REMARK  status: ('A' for Active; 'I' for Inactive)
REMARK    1  A    between atoms: C_1  and  S_2
REMARK    2  A    between atoms: S_2  and  C_5
REMARK    3  A    between atoms: C_13  and  C_14
REMARK    4  A    between atoms: C_17  and  O_20
REMARK    5  A    between atoms: O_20  and  C_21
REMARK    6  A    between atoms: C_21  and  C_23
REMARK                            x       y       z     vdW  Elec       q    Type
REMARK                         _______ _______ _______ _____ _____    ______ ____
ROOT
ATOM      1  C   UNL     1      -4.763   1.400   0.052  0.00  0.00    +0.257 C 
ATOM      2  N   UNL     1      -5.659   2.065   0.713  0.00  0.00    -0.174 NA
ATOM      3  S   UNL     1      -5.865   3.473  -0.173  0.00  0.00    +0.049 S 
ATOM      4  C   UNL     1      -4.816   3.158  -1.430  0.00  0.00    +0.183 C 
ATOM      5  N   UNL     1      -4.550   3.860  -2.508  0.00  0.00    -0.152 NA
ATOM      6  C   UNL     1      -3.702   3.366  -3.429  0.00  0.00    +0.273 C 
ATOM      7  O   UNL     1      -3.336   4.049  -4.371  0.00  0.00    -0.268 OA
ATOM      8  C   UNL     1      -3.223   1.970  -3.269  0.00  0.00    +0.078 C 
ATOM      9  C   UNL     1      -2.805   1.218  -4.343  0.00  0.00    +0.024 C 
ATOM     10  C   UNL     1      -3.219   1.429  -1.879  0.00  0.00    +0.117 C 
ATOM     11  N   UNL     1      -2.343   0.563  -1.448  0.00  0.00    -0.386 N 
ATOM     12  N   UNL     1      -4.252   1.951  -1.074  0.00  0.00    -0.203 N 
ATOM     13  H   UNL     1      -1.708   0.167  -2.065  0.00  0.00    +0.157 HD
ATOM     14  H   UNL     1      -2.327   0.315  -0.510  0.00  0.00    +0.157 HD
ENDROOT
BRANCH   9  15
ATOM     15  C   UNL     1      -3.004   1.715  -5.707  0.00  0.00    -0.024 A 
ATOM     16  C   UNL     1      -2.014   1.515  -6.680  0.00  0.00    +0.011 A 
ATOM     17  C   UNL     1      -2.206   1.982  -7.954  0.00  0.00    +0.047 A 
ATOM     18  C   UNL     1      -3.379   2.653  -8.283  0.00  0.00    +0.132 A 
ATOM     19  C   UNL     1      -4.364   2.854  -7.322  0.00  0.00    +0.047 A 
ATOM     20  C   UNL     1      -4.187   2.387  -6.046  0.00  0.00    +0.011 A 
BRANCH  18  21
ATOM     21  O   UNL     1      -3.563   3.114  -9.547  0.00  0.00    -0.422 OA
BRANCH  21  22
ATOM     22  C   UNL     1      -3.899   2.224 -10.502  0.00  0.00    +0.346 C 
ATOM     23  O   UNL     1      -4.124   1.068 -10.203  0.00  0.00    -0.244 OA
BRANCH  22  24
ATOM     24  C   UNL     1      -3.993   2.654 -11.911  0.00  0.00    +0.078 A 
ATOM     25  C   UNL     1      -3.728   3.981 -12.259  0.00  0.00    +0.016 A 
ATOM     26  C   UNL     1      -3.818   4.376 -13.577  0.00  0.00    +0.001 A 
ATOM     27  C   UNL     1      -4.170   3.462 -14.555  0.00  0.00    +0.001 A 
ATOM     28  C   UNL     1      -4.434   2.147 -14.219  0.00  0.00    +0.021 A 
ATOM     29  C   UNL     1      -4.341   1.735 -12.904  0.00  0.00    +0.055 A 
ATOM     30 CL   UNL     1      -4.664   0.081 -12.485  0.00  0.00    -0.083 Cl
ENDBRANCH  22  24
ENDBRANCH  21  22
ENDBRANCH  18  21
ENDBRANCH   9  15
BRANCH   1  32
ATOM     31  C   UNL     1      -2.734   0.164   1.599  0.00  0.00    +0.203 C 
ATOM     32  S   UNL     1      -4.216  -0.179   0.611  0.00  0.00    +0.026 S 
ATOM     33  O   UNL     1      -3.864  -0.881  -0.573  0.00  0.00    -0.167 OA
ATOM     34  O   UNL     1      -5.264  -0.649   1.448  0.00  0.00    -0.167 OA
ENDBRANCH   1  32
TORSDOF 5
