REMARK  Name = ZINC50036906
REMARK  4 active torsions:
REMARK  status: ('A' for Active; 'I' for Inactive)
REMARK    1  A    between atoms: C_2  and  C_10
REMARK    2  A    between atoms: C_3  and  N_9
REMARK    3  A    between atoms: N_14  and  C_15
REMARK    4  A    between atoms: C_15  and  C_16
REMARK                            x       y       z     vdW  Elec       q    Type
REMARK                         _______ _______ _______ _____ _____    ______ ____
ROOT
ATOM      1  C   UNL     1       0.533   1.479   0.775  0.00  0.00    +0.054 A 
ATOM      2  C   UNL     1       1.311   2.289  -0.053  0.00  0.00    +0.044 A 
ATOM      3  C   UNL     1       2.227   1.702  -0.937  0.00  0.00    +0.038 A 
ATOM      4  C   UNL     1       2.352   0.321  -0.982  0.00  0.00    +0.064 A 
ATOM      5  C   UNL     1       1.575  -0.472  -0.157  0.00  0.00    +0.160 A 
ATOM      6  C   UNL     1       0.667   0.107   0.720  0.00  0.00    +0.159 A 
ATOM      7  F   UNL     1      -0.087  -0.676   1.522  0.00  0.00    -0.202 F 
ATOM      8  F   UNL     1       1.700  -1.817  -0.205  0.00  0.00    -0.202 F 
ENDROOT
BRANCH   2   9
ATOM      9  C   UNL     1       1.171   3.759   0.002  0.00  0.00    +0.184 A 
ATOM     10  N   UNL     1       2.149   4.637   0.095  0.00  0.00    -0.108 NA
ATOM     11  N   UNL     1       1.680   5.832   0.119  0.00  0.00    -0.023 NA
ATOM     12  N   UNL     1       0.393   5.811   0.046  0.00  0.00    -0.044 NA
ATOM     13  N   UNL     1       0.010   4.461  -0.039  0.00  0.00    -0.225 N 
BRANCH  13  14
ATOM     14  C   UNL     1      -1.349   3.926  -0.146  0.00  0.00    +0.151 C 
BRANCH  14  15
ATOM     15  C   UNL     1      -1.688   3.684  -1.618  0.00  0.00    +0.011 C 
ATOM     16  C   UNL     1      -1.800   5.030  -2.363  0.00  0.00    +0.005 C 
ATOM     17  C   UNL     1      -2.961   4.814  -3.365  0.00  0.00    +0.000 C 
ATOM     18  C   UNL     1      -3.959   3.954  -2.551  0.00  0.00    +0.000 C 
ATOM     19  C   UNL     1      -3.060   2.999  -1.738  0.00  0.00    +0.005 C 
ENDBRANCH  14  15
ENDBRANCH  13  14
ENDBRANCH   2   9
BRANCH   3  20
ATOM     20  N   UNL     1       3.009   2.503  -1.768  0.00  0.00    -0.357 N 
ATOM     21  H   UNL     1       2.972   3.469  -1.685  0.00  0.00    +0.142 HD
ATOM     22  H   UNL     1       3.590   2.094  -2.429  0.00  0.00    +0.142 HD
ENDBRANCH   3  20
TORSDOF 4
