REMARK  Name = ZINC39560270
REMARK  4 active torsions:
REMARK  status: ('A' for Active; 'I' for Inactive)
REMARK    1  A    between atoms: C_1  and  C_2
REMARK    2  A    between atoms: C_16  and  C_18
REMARK    3  A    between atoms: C_18  and  O_20
REMARK    4  A    between atoms: O_20  and  C_21
REMARK                            x       y       z     vdW  Elec       q    Type
REMARK                         _______ _______ _______ _____ _____    ______ ____
ROOT
ATOM      1  C   UNL     1      -0.243   1.475   0.154  0.00  0.00    +0.035 C 
ATOM      2  C   UNL     1       0.002  -0.004   0.002  0.00  0.00    -0.033 C 
ATOM      3  C   UNL     1       0.673  -0.658   0.925  0.00  0.00    -0.087 C 
ATOM      4  C   UNL     1       0.827  -2.182   0.919  0.00  0.00    -0.051 C 
ATOM      5  N   UNL     1       0.936  -2.876   2.224  0.00  0.00    +0.384 N 
ATOM      6  C   UNL     1       1.434  -1.952   3.225  0.00  0.00    -0.053 C 
ATOM      7  C   UNL     1       2.888  -1.657   3.058  0.00  0.00    +0.023 C 
ATOM      8  C   UNL     1       3.492  -0.664   3.971  0.00  0.00    -0.011 C 
ATOM      9  C   UNL     1       3.554   0.697   3.865  0.00  0.00    +0.111 C 
ATOM     10  C   UNL     1       3.104   1.540   2.708  0.00  0.00    +0.182 C 
ATOM     11  O   UNL     1       3.902   2.284   2.141  0.00  0.00    -0.290 OA
ATOM     12  C   UNL     1       1.652   1.466   2.241  0.00  0.00    +0.089 C 
ATOM     13  C   UNL     1       1.366   0.023   2.103  0.00  0.00    +0.032 C 
ATOM     14  C   UNL     1       0.597  -0.653   3.224  0.00  0.00    +0.092 C 
ATOM     15  N   UNL     1       4.133   1.256   4.965  0.00  0.00    -0.244 NA
ATOM     16  C   UNL     1       4.530   0.355   5.803  0.00  0.00    +0.072 C 
ATOM     17  C   UNL     1       4.141  -0.972   5.244  0.00  0.00    +0.002 C 
ATOM     18  C   UNL     1       4.400  -2.119   5.900  0.00  0.00    -0.013 C 
ATOM     19  C   UNL     1       5.065  -2.084   7.247  0.00  0.00    +0.055 C 
ATOM     20  C   UNL     1       5.458  -0.729   7.724  0.00  0.00    -0.021 C 
ATOM     21  C   UNL     1       5.232   0.421   7.097  0.00  0.00    +0.024 C 
ATOM     22  H   UNL     1       0.025  -3.213   2.482  0.00  0.00    -0.085 HD
ATOM     23  H   UNL     1       1.572  -3.648   2.118  0.00  0.00    -0.085 HD
ENDROOT
BRANCH  14  24
ATOM     24  C   UNL     1       0.587   0.072   4.540  0.00  0.00    +0.309 C 
ATOM     25  O   UNL     1       1.201  -0.374   5.480  0.00  0.00    -0.251 OA
BRANCH  24  26
ATOM     26  O   UNL     1      -0.105   1.215   4.671  0.00  0.00    -0.468 OA
ATOM     27  C   UNL     1      -0.070   1.851   5.951  0.00  0.00    +0.280 C 
ENDBRANCH  24  26
ENDBRANCH  14  24
TORSDOF 2
