REMARK  Name = ZINC63822236
REMARK  10 active torsions:
REMARK  status: ('A' for Active; 'I' for Inactive)
REMARK    1  A    between atoms: C_1  and  C_2
REMARK    2  A    between atoms: C_4  and  C_21
REMARK    3  A    between atoms: N_12  and  C_14
REMARK    4  A    between atoms: C_25  and  O_32
REMARK    5  A    between atoms: C_26  and  O_27
REMARK    6  A    between atoms: O_27  and  C_28
REMARK    7  A    between atoms: C_28  and  C_29
REMARK    8  A    between atoms: C_29  and  C_30
REMARK    9  A    between atoms: C_29  and  C_31
REMARK   10  A    between atoms: O_32  and  C_33
REMARK                            x       y       z     vdW  Elec       q    Type
REMARK                         _______ _______ _______ _____ _____    ______ ____
ROOT
ATOM      1  C   UNL     1      -0.417   1.570  -0.918  0.00  0.00    +0.062 C 
ATOM      2  C   UNL     1      -0.331   0.066  -0.896  0.00  0.00    +0.022 C 
ATOM      3  C   UNL     1      -1.249  -0.715  -0.400  0.00  0.00    -0.004 C 
ATOM      4  C   UNL     1      -2.496  -0.389   0.386  0.00  0.00    +0.062 C 
ATOM      5  C   UNL     1      -2.329  -1.061   1.756  0.00  0.00    +0.108 C 
ATOM      6  C   UNL     1      -1.669  -2.396   1.643  0.00  0.00    +0.216 C 
ATOM      7  O   UNL     1      -1.828  -3.155   2.576  0.00  0.00    -0.276 OA
ATOM      8  N   UNL     1      -0.925  -2.851   0.634  0.00  0.00    -0.292 N 
ATOM      9  C   UNL     1      -0.818  -2.152  -0.640  0.00  0.00    +0.210 C 
ATOM     10  N   UNL     1       0.561  -2.031  -1.119  0.00  0.00    -0.210 N 
ATOM     11  N   UNL     1       0.733  -0.664  -1.406  0.00  0.00    -0.265 N 
ATOM     12  H   UNL     1      -0.436  -3.679   0.753  0.00  0.00    +0.151 HD
ATOM     13  H   UNL     1       1.486  -0.286  -1.887  0.00  0.00    +0.170 HD
ENDROOT
BRANCH  10  14
ATOM     14  C   UNL     1       1.498  -3.051  -1.265  0.00  0.00    +0.162 A 
ATOM     15  C   UNL     1       2.778  -2.762  -1.739  0.00  0.00    +0.052 A 
ATOM     16  C   UNL     1       3.675  -3.809  -1.867  0.00  0.00    +0.077 A 
ATOM     17  C   UNL     1       3.243  -5.086  -1.515  0.00  0.00    +0.289 A 
ATOM     18  O   UNL     1       4.087  -6.144  -1.623  0.00  0.00    -0.264 OA
ATOM     19  N   UNL     1       2.009  -5.266  -1.074  0.00  0.00    -0.105 NA
ATOM     20  N   UNL     1       1.179  -4.296  -0.950  0.00  0.00    -0.129 NA
ENDBRANCH  10  14
BRANCH   4  21
ATOM     21  C   UNL     1      -2.629   1.103   0.551  0.00  0.00    +0.006 A 
ATOM     22  C   UNL     1      -1.846   1.769   1.476  0.00  0.00    +0.008 A 
ATOM     23  C   UNL     1      -1.965   3.137   1.630  0.00  0.00    +0.004 A 
ATOM     24  C   UNL     1      -2.868   3.847   0.859  0.00  0.00    +0.049 A 
ATOM     25  C   UNL     1      -3.656   3.186  -0.069  0.00  0.00    +0.162 A 
ATOM     26  C   UNL     1      -3.531   1.809  -0.229  0.00  0.00    +0.166 A 
BRANCH  25  27
ATOM     27  O   UNL     1      -4.545   3.882  -0.827  0.00  0.00    -0.491 OA
ATOM     28  C   UNL     1      -4.614   5.293  -0.614  0.00  0.00    +0.277 C 
ENDBRANCH  25  27
BRANCH  26  29
ATOM     29  O   UNL     1      -4.298   1.157  -1.143  0.00  0.00    -0.488 OA
BRANCH  29  30
ATOM     30  C   UNL     1      -5.565   0.668  -0.697  0.00  0.00    +0.232 C 
BRANCH  30  31
ATOM     31  C   UNL     1      -6.278  -0.032  -1.855  0.00  0.00    +0.020 C 
ATOM     32  C   UNL     1      -7.577  -0.663  -1.348  0.00  0.00    +0.010 C 
ATOM     33  C   UNL     1      -6.601   0.990  -2.947  0.00  0.00    +0.010 C 
ENDBRANCH  30  31
ENDBRANCH  29  30
ENDBRANCH  26  29
ENDBRANCH   4  21
TORSDOF 6
