REMARK  Name = ZINC15515072
REMARK  3 active torsions:
REMARK  status: ('A' for Active; 'I' for Inactive)
REMARK    1  A    between atoms: C_6  and  N_7
REMARK    2  A    between atoms: C_8  and  C_10
REMARK    3  A    between atoms: C_10  and  C_11
REMARK                            x       y       z     vdW  Elec       q    Type
REMARK                         _______ _______ _______ _____ _____    ______ ____
ROOT
ATOM      1  N   UNL     1       5.707  -4.116  -1.440  0.00  0.00    -0.285 N 
ATOM      2  C   UNL     1       4.931  -3.056  -1.137  0.00  0.00    +0.223 C 
ATOM      3  O   UNL     1       5.000  -2.044  -1.803  0.00  0.00    -0.275 OA
ATOM      4  H   UNL     1       5.708  -4.896  -0.863  0.00  0.00    +0.155 HD
ENDROOT
BRANCH   1  10
ATOM      5  C   UNL     1       7.739  -4.743  -2.586  0.00  0.00    +0.025 A 
ATOM      6  C   UNL     1       8.537  -4.721  -3.713  0.00  0.00    +0.029 A 
ATOM      7  C   UNL     1       8.113  -4.048  -4.848  0.00  0.00    +0.067 A 
ATOM      8  C   UNL     1       6.879  -3.393  -4.852  0.00  0.00    +0.069 A 
ATOM      9  C   UNL     1       6.079  -3.420  -3.721  0.00  0.00    +0.051 A 
ATOM     10  C   UNL     1       6.511  -4.091  -2.586  0.00  0.00    +0.035 A 
ATOM     11  N   UNL     1       6.732  -2.817  -6.112  0.00  0.00    -0.306 N 
ATOM     12  H   UNL     1       5.972  -2.295  -6.412  0.00  0.00    +0.170 HD
ATOM     13  C   UNL     1       7.825  -3.109  -6.842  0.00  0.00    +0.325 A 
ATOM     14  O   UNL     1       8.014  -2.756  -7.991  0.00  0.00    -0.247 OA
ATOM     15  N   UNL     1       8.677  -3.850  -6.108  0.00  0.00    -0.306 N 
ATOM     16  H   UNL     1       9.536  -4.188  -6.405  0.00  0.00    +0.170 HD
ENDBRANCH   1  10
BRANCH   2  17
ATOM     17  C   UNL     1       3.978  -3.127   0.028  0.00  0.00    +0.153 C 
BRANCH  17  18
ATOM     18  C   UNL     1       3.235  -1.822   0.149  0.00  0.00    +0.069 A 
ATOM     19  C   UNL     1       1.899  -1.676   0.167  0.00  0.00    +0.117 A 
ATOM     20  N   UNL     1       1.623  -0.318   0.293  0.00  0.00    -0.300 N 
ATOM     21  C   UNL     1       0.520   0.504   0.371  0.00  0.00    +0.100 A 
ATOM     22  C   UNL     1       0.660   1.824   0.492  0.00  0.00    +0.067 A 
ATOM     23  S   UNL     1       2.436   2.007   0.504  0.00  0.00    -0.058 S 
ATOM     24  C   UNL     1       2.852   0.286   0.345  0.00  0.00    +0.178 A 
ATOM     25  N   UNL     1       3.795  -0.607   0.260  0.00  0.00    -0.226 NA
ENDBRANCH  17  18
ENDBRANCH   2  17
TORSDOF 3
