REMARK  Name = ZINC41199740
REMARK  2 active torsions:
REMARK  status: ('A' for Active; 'I' for Inactive)
REMARK    1  A    between atoms: C_1  and  C_2
REMARK    2  A    between atoms: C_5  and  C_8
REMARK                            x       y       z     vdW  Elec       q    Type
REMARK                         _______ _______ _______ _____ _____    ______ ____
ROOT
ATOM      1  C   UNL     1      -0.018   1.503   0.010  0.00  0.00    +0.044 C 
ATOM      2  C   UNL     1       0.002  -0.004   0.002  0.00  0.00    -0.050 A 
ATOM      3  C   UNL     1       0.006  -0.689  -1.199  0.00  0.00    +0.004 A 
ATOM      4  C   UNL     1       0.025  -2.071  -1.206  0.00  0.00    +0.007 A 
ATOM      5  C   UNL     1       0.040  -2.768  -0.013  0.00  0.00    -0.006 A 
ATOM      6  C   UNL     1       0.037  -2.084   1.188  0.00  0.00    +0.007 A 
ATOM      7  C   UNL     1       0.023  -0.702   1.195  0.00  0.00    +0.004 A 
ENDROOT
BRANCH   5   8
ATOM      8  C   UNL     1       0.059  -4.275  -0.021  0.00  0.00    +0.225 C 
ATOM      9  C   UNL     1      -1.363  -4.847   0.183  0.00  0.00    +0.157 C 
ATOM     10  N   UNL     1      -1.106  -6.027   1.032  0.00  0.00    -0.277 N 
ATOM     11  C   UNL     1       0.144  -5.918   1.520  0.00  0.00    +0.401 C 
ATOM     12  O   UNL     1       0.663  -6.752   2.235  0.00  0.00    -0.226 OA
ATOM     13  O   UNL     1       0.758  -4.787   1.130  0.00  0.00    -0.441 OA
ATOM     14  H   UNL     1      -1.727  -6.752   1.208  0.00  0.00    +0.152 HD
ENDBRANCH   5   8
TORSDOF 1
