REMARK  Name = ZINC40586379
REMARK  4 active torsions:
REMARK  status: ('A' for Active; 'I' for Inactive)
REMARK    1  A    between atoms: C_3  and  N_8
REMARK    2  A    between atoms: C_10  and  N_22
REMARK    3  A    between atoms: C_11  and  N_15
REMARK    4  A    between atoms: N_15  and  C_16
REMARK                            x       y       z     vdW  Elec       q    Type
REMARK                         _______ _______ _______ _____ _____    ______ ____
ROOT
ATOM      1  N   UNL     1       3.558   2.003  -0.302  0.00  0.00    -0.282 N 
ATOM      2  C   UNL     1       3.603   3.387  -0.398  0.00  0.00    +0.160 A 
ATOM      3  C   UNL     1       4.823   4.057  -0.374  0.00  0.00    +0.206 A 
ATOM      4  C   UNL     1       4.815   5.444  -0.474  0.00  0.00    +0.159 A 
ATOM      5  N   UNL     1       3.648   6.077  -0.588  0.00  0.00    -0.218 NA
ATOM      6  C   UNL     1       2.514   5.407  -0.607  0.00  0.00    +0.225 A 
ATOM      7  N   UNL     1       2.481   4.093  -0.520  0.00  0.00    -0.218 NA
ATOM      8  H   UNL     1       4.372   1.501  -0.142  0.00  0.00    +0.155 HD
ENDROOT
BRANCH   1  11
ATOM      9  C   UNL     1       1.105  -0.706  -0.577  0.00  0.00    +0.020 A 
ATOM     10  C   UNL     1       2.319  -0.055  -0.445  0.00  0.00    +0.045 A 
ATOM     11  C   UNL     1       2.343   1.336  -0.434  0.00  0.00    +0.124 A 
ATOM     12  N   UNL     1       1.222   2.030  -0.547  0.00  0.00    -0.239 NA
ATOM     13  C   UNL     1       0.050   1.438  -0.674  0.00  0.00    +0.128 A 
ATOM     14  C   UNL     1      -0.048   0.059  -0.693  0.00  0.00    +0.036 A 
ATOM     15 BR   UNL     1      -1.735  -0.776  -0.876  0.00  0.00    -0.049 Br
ENDBRANCH   1  11
BRANCH   3  16
ATOM     16  N   UNL     1       6.096   3.312  -0.246  0.00  0.00    +0.063 N 
ATOM     17  O   UNL     1       6.677   2.933  -1.236  0.00  0.00    -0.126 OA
ATOM     18  O   UNL     1       6.554   3.083   0.849  0.00  0.00    -0.126 OA
ENDBRANCH   3  16
BRANCH   4  19
ATOM     19  N   UNL     1       6.004   6.159  -0.455  0.00  0.00    -0.297 N 
ATOM     20  H   UNL     1       6.853   5.688  -0.449  0.00  0.00    +0.154 HD
BRANCH  19  21
ATOM     21  C   UNL     1       5.981   7.552  -0.445  0.00  0.00    +0.035 A 
ATOM     22  C   UNL     1       4.945   8.245   0.182  0.00  0.00    +0.041 A 
ATOM     23  C   UNL     1       4.959   9.624   0.170  0.00  0.00    +0.084 A 
ATOM     24  N   UNL     1       5.934  10.286  -0.424  0.00  0.00    -0.367 N 
ATOM     25  C   UNL     1       6.931   9.667  -1.028  0.00  0.00    +0.084 A 
ATOM     26  C   UNL     1       6.994   8.289  -1.056  0.00  0.00    +0.041 A 
ATOM     27  H   UNL     1       5.917  11.256  -0.416  0.00  0.00    +0.165 HD
ENDBRANCH  19  21
ENDBRANCH   4  19
TORSDOF 4
