REMARK  Name = ZINC08985328
REMARK  6 active torsions:
REMARK  status: ('A' for Active; 'I' for Inactive)
REMARK    1  A    between atoms: C_4  and  C_7
REMARK    2  A    between atoms: C_10  and  S_13
REMARK    3  A    between atoms: N_11  and  N_12
REMARK    4  A    between atoms: S_13  and  C_14
REMARK    5  A    between atoms: C_14  and  C_15
REMARK    6  A    between atoms: N_20  and  C_21
REMARK                            x       y       z     vdW  Elec       q    Type
REMARK                         _______ _______ _______ _____ _____    ______ ____
ROOT
ATOM      1  S   UNL     1      -0.554   1.135   8.683  0.00  0.00    -0.075 S 
ENDROOT
BRANCH   1   5
ATOM      2  C   UNL     1       0.147  -1.120  11.788  0.00  0.00    +0.154 A 
ATOM      3  N   UNL     1       0.372  -1.931  10.794  0.00  0.00    -0.132 NA
ATOM      4  N   UNL     1       0.181  -1.325   9.677  0.00  0.00    -0.121 NA
ATOM      5  C   UNL     1      -0.181  -0.083   9.900  0.00  0.00    +0.209 A 
ATOM      6  N   UNL     1      -0.208   0.088  11.255  0.00  0.00    -0.228 N 
BRANCH   2  10
ATOM      7  C   UNL     1       0.848  -3.356  15.400  0.00  0.00    +0.000 C 
ATOM      8  C   UNL     1      -0.586  -2.922  15.086  0.00  0.00    +0.001 C 
ATOM      9  C   UNL     1      -0.702  -2.587  13.598  0.00  0.00    +0.011 C 
ATOM     10  C   UNL     1       0.262  -1.450  13.254  0.00  0.00    +0.059 C 
ATOM     11  C   UNL     1       1.695  -1.884  13.568  0.00  0.00    +0.011 C 
ATOM     12  C   UNL     1       1.812  -2.219  15.056  0.00  0.00    +0.001 C 
ENDBRANCH   2  10
BRANCH   6  13
ATOM     13  N   UNL     1      -0.527   1.229  11.936  0.00  0.00    -0.295 N 
ATOM     14  H   UNL     1      -1.516   1.268  12.131  0.00  0.00    +0.163 HD
ATOM     15  H   UNL     1       0.013   1.306  12.784  0.00  0.00    +0.163 HD
ENDBRANCH   6  13
ENDBRANCH   1   5
BRANCH   1  16
ATOM     16  C   UNL     1      -0.289   0.166   7.177  0.00  0.00    +0.173 C 
BRANCH  16  17
ATOM     17  C   UNL     1      -0.557   1.028   5.971  0.00  0.00    +0.231 C 
ATOM     18  O   UNL     1      -0.894   2.184   6.115  0.00  0.00    -0.274 OA
ATOM     19  N   UNL     1      -0.423   0.515   4.732  0.00  0.00    -0.239 N 
ATOM     20  C   UNL     1      -0.663   1.286   3.653  0.00  0.00    +0.306 C 
ATOM     21  O   UNL     1      -1.000   2.444   3.797  0.00  0.00    -0.252 OA
ATOM     22  N   UNL     1      -0.528   0.772   2.414  0.00  0.00    -0.296 N 
ATOM     23  H   UNL     1      -0.153  -0.410   4.617  0.00  0.00    +0.159 HD
ATOM     24  H   UNL     1      -0.258  -0.152   2.299  0.00  0.00    +0.151 HD
BRANCH  22  25
ATOM     25  C   UNL     1      -0.789   1.611   1.242  0.00  0.00    +0.074 C 
ATOM     26  C   UNL     1      -0.013   1.086   0.008  0.00  0.00    +0.022 C 
ATOM     27  C   UNL     1      -0.809   1.622  -1.200  0.00  0.00    +0.002 C 
ATOM     28  C   UNL     1      -2.243   1.875  -0.703  0.00  0.00    +0.002 C 
ATOM     29  C   UNL     1      -2.268   1.485   0.789  0.00  0.00    +0.022 C 
ENDBRANCH  22  25
ENDBRANCH  16  17
ENDBRANCH   1  16
TORSDOF 6
