REMARK  Name = ZINC13089176
REMARK  8 active torsions:
REMARK  status: ('A' for Active; 'I' for Inactive)
REMARK    1  A    between atoms: C_1  and  C_2
REMARK    2  A    between atoms: C_2  and  C_9
REMARK    3  A    between atoms: C_9  and  C_10
REMARK    4  A    between atoms: C_10  and  C_11
REMARK    5  A    between atoms: C_14  and  O_17
REMARK    6  A    between atoms: O_17  and  S_18
REMARK    7  A    between atoms: S_18  and  C_21
REMARK    8  A    between atoms: C_25  and  C_27
REMARK                            x       y       z     vdW  Elec       q    Type
REMARK                         _______ _______ _______ _____ _____    ______ ____
ROOT
ATOM      1  C   UNL     1      -0.047   1.107  -2.471  0.00  0.00    -0.047 A 
ATOM      2  C   UNL     1       0.950   1.874  -3.044  0.00  0.00    +0.007 A 
ATOM      3  C   UNL     1       1.602   1.428  -4.177  0.00  0.00    +0.049 A 
ATOM      4  C   UNL     1       1.248   0.214  -4.747  0.00  0.00    +0.157 A 
ATOM      5  C   UNL     1       0.242  -0.551  -4.175  0.00  0.00    +0.049 A 
ATOM      6  C   UNL     1      -0.403  -0.103  -3.038  0.00  0.00    +0.007 A 
ENDROOT
BRANCH   1   7
ATOM      7  C   UNL     1      -0.753   1.593  -1.232  0.00  0.00    +0.038 C 
BRANCH   7   8
ATOM      8  C   UNL     1      -0.013   1.086   0.008  0.00  0.00    +0.039 C 
BRANCH   8  10
ATOM      9  C   UNL     1      -2.174   1.077   1.294  0.00  0.00    +0.041 C 
ATOM     10  C   UNL     1      -0.729   1.579   1.267  0.00  0.00    +0.110 C 
ATOM     11  C   UNL     1      -0.688   3.092   1.345  0.00  0.00    +0.244 C 
ATOM     12  O   UNL     1      -1.163   3.880   0.554  0.00  0.00    -0.273 OA
ATOM     13  N   UNL     1      -0.011   3.378   2.479  0.00  0.00    -0.238 N 
ATOM     14  C   UNL     1       0.372   2.267   3.118  0.00  0.00    +0.307 C 
ATOM     15  O   UNL     1       0.994   2.269   4.163  0.00  0.00    -0.252 OA
ATOM     16  N   UNL     1      -0.007   1.147   2.476  0.00  0.00    -0.285 N 
ATOM     17  H   UNL     1       0.173   4.277   2.791  0.00  0.00    +0.159 HD
ATOM     18  H   UNL     1       0.161   0.234   2.756  0.00  0.00    +0.151 HD
ENDBRANCH   8  10
ENDBRANCH   7   8
ENDBRANCH   1   7
BRANCH   4  19
ATOM     19  O   UNL     1       1.884  -0.224  -5.865  0.00  0.00    -0.342 OA
BRANCH  19  20
ATOM     20  S   UNL     1       1.230   0.223  -7.165  0.00  0.00    +0.151 S 
ATOM     21  O   UNL     1       1.884  -0.482  -8.212  0.00  0.00    -0.131 OA
ATOM     22  O   UNL     1      -0.174   0.151  -6.960  0.00  0.00    -0.131 OA
BRANCH  20  23
ATOM     23  C   UNL     1       1.621   1.927  -7.385  0.00  0.00    +0.129 A 
ATOM     24  C   UNL     1       0.779   2.900  -6.873  0.00  0.00    +0.032 A 
ATOM     25  C   UNL     1       1.079   4.239  -7.037  0.00  0.00    +0.023 A 
ATOM     26  C   UNL     1       2.218   4.616  -7.723  0.00  0.00    +0.055 A 
ATOM     27  C   UNL     1       3.068   3.639  -8.246  0.00  0.00    +0.083 A 
ATOM     28  C   UNL     1       2.760   2.288  -8.072  0.00  0.00    +0.047 A 
ATOM     29 CL   UNL     1       2.590   6.299  -7.932  0.00  0.00    -0.083 Cl
BRANCH  27  30
ATOM     30  C   UNL     1       4.287   4.034  -8.980  0.00  0.00    +0.388 C 
ATOM     31  O   UNL     1       4.553   5.210  -9.130  0.00  0.00    -0.241 OA
ATOM     32  O   UNL     1       5.106   3.089  -9.483  0.00  0.00    -0.241 OA
ENDBRANCH  27  30
ENDBRANCH  20  23
ENDBRANCH  19  20
ENDBRANCH   4  19
TORSDOF 7
