REMARK  Name = ZINC39662261
REMARK  5 active torsions:
REMARK  status: ('A' for Active; 'I' for Inactive)
REMARK    1  A    between atoms: C_4  and  C_7
REMARK    2  A    between atoms: C_7  and  C_9
REMARK    3  A    between atoms: C_7  and  N_11
REMARK    4  A    between atoms: C_12  and  C_14
REMARK    5  A    between atoms: C_25  and  C_27
REMARK                            x       y       z     vdW  Elec       q    Type
REMARK                         _______ _______ _______ _____ _____    ______ ____
ROOT
ATOM      1  C   UNL     1       4.514  -3.765   2.439  0.00  0.00    +0.100 C 
ATOM      2  C   UNL     1       3.922  -4.940   1.628  0.00  0.00    +0.121 C 
ATOM      3  N   UNL     1       5.102  -5.639   1.067  0.00  0.00    -0.296 N 
ATOM      4  C   UNL     1       6.104  -5.607   2.159  0.00  0.00    +0.115 C 
ATOM      5  C   UNL     1       5.945  -4.209   2.789  0.00  0.00    -0.004 C 
ATOM      6  C   UNL     1       6.117  -4.289   4.303  0.00  0.00    -0.010 C 
ATOM      7  C   UNL     1       7.564  -4.674   4.628  0.00  0.00    -0.082 C 
ATOM      8  N   UNL     1       8.477  -3.674   4.063  0.00  0.00    +0.379 N 
ATOM      9  C   UNL     1       8.371  -3.669   2.599  0.00  0.00    -0.082 C 
ATOM     10  C   UNL     1       6.960  -3.241   2.188  0.00  0.00    -0.010 C 
ATOM     11  C   UNL     1       5.234  -6.183  -0.159  0.00  0.00    +0.247 C 
ATOM     12  O   UNL     1       6.240  -6.805  -0.443  0.00  0.00    -0.270 OA
ATOM     13  H   UNL     1       8.236  -2.761   4.419  0.00  0.00    -0.086 HD
ATOM     14  H   UNL     1       9.425  -3.897   4.329  0.00  0.00    -0.086 HD
ENDROOT
BRANCH  11  15
ATOM     15  C   UNL     1       4.157  -6.024  -1.158  0.00  0.00    +0.045 A 
ATOM     16  C   UNL     1       2.834  -6.327  -0.818  0.00  0.00    +0.014 A 
ATOM     17  C   UNL     1       1.827  -6.179  -1.747  0.00  0.00    +0.001 A 
ATOM     18  C   UNL     1       2.113  -5.730  -3.027  0.00  0.00    +0.012 A 
ATOM     19  C   UNL     1       3.421  -5.424  -3.385  0.00  0.00    +0.031 A 
ATOM     20  C   UNL     1       4.456  -5.564  -2.447  0.00  0.00    +0.006 A 
ATOM     21  C   UNL     1       5.735  -5.166  -3.085  0.00  0.00    -0.006 A 
ATOM     22  C   UNL     1       7.037  -5.125  -2.605  0.00  0.00    +0.009 A 
ATOM     23  C   UNL     1       8.068  -4.704  -3.430  0.00  0.00    +0.001 A 
ATOM     24  C   UNL     1       7.811  -4.322  -4.733  0.00  0.00    +0.001 A 
ATOM     25  C   UNL     1       6.516  -4.358  -5.227  0.00  0.00    +0.012 A 
ATOM     26  C   UNL     1       5.474  -4.778  -4.411  0.00  0.00    +0.030 A 
ATOM     27  C   UNL     1       4.019  -4.934  -4.650  0.00  0.00    +0.194 C 
ATOM     28  O   UNL     1       3.428  -4.693  -5.682  0.00  0.00    -0.287 OA
ENDBRANCH  11  15
BRANCH   1  30
ATOM     29  N   UNL     1       4.434  -1.305   2.194  0.00  0.00    -0.296 N 
ATOM     30  C   UNL     1       4.543  -2.512   1.603  0.00  0.00    +0.219 C 
ATOM     31  O   UNL     1       4.664  -2.589   0.399  0.00  0.00    -0.275 OA
ATOM     32  H   UNL     1       4.337  -1.244   3.157  0.00  0.00    +0.150 HD
BRANCH  29  33
ATOM     33  C   UNL     1       4.463  -0.087   1.381  0.00  0.00    +0.207 C 
BRANCH  33  37
ATOM     34  C   UNL     1       5.800   3.191   3.773  0.00  0.00    +0.000 A 
ATOM     35  C   UNL     1       6.229   3.069   2.464  0.00  0.00    +0.000 A 
ATOM     36  C   UNL     1       5.796   2.009   1.690  0.00  0.00    +0.006 A 
ATOM     37  C   UNL     1       4.935   1.069   2.225  0.00  0.00    -0.013 A 
ATOM     38  C   UNL     1       4.507   1.190   3.534  0.00  0.00    +0.006 A 
ATOM     39  C   UNL     1       4.938   2.251   4.307  0.00  0.00    +0.000 A 
ENDBRANCH  33  37
BRANCH  33  40
ATOM     40  C   UNL     1       3.110   0.196   0.875  0.00  0.00    +0.090 C 
ATOM     41  N   UNL     1       2.066   0.415   0.483  0.00  0.00    -0.194 NA
ENDBRANCH  33  40
ENDBRANCH  29  33
ENDBRANCH   1  30
TORSDOF 5
