REMARK  Name = ZINC15859737
REMARK  8 active torsions:
REMARK  status: ('A' for Active; 'I' for Inactive)
REMARK    1  A    between atoms: C_1  and  C_2
REMARK    2  A    between atoms: C_3  and  C_20
REMARK    3  A    between atoms: C_8  and  C_10
REMARK    4  A    between atoms: C_10  and  S_11
REMARK    5  A    between atoms: S_11  and  C_12
REMARK    6  A    between atoms: C_13  and  C_19
REMARK    7  A    between atoms: C_16  and  O_18
REMARK    8  A    between atoms: C_20  and  C_22
REMARK                            x       y       z     vdW  Elec       q    Type
REMARK                         _______ _______ _______ _____ _____    ______ ____
ROOT
ATOM      1  C   UNL     1      -3.714   3.637   4.947  0.00  0.00    +0.067 C 
ATOM      2  C   UNL     1      -2.475   2.785   4.854  0.00  0.00    +0.058 A 
ATOM      3  C   UNL     1      -1.820   2.336   5.999  0.00  0.00    +0.078 A 
ATOM      4  S   UNL     1      -0.477   1.411   5.267  0.00  0.00    -0.049 S 
ATOM      5  C   UNL     1      -0.889   1.692   3.603  0.00  0.00    +0.165 A 
ATOM      6  N   UNL     1      -1.975   2.445   3.697  0.00  0.00    -0.229 NA
ATOM      7  N   UNL     1      -0.242   1.246   2.466  0.00  0.00    -0.264 N 
ATOM      8  C   UNL     1      -0.718   1.572   1.248  0.00  0.00    +0.229 C 
ATOM      9  O   UNL     1      -1.714   2.256   1.150  0.00  0.00    -0.275 OA
ATOM     10  H   UNL     1       0.555   0.699   2.544  0.00  0.00    +0.157 HD
ENDROOT
BRANCH   3  11
ATOM     11  C   UNL     1      -2.131   2.551   7.356  0.00  0.00    +0.168 C 
ATOM     12  O   UNL     1      -3.099   3.219   7.660  0.00  0.00    -0.292 OA
ATOM     13  C   UNL     1      -1.260   1.954   8.432  0.00  0.00    +0.092 C 
ENDBRANCH   3  11
BRANCH   8  14
ATOM     14  C   UNL     1      -0.013   1.086   0.008  0.00  0.00    +0.172 C 
BRANCH  14  15
ATOM     15  S   UNL     1      -0.888   1.685  -1.458  0.00  0.00    -0.095 S 
BRANCH  15  16
ATOM     16  C   UNL     1       0.122   0.990  -2.724  0.00  0.00    +0.125 A 
ATOM     17  C   UNL     1      -0.184   1.192  -4.074  0.00  0.00    +0.092 A 
ATOM     18  N   UNL     1       0.596   0.661  -4.995  0.00  0.00    -0.147 NA
ATOM     19  N   UNL     1       1.621  -0.042  -4.659  0.00  0.00    -0.092 NA
ATOM     20  C   UNL     1       1.930  -0.253  -3.388  0.00  0.00    +0.335 A 
ATOM     21  N   UNL     1       1.190   0.257  -2.415  0.00  0.00    -0.186 NA
ATOM     22  C   UNL     1      -1.387   2.009  -4.470  0.00  0.00    +0.070 C 
BRANCH  20  23
ATOM     23  O   UNL     1       3.018  -1.000  -3.080  0.00  0.00    -0.477 OA
ATOM     24  H   UNL     1       2.833  -1.944  -2.990  0.00  0.00    +0.295 HD
ENDBRANCH  20  23
ENDBRANCH  15  16
ENDBRANCH  14  15
ENDBRANCH   8  14
TORSDOF 5
