REMARK  Name = ZINC38627286
REMARK  10 active torsions:
REMARK  status: ('A' for Active; 'I' for Inactive)
REMARK    1  A    between atoms: C_1  and  C_2
REMARK    2  A    between atoms: C_2  and  O_3
REMARK    3  A    between atoms: O_3  and  C_4
REMARK    4  A    between atoms: C_8  and  C_13
REMARK    5  A    between atoms: C_9  and  O_10
REMARK    6  A    between atoms: O_10  and  C_11
REMARK    7  A    between atoms: C_11  and  C_12
REMARK    8  A    between atoms: C_15  and  C_26
REMARK    9  A    between atoms: C_16  and  N_25
REMARK   10  A    between atoms: C_21  and  C_24
REMARK                            x       y       z     vdW  Elec       q    Type
REMARK                         _______ _______ _______ _____ _____    ______ ____
ROOT
ATOM      1  C   UNL     1       2.274  -4.308   3.755  0.00  0.00    +0.101 C 
ATOM      2  C   UNL     1       3.429  -5.186   3.308  0.00  0.00    +0.098 C 
ATOM      3  C   UNL     1       3.572  -6.452   3.756  0.00  0.00    +0.195 C 
ATOM      4  O   UNL     1       2.751  -7.104   4.598  0.00  0.00    -0.448 OA
ATOM      5  C   UNL     1       1.902  -6.312   5.433  0.00  0.00    +0.343 C 
ATOM      6  C   UNL     1       1.349  -5.215   4.519  0.00  0.00    +0.030 C 
ATOM      7  C   UNL     1       0.046  -5.327   4.601  0.00  0.00    +0.066 C 
ATOM      8  N   UNL     1      -0.287  -6.404   5.359  0.00  0.00    -0.155 NA
ATOM      9  N   UNL     1       0.689  -7.026   5.841  0.00  0.00    -0.138 NA
ATOM     10  C   UNL     1      -0.941  -4.395   3.949  0.00  0.00    +0.067 C 
ENDROOT
BRANCH   1  15
ATOM     11  C   UNL     1       0.802  -1.825   1.306  0.00  0.00    +0.162 A 
ATOM     12  C   UNL     1       0.261  -2.673   0.353  0.00  0.00    +0.049 A 
ATOM     13  C   UNL     1       0.372  -4.043   0.502  0.00  0.00    +0.004 A 
ATOM     14  C   UNL     1       1.024  -4.570   1.602  0.00  0.00    +0.008 A 
ATOM     15  C   UNL     1       1.566  -3.730   2.557  0.00  0.00    +0.010 A 
ATOM     16  C   UNL     1       1.462  -2.356   2.410  0.00  0.00    +0.166 A 
BRANCH  11  17
ATOM     17  O   UNL     1       0.693  -0.477   1.160  0.00  0.00    -0.489 OA
BRANCH  17  19
ATOM     18  C   UNL     1      -0.019   1.526   0.010  0.00  0.00    +0.048 C 
ATOM     19  C   UNL     1       0.002  -0.004   0.002  0.00  0.00    +0.226 C 
ENDBRANCH  17  19
ENDBRANCH  11  17
BRANCH  16  20
ATOM     20  O   UNL     1       2.000  -1.528   3.345  0.00  0.00    -0.488 OA
BRANCH  20  21
ATOM     21  C   UNL     1       1.161  -1.151   4.438  0.00  0.00    +0.226 C 
ATOM     22  C   UNL     1       1.933  -0.225   5.379  0.00  0.00    +0.048 C 
ENDBRANCH  20  21
ENDBRANCH  16  20
ENDBRANCH   1  15
BRANCH   3  23
ATOM     23  N   UNL     1       4.668  -7.144   3.305  0.00  0.00    -0.329 N 
ATOM     24  H   UNL     1       5.292  -6.720   2.695  0.00  0.00    +0.145 HD
ATOM     25  H   UNL     1       4.819  -8.057   3.596  0.00  0.00    +0.145 HD
ENDBRANCH   3  23
BRANCH   2  26
ATOM     26  C   UNL     1       4.391  -4.659   2.388  0.00  0.00    +0.101 C 
ATOM     27  N   UNL     1       5.154  -4.241   1.657  0.00  0.00    -0.191 NA
ENDBRANCH   2  26
TORSDOF 7
