REMARK  Name = ZINC36207116
REMARK  15 active torsions:
REMARK  status: ('A' for Active; 'I' for Inactive)
REMARK    1  A    between atoms: C_1  and  C_2
REMARK    2  A    between atoms: C_2  and  C_3
REMARK    3  A    between atoms: C_2  and  C_4
REMARK    4  A    between atoms: C_4  and  N_5
REMARK    5  A    between atoms: N_5  and  C_6
REMARK    6  A    between atoms: N_5  and  C_26
REMARK    7  A    between atoms: C_6  and  C_7
REMARK    8  A    between atoms: C_13  and  C_18
REMARK    9  A    between atoms: C_23  and  O_24
REMARK   10  A    between atoms: O_24  and  C_25
REMARK   11  A    between atoms: C_26  and  C_27
REMARK   12  A    between atoms: C_27  and  C_29
REMARK   13  A    between atoms: C_27  and  O_37
REMARK   14  A    between atoms: C_29  and  O_30
REMARK   15  A    between atoms: O_30  and  C_31
REMARK                            x       y       z     vdW  Elec       q    Type
REMARK                         _______ _______ _______ _____ _____    ______ ____
ROOT
ATOM      1  C   UNL     1      -2.253  -2.671  -0.587  0.00  0.00    -0.003 C 
ENDROOT
BRANCH   1   2
ATOM      2  C   UNL     1      -2.655  -1.656  -1.626  0.00  0.00    +0.094 A 
ATOM      3  N   UNL     1      -3.862  -1.770  -2.238  0.00  0.00    -0.312 N 
ATOM      4  H   UNL     1      -4.449  -2.504  -1.998  0.00  0.00    +0.170 HD
ATOM      5  C   UNL     1      -4.259  -0.885  -3.171  0.00  0.00    +0.260 A 
ATOM      6  O   UNL     1      -5.346  -1.001  -3.711  0.00  0.00    -0.267 OA
ATOM      7  C   UNL     1      -3.386   0.195  -3.519  0.00  0.00    +0.080 A 
ATOM      8  C   UNL     1      -3.587   1.268  -4.485  0.00  0.00    +0.007 A 
ATOM      9  C   UNL     1      -2.608   2.191  -4.646  0.00  0.00    +0.056 A 
ATOM     10  S   UNL     1      -1.351   1.664  -3.497  0.00  0.00    -0.076 S 
ATOM     11  C   UNL     1      -2.161   0.231  -2.834  0.00  0.00    +0.116 A 
ATOM     12  N   UNL     1      -1.839  -0.679  -1.918  0.00  0.00    -0.229 NA
BRANCH   8  13
ATOM     13  C   UNL     1      -4.837   1.348  -5.277  0.00  0.00    +0.025 A 
ATOM     14  C   UNL     1      -4.802   1.183  -6.660  0.00  0.00    +0.012 A 
ATOM     15  C   UNL     1      -5.969   1.258  -7.392  0.00  0.00    +0.001 A 
ATOM     16  C   UNL     1      -7.175   1.497  -6.758  0.00  0.00    +0.004 A 
ATOM     17  C   UNL     1      -7.222   1.662  -5.387  0.00  0.00    +0.046 A 
ATOM     18  C   UNL     1      -6.059   1.584  -4.638  0.00  0.00    +0.128 A 
BRANCH  18  19
ATOM     19  O   UNL     1      -6.104   1.741  -3.289  0.00  0.00    -0.495 OA
ATOM     20  C   UNL     1      -7.387   1.979  -2.707  0.00  0.00    +0.277 C 
ENDBRANCH  18  19
ENDBRANCH   8  13
ENDBRANCH   1   2
BRANCH   1  21
ATOM     21  N   UNL     1      -1.010  -2.237   0.066  0.00  0.00    +0.386 N 
ATOM     22  H   UNL     1      -0.449  -1.718  -0.592  0.00  0.00    -0.081 HD
BRANCH  21  23
ATOM     23  C   UNL     1      -1.334  -1.382   1.216  0.00  0.00    -0.075 C 
BRANCH  23  25
ATOM     24  C   UNL     1      -2.491   0.721   1.907  0.00  0.00    +0.005 C 
ATOM     25  C   UNL     1      -1.933  -0.065   0.719  0.00  0.00    -0.034 C 
ATOM     26  C   UNL     1      -0.846   0.760   0.027  0.00  0.00    +0.005 C 
ENDBRANCH  23  25
ENDBRANCH  21  23
BRANCH  21  27
ATOM     27  C   UNL     1      -0.262  -3.415   0.526  0.00  0.00    -0.043 C 
BRANCH  27  28
ATOM     28  C   UNL     1       1.103  -2.976   1.058  0.00  0.00    +0.135 C 
BRANCH  28  29
ATOM     29  O   UNL     1       1.850  -2.363   0.005  0.00  0.00    -0.390 OA
ATOM     30  H   UNL     1       2.012  -2.943  -0.752  0.00  0.00    +0.210 HD
ENDBRANCH  28  29
BRANCH  28  31
ATOM     31  C   UNL     1       1.864  -4.196   1.579  0.00  0.00    +0.258 C 
BRANCH  31  32
ATOM     32  O   UNL     1       3.089  -3.773   2.181  0.00  0.00    -0.489 OA
BRANCH  32  33
ATOM     33  C   UNL     1       3.890  -4.742   2.699  0.00  0.00    +0.121 A 
ATOM     34  C   UNL     1       3.507  -6.073   2.623  0.00  0.00    +0.045 A 
ATOM     35  C   UNL     1       4.323  -7.056   3.149  0.00  0.00    +0.004 A 
ATOM     36  C   UNL     1       5.520  -6.714   3.751  0.00  0.00    +0.000 A 
ATOM     37  C   UNL     1       5.903  -5.387   3.828  0.00  0.00    +0.004 A 
ATOM     38  C   UNL     1       5.094  -4.401   3.298  0.00  0.00    +0.045 A 
ENDBRANCH  32  33
ENDBRANCH  31  32
ENDBRANCH  28  31
ENDBRANCH  27  28
ENDBRANCH  21  27
ENDBRANCH   1  21
TORSDOF 12
