REMARK  Name = ZINC34127027
REMARK  4 active torsions:
REMARK  status: ('A' for Active; 'I' for Inactive)
REMARK    1  A    between atoms: C_5  and  C_6
REMARK    2  A    between atoms: C_6  and  N_7
REMARK    3  A    between atoms: C_14  and  C_16
REMARK    4  A    between atoms: N_18  and  O_19
REMARK                            x       y       z     vdW  Elec       q    Type
REMARK                         _______ _______ _______ _____ _____    ______ ____
ROOT
ATOM      1  N   UNL     1      -1.544  -1.274  -1.371  0.00  0.00    -0.341 N 
ATOM      2  C   UNL     1      -2.532  -0.635  -2.067  0.00  0.00    +0.087 A 
ATOM      3  C   UNL     1      -2.633  -1.155  -3.303  0.00  0.00    +0.028 A 
ATOM      4  C   UNL     1      -1.629  -2.211  -3.402  0.00  0.00    +0.004 A 
ATOM      5  C   UNL     1      -0.966  -2.239  -2.157  0.00  0.00    +0.068 A 
ATOM      6  C   UNL     1       0.062  -3.159  -1.966  0.00  0.00    +0.138 A 
ATOM      7  N   UNL     1       0.409  -3.983  -2.928  0.00  0.00    -0.248 NA
ATOM      8  C   UNL     1      -0.190  -3.985  -4.118  0.00  0.00    +0.128 A 
ATOM      9  C   UNL     1      -1.232  -3.108  -4.395  0.00  0.00    +0.043 A 
ENDROOT
BRANCH   8  10
ATOM     10  C   UNL     1       0.254  -4.941  -5.156  0.00  0.00    +0.285 C 
ATOM     11  O   UNL     1      -0.286  -4.951  -6.244  0.00  0.00    -0.266 OA
ATOM     12  N   UNL     1       1.258  -5.802  -4.894  0.00  0.00    -0.192 N 
ATOM     13  H   UNL     1       1.689  -5.794  -4.025  0.00  0.00    +0.183 HD
BRANCH  12  14
ATOM     14  O   UNL     1       1.683  -6.717  -5.888  0.00  0.00    -0.295 OA
ATOM     15  H   UNL     1       2.407  -7.293  -5.608  0.00  0.00    +0.241 HD
ENDBRANCH  12  14
ENDBRANCH   8  10
BRANCH   1  16
ATOM     16  C   UNL     1      -1.156  -0.969   0.008  0.00  0.00    +0.164 C 
BRANCH  16  21
ATOM     17  C   UNL     1      -0.016   1.351   0.009  0.00  0.00    +0.014 A 
ATOM     18  C   UNL     1       1.184   2.038   0.002  0.00  0.00    +0.028 A 
ATOM     19  C   UNL     1       2.343   1.335  -0.013  0.00  0.00    +0.078 A 
ATOM     20  S   UNL     1       1.753  -0.350  -0.017  0.00  0.00    -0.080 S 
ATOM     21  C   UNL     1       0.002  -0.004   0.002  0.00  0.00    +0.011 A 
ATOM     22 CL   UNL     1       3.977   1.921  -0.026  0.00  0.00    -0.076 Cl
ENDBRANCH  16  21
ENDBRANCH   1  16
TORSDOF 4
