REMARK  Name = ZINC40217487
REMARK  3 active torsions:
REMARK  status: ('A' for Active; 'I' for Inactive)
REMARK    1  A    between atoms: C_6  and  S_7
REMARK    2  A    between atoms: S_7  and  N_10
REMARK    3  A    between atoms: C_14  and  C_16
REMARK                            x       y       z     vdW  Elec       q    Type
REMARK                         _______ _______ _______ _____ _____    ______ ____
ROOT
ATOM      1  C   UNL     1      -0.017   1.378   0.010  0.00  0.00    +0.030 A 
ATOM      2  C   UNL     1       1.165   2.088   0.002  0.00  0.00    +0.026 A 
ATOM      3  C   UNL     1       2.389   1.418  -0.014  0.00  0.00    +0.040 A 
ATOM      4  C   UNL     1       2.397   0.032  -0.021  0.00  0.00    -0.023 A 
ATOM      5  C   UNL     1       1.211  -0.675  -0.013  0.00  0.00    +0.034 A 
ATOM      6  C   UNL     1       0.002  -0.004   0.002  0.00  0.00    +0.105 A 
ATOM      7  C   UNL     1       3.833  -0.441  -0.037  0.00  0.00    +0.056 C 
ATOM      8  C   UNL     1       4.667   0.851  -0.038  0.00  0.00    +0.118 C 
ATOM      9  N   UNL     1       3.686   1.940  -0.023  0.00  0.00    -0.269 N 
ATOM     10  C   UNL     1       3.990   3.253  -0.019  0.00  0.00    +0.240 C 
ATOM     11  O   UNL     1       3.104   4.081  -0.005  0.00  0.00    -0.273 OA
ENDROOT
BRANCH  10  12
ATOM     12  C   UNL     1       5.432   3.693  -0.030  0.00  0.00    +0.160 C 
ATOM     13  C   UNL     1       6.021   3.630   1.396  0.00  0.00    +0.041 C 
ATOM     14  C   UNL     1       5.791   5.074   1.897  0.00  0.00    +0.098 C 
ATOM     15  C   UNL     1       5.726   5.900   0.631  0.00  0.00    +0.214 C 
ATOM     16  O   UNL     1       5.836   7.107   0.583  0.00  0.00    -0.276 OA
ATOM     17  N   UNL     1       5.530   5.101  -0.434  0.00  0.00    -0.304 N 
ATOM     18  H   UNL     1       5.462   5.413  -1.350  0.00  0.00    +0.149 HD
ENDBRANCH  10  12
BRANCH   6  19
ATOM     19  S   UNL     1      -1.510  -0.908   0.012  0.00  0.00    +0.056 S 
ATOM     20  O   UNL     1      -1.215  -2.188   0.553  0.00  0.00    -0.153 OA
ATOM     21  O   UNL     1      -2.492  -0.050   0.578  0.00  0.00    -0.153 OA
BRANCH  19  22
ATOM     22  N   UNL     1      -1.946  -1.151  -1.567  0.00  0.00    -0.204 NA
ATOM     23  H   UNL     1      -2.453  -1.940  -1.814  0.00  0.00    +0.144 HD
ATOM     24  H   UNL     1      -1.695  -0.504  -2.244  0.00  0.00    +0.144 HD
ENDBRANCH  19  22
ENDBRANCH   6  19
TORSDOF 3
