REMARK  Name = ZINC08791225
REMARK  5 active torsions:
REMARK  status: ('A' for Active; 'I' for Inactive)
REMARK    1  A    between atoms: C_1  and  C_2
REMARK    2  A    between atoms: C_8  and  C_10
REMARK    3  A    between atoms: C_10  and  S_11
REMARK    4  A    between atoms: S_11  and  C_12
REMARK    5  A    between atoms: C_18  and  C_20
REMARK                            x       y       z     vdW  Elec       q    Type
REMARK                         _______ _______ _______ _____ _____    ______ ____
ROOT
ATOM      1  C   UNL     1      -0.672  -6.952  -0.030  0.00  0.00    +0.160 A 
ATOM      2  N   UNL     1       0.518  -7.534  -0.044  0.00  0.00    -0.133 NA
ATOM      3  N   UNL     1       0.647  -8.789  -0.051  0.00  0.00    -0.125 NA
ATOM      4  C   UNL     1      -0.398  -9.601  -0.046  0.00  0.00    +0.189 A 
ATOM      5  S   UNL     1      -1.726  -8.400  -0.021  0.00  0.00    -0.024 S 
ATOM      6  N   UNL     1      -0.450 -10.992  -0.052  0.00  0.00    -0.259 N 
ATOM      7  C   UNL     1       0.692 -11.708  -0.066  0.00  0.00    +0.251 C 
ATOM      8  O   UNL     1       1.766 -11.140  -0.073  0.00  0.00    -0.270 OA
ATOM      9  H   UNL     1      -1.307 -11.445  -0.047  0.00  0.00    +0.157 HD
ENDROOT
BRANCH   7  10
ATOM     10  C   UNL     1       0.636 -13.184  -0.072  0.00  0.00    +0.055 A 
ATOM     11  C   UNL     1      -0.597 -13.840  -0.065  0.00  0.00    +0.016 A 
ATOM     12  C   UNL     1      -0.642 -15.218  -0.071  0.00  0.00    +0.021 A 
ATOM     13  C   UNL     1       0.533 -15.953  -0.085  0.00  0.00    +0.042 A 
ATOM     14  C   UNL     1       1.759 -15.310  -0.092  0.00  0.00    +0.040 A 
ATOM     15  C   UNL     1       1.818 -13.930  -0.092  0.00  0.00    +0.054 A 
ATOM     16 CL   UNL     1       3.356 -13.125  -0.110  0.00  0.00    -0.083 Cl
ATOM     17 CL   UNL     1       0.467 -17.687  -0.092  0.00  0.00    -0.083 Cl
ENDBRANCH   7  10
BRANCH   1  18
ATOM     18  S   UNL     1      -1.097  -5.242  -0.017  0.00  0.00    -0.088 S 
BRANCH  18  19
ATOM     19  C   UNL     1       0.506  -4.392  -0.027  0.00  0.00    +0.172 C 
BRANCH  19  27
ATOM     20  C   UNL     1       1.333   3.436   0.007  0.00  0.00    +0.075 C 
ATOM     21  C   UNL     1       1.110   1.945   0.002  0.00  0.00    +0.101 A 
ATOM     22  N   UNL     1      -0.015   1.258   0.009  0.00  0.00    -0.145 NA
ATOM     23  N   UNL     1       0.002  -0.004   0.002  0.00  0.00    -0.126 NA
ATOM     24  C   UNL     1       1.134  -0.687  -0.013  0.00  0.00    +0.188 A 
ATOM     25  S   UNL     1       2.296   0.607  -0.017  0.00  0.00    -0.036 S 
ATOM     26  N   UNL     1       1.339  -2.063  -0.022  0.00  0.00    -0.263 N 
ATOM     27  C   UNL     1       0.284  -2.901  -0.017  0.00  0.00    +0.229 C 
ATOM     28  O   UNL     1      -0.845  -2.456  -0.004  0.00  0.00    -0.275 OA
ATOM     29  H   UNL     1       2.241  -2.419  -0.032  0.00  0.00    +0.157 HD
ENDBRANCH  19  27
ENDBRANCH  18  19
ENDBRANCH   1  18
TORSDOF 4
