REMARK  Name = ZINC09237531
REMARK  5 active torsions:
REMARK  status: ('A' for Active; 'I' for Inactive)
REMARK    1  A    between atoms: C_1  and  C_2
REMARK    2  A    between atoms: C_8  and  C_26
REMARK    3  A    between atoms: C_10  and  C_13
REMARK    4  A    between atoms: N_15  and  C_16
REMARK    5  A    between atoms: C_21  and  C_22
REMARK                            x       y       z     vdW  Elec       q    Type
REMARK                         _______ _______ _______ _____ _____    ______ ____
ROOT
ATOM      1  C   UNL     1      -5.510   1.962  -3.193  0.00  0.00    +0.090 C 
ATOM      2  C   UNL     1      -5.618   1.137  -1.937  0.00  0.00    +0.148 A 
ATOM      3  N   UNL     1      -6.626   0.384  -1.591  0.00  0.00    -0.132 NA
ATOM      4  N   UNL     1      -6.387  -0.184  -0.459  0.00  0.00    -0.121 NA
ATOM      5  C   UNL     1      -5.210   0.179  -0.031  0.00  0.00    +0.209 A 
ATOM      6  N   UNL     1      -4.680   1.039  -0.950  0.00  0.00    -0.225 N 
ATOM      7  N   UNL     1      -3.477   1.665  -0.885  0.00  0.00    -0.272 N 
ATOM      8  C   UNL     1      -2.513   1.000  -0.006  0.00  0.00    +0.140 C 
ATOM      9  C   UNL     1      -3.061   0.927   1.425  0.00  0.00    +0.166 C 
ATOM     10  S   UNL     1      -4.388  -0.318   1.450  0.00  0.00    -0.069 S 
ATOM     11  H   UNL     1      -3.587   2.636  -0.632  0.00  0.00    +0.167 HD
ENDROOT
BRANCH   8  12
ATOM     12  C   UNL     1      -1.221   1.775  -0.006  0.00  0.00    -0.024 A 
ATOM     13  C   UNL     1      -0.013   1.104  -0.025  0.00  0.00    +0.007 A 
ATOM     14  C   UNL     1       1.173   1.814  -0.031  0.00  0.00    +0.020 A 
ATOM     15  C   UNL     1       1.150   3.197  -0.013  0.00  0.00    +0.041 A 
ATOM     16  C   UNL     1      -0.059   3.869   0.012  0.00  0.00    +0.020 A 
ATOM     17  C   UNL     1      -1.244   3.157   0.017  0.00  0.00    +0.007 A 
ATOM     18 CL   UNL     1       2.639   4.090  -0.019  0.00  0.00    -0.084 Cl
ENDBRANCH   8  12
BRANCH   9  19
ATOM     19  C   UNL     1      -3.610   2.271   1.831  0.00  0.00    +0.233 C 
ATOM     20  O   UNL     1      -2.886   3.085   2.364  0.00  0.00    -0.274 OA
ATOM     21  N   UNL     1      -4.904   2.567   1.601  0.00  0.00    -0.284 N 
ATOM     22  H   UNL     1      -5.502   1.889   1.249  0.00  0.00    +0.155 HD
BRANCH  21  23
ATOM     23  C   UNL     1      -5.385   3.854   1.869  0.00  0.00    +0.045 A 
ATOM     24  C   UNL     1      -4.565   4.958   1.675  0.00  0.00    +0.024 A 
ATOM     25  C   UNL     1      -5.045   6.226   1.935  0.00  0.00    +0.002 A 
ATOM     26  C   UNL     1      -6.337   6.397   2.399  0.00  0.00    +0.001 A 
ATOM     27  C   UNL     1      -7.153   5.300   2.599  0.00  0.00    +0.014 A 
ATOM     28  C   UNL     1      -6.681   4.029   2.335  0.00  0.00    +0.076 A 
BRANCH  28  29
ATOM     29  C   UNL     1      -7.572   2.833   2.552  0.00  0.00    +0.419 C 
ATOM     30  F   UNL     1      -8.819   3.260   3.021  0.00  0.00    -0.166 F 
ATOM     31  F   UNL     1      -7.738   2.149   1.343  0.00  0.00    -0.166 F 
ATOM     32  F   UNL     1      -6.987   1.980   3.494  0.00  0.00    -0.166 F 
ENDBRANCH  28  29
ENDBRANCH  21  23
ENDBRANCH   9  19
TORSDOF 4
