REMARK  Name = ZINC10014684
REMARK  10 active torsions:
REMARK  status: ('A' for Active; 'I' for Inactive)
REMARK    1  A    between atoms: C_1  and  C_2
REMARK    2  A    between atoms: C_5  and  S_13
REMARK    3  A    between atoms: N_6  and  C_7
REMARK    4  A    between atoms: S_13  and  C_14
REMARK    5  A    between atoms: C_14  and  C_15
REMARK    6  A    between atoms: C_15  and  C_17
REMARK    7  A    between atoms: C_18  and  N_33
REMARK    8  A    between atoms: N_19  and  C_26
REMARK    9  A    between atoms: N_22  and  C_25
REMARK   10  A    between atoms: C_26  and  C_27
REMARK                            x       y       z     vdW  Elec       q    Type
REMARK                         _______ _______ _______ _____ _____    ______ ____
ROOT
ATOM      1  C   UNL     1      -0.904   6.561   0.059  0.00  0.00    +0.120 A 
ATOM      2  C   UNL     1      -0.775   7.958   0.156  0.00  0.00    +0.116 A 
ATOM      3  N   UNL     1      -1.903   8.727   0.154  0.00  0.00    -0.277 N 
ATOM      4  C   UNL     1      -3.123   8.176   0.060  0.00  0.00    +0.333 A 
ATOM      5  O   UNL     1      -4.096   8.904   0.061  0.00  0.00    -0.246 OA
ATOM      6  N   UNL     1      -3.308   6.849  -0.036  0.00  0.00    -0.263 N 
ATOM      7  C   UNL     1      -2.258   6.003  -0.047  0.00  0.00    +0.269 A 
ATOM      8  O   UNL     1      -2.429   4.801  -0.140  0.00  0.00    -0.267 OA
ATOM      9  C   UNL     1      -4.669   6.314  -0.135  0.00  0.00    +0.157 C 
ENDROOT
BRANCH   2  10
ATOM     10  N   UNL     1       0.454   8.534   0.252  0.00  0.00    -0.344 N 
ATOM     11  H   UNL     1       1.253   7.989   0.172  0.00  0.00    +0.144 HD
ATOM     12  H   UNL     1       0.532   9.489   0.401  0.00  0.00    +0.144 HD
ENDBRANCH   2  10
BRANCH   1  13
ATOM     13  C   UNL     1       0.232   5.724   0.057  0.00  0.00    +0.182 C 
ATOM     14  O   UNL     1       1.345   6.209   0.032  0.00  0.00    -0.291 OA
BRANCH  13  15
ATOM     15  C   UNL     1       0.063   4.226   0.086  0.00  0.00    +0.157 C 
BRANCH  15  16
ATOM     16  S   UNL     1       1.692   3.436   0.076  0.00  0.00    -0.078 S 
BRANCH  16  21
ATOM     17  C   UNL     1       1.667  -1.878   0.169  0.00  0.00    +0.088 C 
ATOM     18  C   UNL     1       1.226  -0.437   0.150  0.00  0.00    +0.131 A 
ATOM     19  N   UNL     1      -0.003  -0.005   0.161  0.00  0.00    -0.134 NA
ATOM     20  N   UNL     1      -0.019   1.280   0.138  0.00  0.00    -0.122 NA
ATOM     21  C   UNL     1       1.209   1.742   0.113  0.00  0.00    +0.192 A 
ATOM     22  N   UNL     1       2.043   0.660   0.120  0.00  0.00    -0.303 N 
BRANCH  22  23
ATOM     23  C   UNL     1       3.508   0.672   0.099  0.00  0.00    +0.091 C 
ATOM     24  C   UNL     1       4.029   1.419   1.328  0.00  0.00    +0.025 C 
ATOM     25  C   UNL     1       5.559   1.432   1.306  0.00  0.00    +0.002 C 
ATOM     26  C   UNL     1       6.045   2.135   0.037  0.00  0.00    +0.000 C 
ATOM     27  C   UNL     1       5.524   1.388  -1.192  0.00  0.00    +0.002 C 
ATOM     28  C   UNL     1       3.994   1.375  -1.170  0.00  0.00    +0.025 C 
ENDBRANCH  22  23
ENDBRANCH  16  21
ENDBRANCH  15  16
ENDBRANCH  13  15
ENDBRANCH   1  13
BRANCH   3  29
ATOM     29  C   UNL     1      -1.779  10.184   0.255  0.00  0.00    +0.163 C 
BRANCH  29  30
ATOM     30  C   UNL     1      -1.670  10.776  -1.126  0.00  0.00    -0.028 A 
ATOM     31  C   UNL     1      -0.428  10.948  -1.708  0.00  0.00    +0.005 A 
ATOM     32  C   UNL     1      -0.328  11.487  -2.977  0.00  0.00    +0.000 A 
ATOM     33  C   UNL     1      -1.469  11.864  -3.660  0.00  0.00    +0.000 A 
ATOM     34  C   UNL     1      -2.711  11.697  -3.076  0.00  0.00    +0.000 A 
ATOM     35  C   UNL     1      -2.811  11.153  -1.809  0.00  0.00    +0.005 A 
ENDBRANCH  29  30
ENDBRANCH   3  29
TORSDOF 8
