REMARK  Name = ZINC08609837
REMARK  7 active torsions:
REMARK  status: ('A' for Active; 'I' for Inactive)
REMARK    1  A    between atoms: C_1  and  C_2
REMARK    2  A    between atoms: C_6  and  C_7
REMARK    3  A    between atoms: C_9  and  C_18
REMARK    4  A    between atoms: C_10  and  C_17
REMARK    5  A    between atoms: N_20  and  C_21
REMARK    6  A    between atoms: C_26  and  O_27
REMARK    7  A    between atoms: O_27  and  C_28
REMARK                            x       y       z     vdW  Elec       q    Type
REMARK                         _______ _______ _______ _____ _____    ______ ____
ROOT
ATOM      1  C   UNL     1       0.020  -0.046   2.616  0.00  0.00    +0.184 C 
ATOM      2  C   UNL     1       1.272  -0.557   3.277  0.00  0.00    +0.061 C 
ATOM      3  C   UNL     1       1.266  -1.518   4.213  0.00  0.00    +0.018 C 
ATOM      4  N   UNL     1       0.105  -2.105   4.651  0.00  0.00    -0.287 N 
ATOM      5  C   UNL     1      -1.092  -1.499   4.293  0.00  0.00    +0.218 A 
ATOM      6  N   UNL     1      -1.148  -0.531   3.345  0.00  0.00    -0.220 N 
ATOM      7  N   UNL     1      -2.485  -0.147   3.248  0.00  0.00    -0.156 NA
ATOM      8  C   UNL     1      -3.151  -0.880   4.106  0.00  0.00    +0.247 A 
ATOM      9  N   UNL     1      -2.303  -1.699   4.737  0.00  0.00    -0.201 NA
ATOM     10  C   UNL     1       2.578  -1.967   4.803  0.00  0.00    +0.061 C 
ATOM     11  H   UNL     1       0.120  -2.912   5.190  0.00  0.00    +0.155 HD
ENDROOT
BRANCH   1  17
ATOM     12  C   UNL     1      -0.067   1.680   0.076  0.00  0.00    +0.044 C 
ATOM     13  C   UNL     1      -0.074   0.173   0.042  0.00  0.00    -0.038 A 
ATOM     14  C   UNL     1      -0.116  -0.501  -1.164  0.00  0.00    +0.011 A 
ATOM     15  C   UNL     1      -0.121  -1.857  -1.159  0.00  0.00    +0.046 A 
ATOM     16  S   UNL     1      -0.067  -2.220   0.588  0.00  0.00    -0.099 S 
ATOM     17  C   UNL     1      -0.035  -0.541   1.193  0.00  0.00    +0.022 A 
ENDBRANCH   1  17
BRANCH   2  18
ATOM     18  C   UNL     1       2.514   0.002   2.892  0.00  0.00    +0.248 C 
ATOM     19  O   UNL     1       2.829   1.111   3.283  0.00  0.00    -0.270 OA
ATOM     20  N   UNL     1       3.348  -0.694   2.094  0.00  0.00    -0.279 N 
ATOM     21  H   UNL     1       3.071  -1.550   1.732  0.00  0.00    +0.155 HD
BRANCH  20  22
ATOM     22  C   UNL     1       4.614  -0.180   1.787  0.00  0.00    +0.076 A 
ATOM     23  C   UNL     1       4.793   1.188   1.640  0.00  0.00    +0.027 A 
ATOM     24  C   UNL     1       6.043   1.692   1.336  0.00  0.00    +0.002 A 
ATOM     25  C   UNL     1       7.118   0.837   1.178  0.00  0.00    +0.004 A 
ATOM     26  C   UNL     1       6.947  -0.528   1.323  0.00  0.00    +0.047 A 
ATOM     27  C   UNL     1       5.699  -1.041   1.633  0.00  0.00    +0.141 A 
BRANCH  27  28
ATOM     28  O   UNL     1       5.531  -2.382   1.782  0.00  0.00    -0.493 OA
ATOM     29  C   UNL     1       6.687  -3.204   1.610  0.00  0.00    +0.277 C 
ENDBRANCH  27  28
ENDBRANCH  20  22
ENDBRANCH   2  18
TORSDOF 4
