REMARK  Name = ZINC45385426
REMARK  4 active torsions:
REMARK  status: ('A' for Active; 'I' for Inactive)
REMARK    1  A    between atoms: C_1  and  C_2
REMARK    2  A    between atoms: N_11  and  C_12
REMARK    3  A    between atoms: C_12  and  C_13
REMARK    4  A    between atoms: C_13  and  C_14
REMARK                            x       y       z     vdW  Elec       q    Type
REMARK                         _______ _______ _______ _____ _____    ______ ____
ROOT
ATOM      1  C   UNL     1       2.985   0.835   3.777  0.00  0.00    +0.113 C 
ENDROOT
BRANCH   1  11
ATOM      2  C   UNL     1      -0.017   1.526   0.009  0.00  0.00    +0.028 C 
ATOM      3  C   UNL     1       0.001  -0.004   0.003  0.00  0.00    +0.074 C 
ATOM      4  C   UNL     1      -1.429  -0.535   0.148  0.00  0.00    +0.022 C 
ATOM      5  C   UNL     1      -1.392  -2.059   0.282  0.00  0.00    +0.003 C 
ATOM      6  C   UNL     1      -0.604  -2.444   1.536  0.00  0.00    +0.019 C 
ATOM      7  C   UNL     1       0.835  -1.935   1.406  0.00  0.00    +0.109 C 
ATOM      8  N   UNL     1       0.806  -0.492   1.131  0.00  0.00    -0.283 N 
ATOM      9  C   UNL     1       1.502   0.368   1.901  0.00  0.00    +0.302 C 
ATOM     10  O   UNL     1       1.395   1.567   1.723  0.00  0.00    -0.253 OA
ATOM     11  N   UNL     1       2.316  -0.099   2.868  0.00  0.00    -0.299 N 
ATOM     12  H   UNL     1       2.458  -1.054   2.962  0.00  0.00    +0.150 HD
ENDBRANCH   1  11
BRANCH   1  13
ATOM     13  C   UNL     1       3.843   0.051   4.772  0.00  0.00    +0.095 C 
BRANCH  13  14
ATOM     14  C   UNL     1       4.531   1.012   5.707  0.00  0.00    +0.135 A 
ATOM     15  N   UNL     1       5.700   1.568   5.527  0.00  0.00    -0.134 NA
ATOM     16  N   UNL     1       5.972   2.338   6.522  0.00  0.00    -0.134 NA
ATOM     17  C   UNL     1       4.990   2.310   7.376  0.00  0.00    +0.133 A 
ATOM     18  N   UNL     1       4.053   1.464   6.888  0.00  0.00    -0.315 N 
ATOM     19  C   UNL     1       2.787   1.103   7.526  0.00  0.00    +0.125 C 
ATOM     20  C   UNL     1       2.319   2.259   8.415  0.00  0.00    +0.022 C 
ATOM     21  C   UNL     1       2.898   2.096   9.820  0.00  0.00    +0.002 C 
ATOM     22  C   UNL     1       4.422   2.132   9.777  0.00  0.00    +0.008 C 
ATOM     23  C   UNL     1       4.886   3.075   8.670  0.00  0.00    +0.076 C 
ENDBRANCH  13  14
ENDBRANCH   1  13
TORSDOF 3
