REMARK  Name = ZINC67023320
REMARK  8 active torsions:
REMARK  status: ('A' for Active; 'I' for Inactive)
REMARK    1  A    between atoms: C_1  and  N_2
REMARK    2  A    between atoms: N_2  and  C_3
REMARK    3  A    between atoms: C_4  and  S_6
REMARK    4  A    between atoms: S_6  and  C_7
REMARK    5  A    between atoms: C_11  and  N_13
REMARK    6  A    between atoms: C_14  and  C_16
REMARK    7  A    between atoms: C_17  and  C_18
REMARK    8  A    between atoms: C_21  and  N_24
REMARK                            x       y       z     vdW  Elec       q    Type
REMARK                         _______ _______ _______ _____ _____    ______ ____
ROOT
ATOM      1  N   UNL     1      -4.608  -6.244   0.180  0.00  0.00    -0.282 N 
ATOM      2  C   UNL     1      -3.803  -7.039   0.912  0.00  0.00    +0.241 C 
ATOM      3  O   UNL     1      -2.800  -6.580   1.428  0.00  0.00    -0.270 OA
ATOM      4  H   UNL     1      -5.370  -6.623  -0.286  0.00  0.00    +0.155 HD
ENDROOT
BRANCH   1   9
ATOM      5  C   UNL     1      -2.781  -3.055  -0.010  0.00  0.00    +0.019 A 
ATOM      6  C   UNL     1      -3.837  -2.154  -0.079  0.00  0.00    +0.015 A 
ATOM      7  C   UNL     1      -5.140  -2.612  -0.061  0.00  0.00    +0.003 A 
ATOM      8  C   UNL     1      -5.398  -3.967   0.024  0.00  0.00    +0.023 A 
ATOM      9  C   UNL     1      -4.346  -4.873   0.093  0.00  0.00    +0.035 A 
ATOM     10  C   UNL     1      -3.036  -4.416   0.070  0.00  0.00    +0.038 A 
BRANCH   5  11
ATOM     11  S   UNL     1      -1.119  -2.469  -0.032  0.00  0.00    -0.031 S 
BRANCH  11  15
ATOM     12  C   UNL     1       0.941  -1.952   3.442  0.00  0.00    +0.132 C 
ATOM     13  N   UNL     1       0.578  -2.039   2.025  0.00  0.00    -0.298 N 
ATOM     14  C   UNL     1       1.583  -1.773   0.993  0.00  0.00    +0.132 C 
ATOM     15  C   UNL     1      -0.682  -2.364   1.671  0.00  0.00    +0.279 C 
ATOM     16  O   UNL     1      -1.516  -2.586   2.528  0.00  0.00    -0.262 OA
ENDBRANCH  11  15
ENDBRANCH   5  11
ENDBRANCH   1   9
BRANCH   2  17
ATOM     17  C   UNL     1      -4.133  -8.454   1.086  0.00  0.00    +0.068 C 
ATOM     18  C   UNL     1      -3.327  -9.249   1.818  0.00  0.00    +0.013 C 
BRANCH  18  19
ATOM     19  C   UNL     1      -3.659 -10.672   1.993  0.00  0.00    -0.025 A 
ATOM     20  C   UNL     1      -4.806 -11.205   1.397  0.00  0.00    +0.010 A 
ATOM     21  C   UNL     1      -5.110 -12.539   1.566  0.00  0.00    +0.033 A 
ATOM     22  C   UNL     1      -4.283 -13.351   2.322  0.00  0.00    +0.126 A 
ATOM     23  C   UNL     1      -3.146 -12.832   2.916  0.00  0.00    +0.033 A 
ATOM     24  C   UNL     1      -2.825 -11.501   2.752  0.00  0.00    +0.010 A 
BRANCH  22  25
ATOM     25  N   UNL     1      -4.617 -14.783   2.498  0.00  0.00    +0.056 N 
ATOM     26  O   UNL     1      -5.610 -15.240   1.981  0.00  0.00    -0.126 OA
ATOM     27  O   UNL     1      -3.896 -15.495   3.158  0.00  0.00    -0.126 OA
ENDBRANCH  22  25
ENDBRANCH  18  19
ENDBRANCH   2  17
TORSDOF 6
