REMARK  Name = ZINC04959596
REMARK  3 active torsions:
REMARK  status: ('A' for Active; 'I' for Inactive)
REMARK    1  A    between atoms: C_1  and  C_2
REMARK    2  A    between atoms: C_4  and  C_28
REMARK    3  A    between atoms: C_9  and  C_18
REMARK                            x       y       z     vdW  Elec       q    Type
REMARK                         _______ _______ _______ _____ _____    ______ ____
ROOT
ATOM      1  C   UNL     1      -0.018   1.503   0.010  0.00  0.00    +0.044 C 
ATOM      2  C   UNL     1       0.002  -0.004   0.002  0.00  0.00    -0.048 A 
ATOM      3  C   UNL     1       0.006  -0.691  -1.198  0.00  0.00    +0.007 A 
ATOM      4  C   UNL     1       0.031  -2.071  -1.207  0.00  0.00    -0.045 A 
ATOM      5  C   UNL     1       0.049  -2.782  -0.015  0.00  0.00    -0.016 A 
ATOM      6  C   UNL     1       0.034  -2.095   1.185  0.00  0.00    +0.032 A 
ATOM      7  C   UNL     1       0.023  -0.702   1.192  0.00  0.00    +0.026 A 
ATOM      8  N   UNL     1       0.017  -2.776   2.397  0.00  0.00    -0.336 N 
ATOM      9  C   UNL     1      -0.016  -4.221   2.482  0.00  0.00    +0.106 C 
ATOM     10  C   UNL     1       0.464  -4.930   1.251  0.00  0.00    +0.029 C 
ATOM     11  C   UNL     1       0.094  -4.282  -0.081  0.00  0.00    +0.049 C 
ATOM     12  C   UNL     1       1.235  -4.672  -1.009  0.00  0.00    -0.023 C 
ATOM     13  C   UNL     1       2.281  -5.047  -0.321  0.00  0.00    -0.030 C 
ATOM     14  C   UNL     1       2.003  -4.980   1.166  0.00  0.00    +0.033 C 
ATOM     15  C   UNL     1       0.039  -2.811  -2.520  0.00  0.00    +0.044 C 
ATOM     16  H   UNL     1       0.028  -2.262   3.220  0.00  0.00    +0.147 HD
ENDROOT
BRANCH   9  17
ATOM     17  C   UNL     1      -1.434  -4.651   2.754  0.00  0.00    -0.009 A 
ATOM     18  C   UNL     1      -2.486  -3.839   2.374  0.00  0.00    +0.056 A 
ATOM     19  C   UNL     1      -3.791  -4.232   2.624  0.00  0.00    +0.167 A 
ATOM     20  C   UNL     1      -4.040  -5.447   3.258  0.00  0.00    +0.167 A 
ATOM     21  C   UNL     1      -2.981  -6.256   3.636  0.00  0.00    +0.065 A 
ATOM     22  C   UNL     1      -1.681  -5.860   3.379  0.00  0.00    +0.027 A 
ATOM     23 BR   UNL     1      -0.238  -6.971   3.890  0.00  0.00    -0.050 Br
ATOM     24  O   UNL     1      -5.390  -5.603   3.387  0.00  0.00    -0.453 OA
ATOM     25  C   UNL     1      -5.949  -4.290   3.196  0.00  0.00    +0.466 C 
ATOM     26  O   UNL     1      -4.985  -3.627   2.356  0.00  0.00    -0.453 OA
ENDBRANCH   9  17
TORSDOF 1
