REMARK  Name = ZINC13940537
REMARK  5 active torsions:
REMARK  status: ('A' for Active; 'I' for Inactive)
REMARK    1  A    between atoms: C_1  and  C_2
REMARK    2  A    between atoms: C_5  and  N_8
REMARK    3  A    between atoms: C_9  and  C_11
REMARK    4  A    between atoms: C_11  and  N_12
REMARK    5  A    between atoms: C_14  and  C_21
REMARK                            x       y       z     vdW  Elec       q    Type
REMARK                         _______ _______ _______ _____ _____    ______ ____
ROOT
ATOM      1  N   UNL     1      -2.161   3.830   0.541  0.00  0.00    -0.337 N 
ATOM      2  C   UNL     1      -2.709   2.590   0.601  0.00  0.00    +0.095 A 
ATOM      3  C   UNL     1      -1.737   1.670   0.880  0.00  0.00    +0.002 A 
ATOM      4  C   UNL     1      -0.472   2.420   0.989  0.00  0.00    +0.007 A 
ATOM      5  C   UNL     1      -0.801   3.767   0.765  0.00  0.00    +0.050 A 
ATOM      6  C   UNL     1       0.203   4.729   0.797  0.00  0.00    +0.026 A 
ATOM      7  C   UNL     1       1.505   4.356   1.053  0.00  0.00    +0.002 A 
ATOM      8  C   UNL     1       1.827   3.026   1.279  0.00  0.00    +0.001 A 
ATOM      9  C   UNL     1       0.847   2.058   1.251  0.00  0.00    +0.010 A 
ENDROOT
BRANCH   3  10
ATOM     10  C   UNL     1      -1.917   0.227   1.039  0.00  0.00    +0.038 C 
ATOM     11  C   UNL     1      -3.053  -0.372   0.588  0.00  0.00    +0.098 C 
ATOM     12  C   UNL     1      -3.450  -1.720   0.795  0.00  0.00    +0.266 C 
ATOM     13  O   UNL     1      -2.835  -2.569   1.415  0.00  0.00    -0.268 OA
ATOM     14  N   UNL     1      -4.637  -1.882   0.179  0.00  0.00    -0.235 N 
ATOM     15  C   UNL     1      -5.003  -0.729  -0.405  0.00  0.00    +0.311 C 
ATOM     16  O   UNL     1      -6.026  -0.562  -1.041  0.00  0.00    -0.252 OA
ATOM     17  N   UNL     1      -4.069   0.215  -0.181  0.00  0.00    -0.265 N 
ATOM     18  H   UNL     1      -5.148  -2.706   0.157  0.00  0.00    +0.159 HD
ATOM     19  H   UNL     1      -4.094   1.133  -0.495  0.00  0.00    +0.157 HD
ENDBRANCH   3  10
BRANCH   1  20
ATOM     20  C   UNL     1      -2.906   5.060   0.262  0.00  0.00    +0.217 C 
BRANCH  20  22
ATOM     21  N   UNL     1      -3.454   6.457  -1.704  0.00  0.00    -0.284 N 
ATOM     22  C   UNL     1      -2.837   5.365  -1.213  0.00  0.00    +0.237 C 
ATOM     23  O   UNL     1      -2.226   4.627  -1.956  0.00  0.00    -0.274 OA
ATOM     24  H   UNL     1      -3.872   7.091  -1.101  0.00  0.00    +0.155 HD
BRANCH  21  29
ATOM     25  C   UNL     1      -3.608   7.348  -7.305  0.00  0.00    +0.044 C 
ATOM     26  C   UNL     1      -3.567   7.111  -5.817  0.00  0.00    -0.050 A 
ATOM     27  C   UNL     1      -3.621   5.821  -5.322  0.00  0.00    +0.005 A 
ATOM     28  C   UNL     1      -3.584   5.601  -3.959  0.00  0.00    +0.023 A 
ATOM     29  C   UNL     1      -3.492   6.677  -3.086  0.00  0.00    +0.033 A 
ATOM     30  C   UNL     1      -3.444   7.972  -3.586  0.00  0.00    +0.023 A 
ATOM     31  C   UNL     1      -3.477   8.185  -4.950  0.00  0.00    +0.005 A 
ENDBRANCH  21  29
ENDBRANCH  20  22
ENDBRANCH   1  20
TORSDOF 4
