REMARK  Name = ZINC32124833
REMARK  10 active torsions:
REMARK  status: ('A' for Active; 'I' for Inactive)
REMARK    1  A    between atoms: C_1  and  C_2
REMARK    2  A    between atoms: C_6  and  N_8
REMARK    3  A    between atoms: C_9  and  C_11
REMARK    4  A    between atoms: C_11  and  N_12
REMARK    5  A    between atoms: C_16  and  C_17
REMARK    6  A    between atoms: C_20  and  S_26
REMARK    7  A    between atoms: C_21  and  N_23
REMARK    8  A    between atoms: S_26  and  C_27
REMARK    9  A    between atoms: C_27  and  C_28
REMARK   10  A    between atoms: C_28  and  O_29
REMARK                            x       y       z     vdW  Elec       q    Type
REMARK                         _______ _______ _______ _____ _____    ______ ____
ROOT
ATOM      1  N   UNL     1       0.007  -0.005   0.428  0.00  0.00    -0.219 N 
ATOM      2  C   UNL     1      -0.026   1.249   0.009  0.00  0.00    +0.261 C 
ATOM      3  O   UNL     1      -1.078   1.828  -0.193  0.00  0.00    -0.269 OA
ATOM      4  C   UNL     1       1.275   1.909  -0.208  0.00  0.00    +0.080 C 
ATOM      5  C   UNL     1       1.546   3.171  -0.629  0.00  0.00    +0.028 C 
ATOM      6  S   UNL     1       2.397   0.590   0.236  0.00  0.00    -0.026 S 
ATOM      7  C   UNL     1       1.174  -0.644   0.646  0.00  0.00    +0.286 C 
ATOM      8  O   UNL     1       1.351  -1.785   1.029  0.00  0.00    -0.262 OA
ENDROOT
BRANCH   5   9
ATOM      9  C   UNL     1       2.929   3.661  -0.637  0.00  0.00    -0.022 A 
ATOM     10  C   UNL     1       3.239   4.882  -1.251  0.00  0.00    +0.009 A 
ATOM     11  C   UNL     1       4.527   5.335  -1.256  0.00  0.00    +0.017 A 
ATOM     12  C   UNL     1       5.534   4.583  -0.651  0.00  0.00    +0.038 A 
ATOM     13  C   UNL     1       5.231   3.369  -0.040  0.00  0.00    +0.140 A 
ATOM     14  C   UNL     1       3.943   2.911  -0.027  0.00  0.00    +0.041 A 
BRANCH  13  15
ATOM     15  N   UNL     1       6.304   2.575   0.600  0.00  0.00    +0.058 N 
ATOM     16  O   UNL     1       6.040   1.513   1.134  0.00  0.00    -0.126 OA
ATOM     17  O   UNL     1       7.451   2.985   0.592  0.00  0.00    -0.126 OA
ENDBRANCH  13  15
BRANCH  12  18
ATOM     18  S   UNL     1       7.194   5.172  -0.659  0.00  0.00    -0.121 S 
BRANCH  18  19
ATOM     19  C   UNL     1       7.096   6.752  -1.546  0.00  0.00    +0.102 C 
BRANCH  19  20
ATOM     20  C   UNL     1       8.489   7.379  -1.627  0.00  0.00    +0.167 C 
BRANCH  20  21
ATOM     21  O   UNL     1       8.411   8.623  -2.326  0.00  0.00    -0.394 OA
ATOM     22  H   UNL     1       9.319   9.224  -2.483  0.00  0.00    +0.209 HD
ENDBRANCH  20  21
ENDBRANCH  19  20
ENDBRANCH  18  19
ENDBRANCH  12  18
ENDBRANCH   5   9
BRANCH   1  23
ATOM     23  C   UNL     1      -1.253  -0.715   0.662  0.00  0.00    +0.213 C 
BRANCH  23  25
ATOM     24  N   UNL     1      -2.820  -2.130  -0.627  0.00  0.00    -0.284 N 
ATOM     25  C   UNL     1      -1.681  -1.409  -0.605  0.00  0.00    +0.235 C 
ATOM     26  O   UNL     1      -1.001  -1.319  -1.605  0.00  0.00    -0.274 OA
ATOM     27  H   UNL     1      -3.465  -2.166   0.263  0.00  0.00    +0.155 HD
BRANCH  24  33
ATOM     28  C   UNL     1      -2.941  -2.428  -5.533  0.00  0.00    +0.044 C 
ATOM     29  C   UNL     1      -3.252  -2.999  -4.174  0.00  0.00    -0.049 A 
ATOM     30  C   UNL     1      -3.898  -4.218  -4.068  0.00  0.00    +0.003 A 
ATOM     31  C   UNL     1      -4.186  -4.744  -2.822  0.00  0.00    +0.002 A 
ATOM     32  C   UNL     1      -3.830  -4.054  -1.680  0.00  0.00    +0.023 A 
ATOM     33  C   UNL     1      -3.182  -2.831  -1.783  0.00  0.00    +0.034 A 
ATOM     34  C   UNL     1      -2.898  -2.302  -3.036  0.00  0.00    +0.026 A 
ENDBRANCH  24  33
ENDBRANCH  23  25
ENDBRANCH   1  23
TORSDOF 9
