REMARK  Name = ZINC38805491
REMARK  5 active torsions:
REMARK  status: ('A' for Active; 'I' for Inactive)
REMARK    1  A    between atoms: C_1  and  C_2
REMARK    2  A    between atoms: C_4  and  C_14
REMARK    3  A    between atoms: N_16  and  C_17
REMARK    4  A    between atoms: C_18  and  C_29
REMARK    5  A    between atoms: C_26  and  C_28
REMARK                            x       y       z     vdW  Elec       q    Type
REMARK                         _______ _______ _______ _____ _____    ______ ____
ROOT
ATOM      1  C   UNL     1      -2.019  -0.054   1.450  0.00  0.00    +0.262 C 
ATOM      2  O   UNL     1      -2.214  -0.833   2.359  0.00  0.00    -0.271 OA
ATOM      3  N   UNL     1      -2.334   1.248   1.600  0.00  0.00    -0.276 N 
ATOM      4  H   UNL     1      -2.247   1.857   0.850  0.00  0.00    +0.155 HD
ENDROOT
BRANCH   3   5
ATOM      5  C   UNL     1      -2.781   1.718   2.827  0.00  0.00    +0.090 A 
ATOM      6  C   UNL     1      -3.152   3.010   3.161  0.00  0.00    +0.084 A 
ATOM      7  C   UNL     1      -3.589   3.246   4.526  0.00  0.00    -0.015 A 
ATOM      8  C   UNL     1      -3.576   2.142   5.306  0.00  0.00    +0.013 A 
ATOM      9  S   UNL     1      -3.005   0.848   4.246  0.00  0.00    -0.075 S 
ATOM     10  C   UNL     1      -3.974   2.061   6.748  0.00  0.00    +0.150 C 
ATOM     11  N   UNL     1      -4.153   3.446   7.227  0.00  0.00    -0.297 N 
ATOM     12  C   UNL     1      -4.849   4.390   6.339  0.00  0.00    +0.113 C 
ATOM     13  C   UNL     1      -4.025   4.599   5.066  0.00  0.00    +0.056 C 
ATOM     14  C   UNL     1      -3.697   3.832   8.435  0.00  0.00    +0.213 C 
ATOM     15  O   UNL     1      -3.856   4.976   8.807  0.00  0.00    -0.276 OA
ATOM     16  C   UNL     1      -2.988   2.843   9.324  0.00  0.00    +0.109 C 
BRANCH   6  17
ATOM     17  C   UNL     1      -3.106   4.070   2.199  0.00  0.00    +0.102 C 
ATOM     18  N   UNL     1      -3.070   4.911   1.436  0.00  0.00    -0.191 NA
ENDBRANCH   6  17
ENDBRANCH   3   5
BRANCH   1  21
ATOM     19  C   UNL     1      -0.002   1.517   0.024  0.00  0.00    +0.056 C 
ATOM     20  C   UNL     1       0.008  -0.013   0.011  0.00  0.00    +0.220 C 
ATOM     21  C   UNL     1      -1.425  -0.541   0.154  0.00  0.00    +0.299 C 
ATOM     22  O   UNL     1      -1.378  -1.972   0.152  0.00  0.00    -0.472 OA
ATOM     23  C   UNL     1      -0.434  -2.554   0.942  0.00  0.00    +0.163 A 
ATOM     24  C   UNL     1      -0.556  -3.896   1.272  0.00  0.00    +0.049 A 
ATOM     25  C   UNL     1       0.396  -4.501   2.071  0.00  0.00    +0.004 A 
ATOM     26  C   UNL     1       1.472  -3.772   2.542  0.00  0.00    +0.004 A 
ATOM     27  C   UNL     1       1.598  -2.434   2.218  0.00  0.00    +0.049 A 
ATOM     28  C   UNL     1       0.645  -1.820   1.418  0.00  0.00    +0.163 A 
ATOM     29  O   UNL     1       0.779  -0.500   1.114  0.00  0.00    -0.481 OA
ENDBRANCH   1  21
TORSDOF 3
