REMARK  Name = ZINC01344323
REMARK  8 active torsions:
REMARK  status: ('A' for Active; 'I' for Inactive)
REMARK    1  A    between atoms: C_1  and  C_2
REMARK    2  A    between atoms: C_5  and  N_9
REMARK    3  A    between atoms: C_6  and  C_8
REMARK    4  A    between atoms: C_10  and  C_12
REMARK    5  A    between atoms: C_12  and  N_13
REMARK    6  A    between atoms: C_15  and  C_18
REMARK    7  A    between atoms: C_21  and  N_25
REMARK    8  A    between atoms: C_26  and  C_28
REMARK                            x       y       z     vdW  Elec       q    Type
REMARK                         _______ _______ _______ _____ _____    ______ ____
ROOT
ATOM      1  N   UNL     1      -4.472   5.283   0.046  0.00  0.00    -0.154 N 
ATOM      2  N   UNL     1      -3.642   4.296   0.027  0.00  0.00    -0.130 NA
ATOM      3  C   UNL     1      -2.424   4.796  -0.033  0.00  0.00    +0.205 A 
ATOM      4  N   UNL     1      -2.556   6.130  -0.058  0.00  0.00    -0.108 NA
ATOM      5  N   UNL     1      -3.818   6.390  -0.008  0.00  0.00    -0.045 NA
ENDROOT
BRANCH   3   6
ATOM      6  C   UNL     1      -1.153   4.030  -0.073  0.00  0.00    +0.024 A 
ATOM      7  C   UNL     1       0.066   4.703  -0.142  0.00  0.00    +0.013 A 
ATOM      8  C   UNL     1       1.245   3.990  -0.178  0.00  0.00    +0.025 A 
ATOM      9  C   UNL     1       1.221   2.601  -0.146  0.00  0.00    +0.052 A 
ATOM     10  C   UNL     1       0.006   1.927  -0.077  0.00  0.00    +0.063 A 
ATOM     11  C   UNL     1      -1.177   2.637  -0.046  0.00  0.00    +0.033 A 
ATOM     12 CL   UNL     1      -0.022   0.192  -0.037  0.00  0.00    -0.082 Cl
BRANCH   9  13
ATOM     13  N   UNL     1       2.419   1.880  -0.183  0.00  0.00    -0.285 N 
ATOM     14  C   UNL     1       3.562   2.451   0.244  0.00  0.00    +0.214 C 
ATOM     15  O   UNL     1       3.538   3.551   0.754  0.00  0.00    -0.276 OA
ATOM     16  C   UNL     1       4.872   1.722   0.087  0.00  0.00    +0.109 C 
ATOM     17  H   UNL     1       2.426   0.970  -0.517  0.00  0.00    +0.155 HD
ENDBRANCH   9  13
ENDBRANCH   3   6
BRANCH   1  18
ATOM     18  C   UNL     1      -5.930   5.162   0.113  0.00  0.00    +0.264 C 
BRANCH  18  20
ATOM     19  N   UNL     1      -7.823   4.974  -1.468  0.00  0.00    -0.284 N 
ATOM     20  C   UNL     1      -6.493   5.089  -1.283  0.00  0.00    +0.240 C 
ATOM     21  O   UNL     1      -5.749   5.133  -2.240  0.00  0.00    -0.273 OA
ATOM     22  H   UNL     1      -8.423   5.008  -0.708  0.00  0.00    +0.155 HD
BRANCH  19  27
ATOM     23  C   UNL     1      -9.909   4.293  -6.700  0.00  0.00    +0.044 C 
ATOM     24  C   UNL     1      -9.355   4.474  -5.310  0.00  0.00    -0.050 A 
ATOM     25  C   UNL     1      -8.238   5.266  -5.110  0.00  0.00    +0.005 A 
ATOM     26  C   UNL     1      -7.728   5.433  -3.838  0.00  0.00    +0.024 A 
ATOM     27  C   UNL     1      -8.337   4.806  -2.759  0.00  0.00    +0.036 A 
ATOM     28  C   UNL     1      -9.455   4.008  -2.964  0.00  0.00    -0.029 A 
ATOM     29  C   UNL     1      -9.964   3.849  -4.238  0.00  0.00    +0.008 A 
ATOM     30  C   UNL     1     -10.115   3.321  -1.796  0.00  0.00    +0.045 C 
ENDBRANCH  19  27
ENDBRANCH  18  20
ENDBRANCH   1  18
TORSDOF 5
