REMARK  Name = ZINC20745640
REMARK  4 active torsions:
REMARK  status: ('A' for Active; 'I' for Inactive)
REMARK    1  A    between atoms: C_1  and  C_2
REMARK    2  A    between atoms: C_2  and  C_3
REMARK    3  A    between atoms: C_2  and  C_4
REMARK    4  A    between atoms: C_7  and  C_10
REMARK                            x       y       z     vdW  Elec       q    Type
REMARK                         _______ _______ _______ _____ _____    ______ ____
ROOT
ATOM      1  C   UNL     1      -5.419  -2.005   0.043  0.00  0.00    +0.111 C 
ATOM      2  C   UNL     1      -5.378  -3.500   0.085  0.00  0.00    +0.029 A 
ATOM      3  C   UNL     1      -4.314  -4.183   0.599  0.00  0.00    +0.111 A 
ATOM      4  N   UNL     1      -4.570  -5.498   0.495  0.00  0.00    -0.283 N 
ATOM      5  H   UNL     1      -3.987  -6.218   0.782  0.00  0.00    +0.188 HD
ATOM      6  N   UNL     1      -5.825  -5.644  -0.097  0.00  0.00    -0.158 NA
ATOM      7  C   UNL     1      -6.319  -4.435  -0.347  0.00  0.00    +0.151 A 
ATOM      8  N   UNL     1      -7.560  -4.279  -0.934  0.00  0.00    -0.268 N 
ATOM      9  C   UNL     1      -8.261  -3.256  -1.322  0.00  0.00    +0.228 C 
ATOM     10  O   UNL     1      -9.290  -3.537  -1.899  0.00  0.00    -0.275 OA
ATOM     11  C   UNL     1      -8.010  -1.808  -1.177  0.00  0.00    +0.166 C 
ATOM     12  S   UNL     1      -6.282  -1.363  -1.393  0.00  0.00    -0.138 S 
ATOM     13  H   UNL     1      -8.010  -5.124  -1.091  0.00  0.00    +0.156 HD
ENDROOT
BRANCH   1  17
ATOM     14  C   UNL     1      -1.412  -0.526   0.013  0.00  0.00    -0.045 A 
ATOM     15  C   UNL     1      -2.259  -0.204   1.056  0.00  0.00    +0.004 A 
ATOM     16  C   UNL     1      -3.556  -0.683   1.066  0.00  0.00    +0.005 A 
ATOM     17  C   UNL     1      -4.006  -1.482   0.032  0.00  0.00    -0.030 A 
ATOM     18  C   UNL     1      -3.159  -1.803  -1.012  0.00  0.00    +0.005 A 
ATOM     19  C   UNL     1      -1.863  -1.321  -1.024  0.00  0.00    +0.004 A 
BRANCH  14  21
ATOM     20  C   UNL     1      -0.019   1.526   0.010  0.00  0.00    +0.012 C 
ATOM     21  C   UNL     1       0.002  -0.004   0.002  0.00  0.00    +0.013 C 
ATOM     22  C   UNL     1       0.742  -0.511   1.242  0.00  0.00    +0.012 C 
ENDBRANCH  14  21
ENDBRANCH   1  17
TORSDOF 2
