REMARK  Name = ZINC49409747
REMARK  7 active torsions:
REMARK  status: ('A' for Active; 'I' for Inactive)
REMARK    1  A    between atoms: C_1  and  C_2
REMARK    2  A    between atoms: N_4  and  C_5
REMARK    3  A    between atoms: C_8  and  N_11
REMARK    4  A    between atoms: C_12  and  C_14
REMARK    5  A    between atoms: C_14  and  N_15
REMARK    6  A    between atoms: N_21  and  C_25
REMARK    7  A    between atoms: C_25  and  C_26
REMARK                            x       y       z     vdW  Elec       q    Type
REMARK                         _______ _______ _______ _____ _____    ______ ____
ROOT
ATOM      1  N   UNL     1      -3.006  -9.114  -0.151  0.00  0.00    -0.305 N 
ATOM      2  C   UNL     1      -3.700  -9.442   0.978  0.00  0.00    +0.090 A 
ATOM      3  C   UNL     1      -4.924  -9.998   0.908  0.00  0.00    +0.028 A 
ATOM      4  C   UNL     1      -5.511 -10.248  -0.407  0.00  0.00    +0.007 A 
ATOM      5  C   UNL     1      -6.730 -10.796  -0.857  0.00  0.00    +0.028 A 
ATOM      6  C   UNL     1      -6.718 -10.773  -2.205  0.00  0.00    +0.087 A 
ATOM      7  N   UNL     1      -5.544 -10.235  -2.640  0.00  0.00    -0.338 N 
ATOM      8  C   UNL     1      -4.777  -9.900  -1.548  0.00  0.00    +0.115 A 
ATOM      9  C   UNL     1      -3.506  -9.320  -1.384  0.00  0.00    +0.276 A 
ATOM     10  O   UNL     1      -2.850  -9.006  -2.364  0.00  0.00    -0.265 OA
ENDROOT
BRANCH   1  11
ATOM     11  C   UNL     1      -1.678  -8.512  -0.017  0.00  0.00    +0.220 C 
BRANCH  11  13
ATOM     12  N   UNL     1      -0.710  -6.244   0.177  0.00  0.00    -0.284 N 
ATOM     13  C   UNL     1      -1.810  -7.012   0.052  0.00  0.00    +0.237 C 
ATOM     14  O   UNL     1      -2.906  -6.497  -0.006  0.00  0.00    -0.274 OA
ATOM     15  H   UNL     1       0.160  -6.657   0.291  0.00  0.00    +0.155 HD
BRANCH  12  19
ATOM     16  C   UNL     1      -1.047  -2.089   0.076  0.00  0.00    +0.033 A 
ATOM     17  C   UNL     1       0.068  -2.709  -0.474  0.00  0.00    +0.025 A 
ATOM     18  C   UNL     1       0.179  -4.084  -0.440  0.00  0.00    +0.025 A 
ATOM     19  C   UNL     1      -0.823  -4.848   0.143  0.00  0.00    +0.034 A 
ATOM     20  C   UNL     1      -1.938  -4.228   0.693  0.00  0.00    +0.025 A 
ATOM     21  C   UNL     1      -2.047  -2.853   0.664  0.00  0.00    +0.025 A 
BRANCH  16  25
ATOM     22  C   UNL     1      -1.766   1.468   1.081  0.00  0.00    +0.109 C 
ATOM     23  C   UNL     1      -1.737  -0.038   1.069  0.00  0.00    +0.214 C 
ATOM     24  O   UNL     1      -2.232  -0.662   1.984  0.00  0.00    -0.276 OA
ATOM     25  N   UNL     1      -1.161  -0.693   0.042  0.00  0.00    -0.286 N 
ATOM     26  H   UNL     1      -0.824  -0.198  -0.722  0.00  0.00    +0.155 HD
ENDBRANCH  16  25
ENDBRANCH  12  19
ENDBRANCH  11  13
ENDBRANCH   1  11
BRANCH   7  27
ATOM     27  C   UNL     1      -5.161 -10.045  -4.041  0.00  0.00    +0.157 C 
BRANCH  27  28
ATOM     28  C   UNL     1      -4.337 -11.220  -4.500  0.00  0.00    -0.025 A 
ATOM     29  C   UNL     1      -2.962 -11.198  -4.356  0.00  0.00    +0.005 A 
ATOM     30  C   UNL     1      -2.204 -12.274  -4.777  0.00  0.00    +0.003 A 
ATOM     31  C   UNL     1      -2.821 -13.375  -5.343  0.00  0.00    +0.038 A 
ATOM     32  C   UNL     1      -4.197 -13.398  -5.487  0.00  0.00    +0.124 A 
ATOM     33  C   UNL     1      -4.956 -12.321  -5.060  0.00  0.00    +0.043 A 
ATOM     34  F   UNL     1      -4.801 -14.473  -6.040  0.00  0.00    -0.205 F 
ENDBRANCH  27  28
ENDBRANCH   7  27
TORSDOF 6
