REMARK  Name = ZINC20612263
REMARK  5 active torsions:
REMARK  status: ('A' for Active; 'I' for Inactive)
REMARK    1  A    between atoms: C_1  and  O_2
REMARK    2  A    between atoms: O_2  and  C_3
REMARK    3  A    between atoms: C_13  and  C_18
REMARK    4  A    between atoms: N_24  and  C_27
REMARK    5  A    between atoms: C_27  and  C_28
REMARK                            x       y       z     vdW  Elec       q    Type
REMARK                         _______ _______ _______ _____ _____    ______ ____
ROOT
ATOM      1  C   UNL     1      -0.611  -2.296  -0.006  0.00  0.00    +0.121 A 
ATOM      2  C   UNL     1       0.731  -2.657  -0.019  0.00  0.00    +0.047 A 
ATOM      3  C   UNL     1       1.746  -1.717  -0.023  0.00  0.00    +0.030 A 
ATOM      4  C   UNL     1       1.371  -0.376  -0.012  0.00  0.00    +0.047 A 
ATOM      5  C   UNL     1       0.002  -0.004   0.002  0.00  0.00    +0.006 A 
ATOM      6  C   UNL     1      -1.012  -0.968   0.005  0.00  0.00    +0.056 A 
ATOM      7  C   UNL     1      -0.018   1.442   0.010  0.00  0.00    -0.022 A 
ATOM      8  C   UNL     1       1.269   1.859  -0.000  0.00  0.00    +0.011 A 
ATOM      9  N   UNL     1       2.107   0.778  -0.012  0.00  0.00    -0.359 N 
ATOM     10  H   UNL     1       3.205   0.730  -0.020  0.00  0.00    +0.166 HD
ATOM     11  C   UNL     1       1.661   3.318  -0.001  0.00  0.00    +0.018 C 
ATOM     12  N   UNL     1       0.487   4.116  -0.390  0.00  0.00    +0.388 N 
ATOM     13  C   UNL     1      -0.688   3.774   0.425  0.00  0.00    -0.076 C 
ATOM     14  C   UNL     1      -1.197   2.381   0.032  0.00  0.00    +0.018 C 
ATOM     15  H   UNL     1       0.708   5.185  -0.252  0.00  0.00    -0.084 HD
ATOM     16  H   UNL     1       0.246   3.925  -1.446  0.00  0.00    -0.084 HD
ENDROOT
BRANCH  11  17
ATOM     17  C   UNL     1       2.779   3.542  -0.986  0.00  0.00    +0.073 A 
ATOM     18  C   UNL     1       2.568   3.341  -2.362  0.00  0.00    +0.258 A 
ATOM     19  O   UNL     1       1.476   2.984  -2.770  0.00  0.00    -0.267 OA
ATOM     20  N   UNL     1       3.580   3.551  -3.227  0.00  0.00    -0.302 N 
ATOM     21  C   UNL     1       4.789   3.940  -2.782  0.00  0.00    +0.164 A 
ATOM     22  S   UNL     1       6.059   4.193  -3.902  0.00  0.00    -0.013 S 
ATOM     23  N   UNL     1       5.014   4.133  -1.469  0.00  0.00    -0.284 N 
ATOM     24  C   UNL     1       4.011   3.936  -0.555  0.00  0.00    +0.261 A 
ATOM     25  O   UNL     1       4.242   4.130   0.760  0.00  0.00    -0.267 OA
ATOM     26  H   UNL     1       3.412   3.401  -4.304  0.00  0.00    +0.171 HD
BRANCH  23  27
ATOM     27  C   UNL     1       6.341   4.557  -1.014  0.00  0.00    +0.162 C 
BRANCH  27  28
ATOM     28  C   UNL     1       7.184   3.343  -0.724  0.00  0.00    -0.028 A 
ATOM     29  C   UNL     1       7.187   2.789   0.543  0.00  0.00    +0.005 A 
ATOM     30  C   UNL     1       7.957   1.672   0.807  0.00  0.00    +0.000 A 
ATOM     31  C   UNL     1       8.733   1.115  -0.192  0.00  0.00    +0.000 A 
ATOM     32  C   UNL     1       8.735   1.672  -1.458  0.00  0.00    +0.000 A 
ATOM     33  C   UNL     1       7.960   2.786  -1.723  0.00  0.00    +0.005 A 
ENDBRANCH  27  28
ENDBRANCH  23  27
ENDBRANCH  11  17
BRANCH   1  35
ATOM     34  C   UNL     1      -1.096  -4.624  -0.015  0.00  0.00    +0.277 C 
ATOM     35  O   UNL     1      -1.558  -3.272  -0.003  0.00  0.00    -0.495 OA
ENDBRANCH   1  35
TORSDOF 4
