REMARK  Name = ZINC21543507
REMARK  7 active torsions:
REMARK  status: ('A' for Active; 'I' for Inactive)
REMARK    1  A    between atoms: C_1  and  C_2
REMARK    2  A    between atoms: C_2  and  C_4
REMARK    3  A    between atoms: C_2  and  O_17
REMARK    4  A    between atoms: N_6  and  C_7
REMARK    5  A    between atoms: O_17  and  C_18
REMARK    6  A    between atoms: C_18  and  C_20
REMARK    7  A    between atoms: C_27  and  C_32
REMARK                            x       y       z     vdW  Elec       q    Type
REMARK                         _______ _______ _______ _____ _____    ______ ____
ROOT
ATOM      1  C   UNL     1       5.678  -4.943  -0.423  0.00  0.00    +0.340 C 
ATOM      2  O   UNL     1       6.693  -4.434  -0.854  0.00  0.00    -0.245 OA
ENDROOT
BRANCH   1   3
ATOM      3  C   UNL     1       5.502  -6.410  -0.485  0.00  0.00    +0.059 A 
ATOM      4  C   UNL     1       4.335  -6.994   0.011  0.00  0.00    +0.016 A 
ATOM      5  C   UNL     1       4.173  -8.362  -0.046  0.00  0.00    +0.016 A 
ATOM      6  C   UNL     1       5.175  -9.157  -0.601  0.00  0.00    +0.062 A 
ATOM      7  C   UNL     1       6.342  -8.577  -1.100  0.00  0.00    -0.029 A 
ATOM      8  C   UNL     1       6.501  -7.208  -1.046  0.00  0.00    +0.019 A 
ATOM      9  C   UNL     1       7.424  -9.432  -1.706  0.00  0.00    +0.085 C 
ATOM     10  C   UNL     1       7.300 -10.874  -1.213  0.00  0.00    +0.211 C 
ATOM     11  O   UNL     1       5.925 -11.325  -1.386  0.00  0.00    -0.453 OA
ATOM     12  C   UNL     1       5.011 -10.631  -0.662  0.00  0.00    +0.340 C 
ATOM     13  O   UNL     1       4.097 -11.191  -0.090  0.00  0.00    -0.245 OA
BRANCH  10  14
ATOM     14  C   UNL     1       8.224 -11.760  -2.009  0.00  0.00    -0.007 A 
ATOM     15  C   UNL     1       7.850 -12.196  -3.266  0.00  0.00    +0.007 A 
ATOM     16  C   UNL     1       8.700 -13.004  -3.998  0.00  0.00    +0.000 A 
ATOM     17  C   UNL     1       9.919 -13.384  -3.469  0.00  0.00    +0.000 A 
ATOM     18  C   UNL     1      10.290 -12.953  -2.209  0.00  0.00    +0.000 A 
ATOM     19  C   UNL     1       9.442 -12.140  -1.479  0.00  0.00    +0.007 A 
ENDBRANCH  10  14
ENDBRANCH   1   3
BRANCH   1  20
ATOM     20  O   UNL     1       4.713  -4.171   0.112  0.00  0.00    -0.449 OA
BRANCH  20  22
ATOM     21  C   UNL     1       5.654  -2.365   1.448  0.00  0.00    +0.062 C 
ATOM     22  C   UNL     1       4.953  -2.739   0.140  0.00  0.00    +0.259 C 
BRANCH  22  23
ATOM     23  C   UNL     1       3.639  -2.007   0.048  0.00  0.00    +0.258 C 
ATOM     24  O   UNL     1       2.597  -2.628   0.057  0.00  0.00    -0.271 OA
ATOM     25  N   UNL     1       3.621  -0.663  -0.046  0.00  0.00    -0.282 N 
ATOM     26  H   UNL     1       4.565  -0.106  -0.142  0.00  0.00    +0.155 HD
BRANCH  25  27
ATOM     27  C   UNL     1       2.401   0.025  -0.021  0.00  0.00    +0.037 A 
ATOM     28  C   UNL     1       1.346  -0.460   0.740  0.00  0.00    +0.027 A 
ATOM     29  C   UNL     1       0.142   0.217   0.764  0.00  0.00    +0.051 A 
ATOM     30  C   UNL     1      -0.016   1.384   0.030  0.00  0.00    +0.162 A 
ATOM     31  C   UNL     1       1.040   1.873  -0.730  0.00  0.00    +0.164 A 
ATOM     32  C   UNL     1       2.247   1.192  -0.756  0.00  0.00    +0.072 A 
ATOM     33  O   UNL     1       0.906   3.021  -1.450  0.00  0.00    -0.485 OA
ATOM     34  C   UNL     1      -0.429   3.473  -1.699  0.00  0.00    +0.270 C 
ATOM     35  C   UNL     1      -1.216   3.395  -0.384  0.00  0.00    +0.270 C 
ATOM     36  O   UNL     1      -1.213   2.033   0.059  0.00  0.00    -0.485 OA
ENDBRANCH  25  27
ENDBRANCH  22  23
ENDBRANCH  20  22
ENDBRANCH   1  20
TORSDOF 6
