REMARK  Name = ZINC39777015
REMARK  5 active torsions:
REMARK  status: ('A' for Active; 'I' for Inactive)
REMARK    1  A    between atoms: C_7  and  C_10
REMARK    2  A    between atoms: C_13  and  S_19
REMARK    3  A    between atoms: N_15  and  C_16
REMARK    4  A    between atoms: S_19  and  C_20
REMARK    5  A    between atoms: C_20  and  C_21
REMARK                            x       y       z     vdW  Elec       q    Type
REMARK                         _______ _______ _______ _____ _____    ______ ____
ROOT
ATOM      1  C   UNL     1       0.575  -3.117  -0.057  0.00  0.00    +0.147 C 
ATOM      2  N   UNL     1      -0.717  -2.967  -0.174  0.00  0.00    -0.169 NA
ATOM      3  N   UNL     1      -1.347  -4.184  -0.461  0.00  0.00    -0.237 N 
ATOM      4  C   UNL     1      -0.284  -5.200  -0.523  0.00  0.00    +0.237 C 
ATOM      5  N   UNL     1       0.953  -4.448  -0.257  0.00  0.00    -0.282 N 
ATOM      6  H   UNL     1      -2.297  -4.328  -0.593  0.00  0.00    +0.171 HD
ENDROOT
BRANCH   1  13
ATOM      7  C   UNL     1      -0.084   1.254   0.962  0.00  0.00    +0.001 A 
ATOM      8  C   UNL     1       1.101   1.962   1.178  0.00  0.00    +0.002 A 
ATOM      9  C   UNL     1       2.316   1.369   1.085  0.00  0.00    +0.026 A 
ATOM     10  C   UNL     1       2.405  -0.009   0.759  0.00  0.00    +0.043 A 
ATOM     11  N   UNL     1       3.446  -0.804   0.611  0.00  0.00    -0.380 N 
ATOM     12  C   UNL     1       2.981  -2.152   0.270  0.00  0.00    +0.152 C 
ATOM     13  C   UNL     1       1.471  -2.075   0.229  0.00  0.00    +0.022 C 
ATOM     14  C   UNL     1       1.154  -0.750   0.532  0.00  0.00    +0.006 A 
ATOM     15  C   UNL     1      -0.075  -0.066   0.647  0.00  0.00    +0.010 A 
ATOM     16  H   UNL     1       4.374  -0.540   0.711  0.00  0.00    +0.160 HD
ENDBRANCH   1  13
BRANCH   5  17
ATOM     17  C   UNL     1       2.314  -4.988  -0.209  0.00  0.00    +0.078 C 
ATOM     18  C   UNL     1       2.497  -6.470  -0.543  0.00  0.00    +0.024 C 
ATOM     19  C   UNL     1       2.638  -5.988   0.902  0.00  0.00    +0.024 C 
ENDBRANCH   5  17
BRANCH   4  20
ATOM     20  S   UNL     1      -0.223  -5.955  -2.171  0.00  0.00    -0.109 S 
BRANCH  20  21
ATOM     21  C   UNL     1       0.073  -4.553  -3.285  0.00  0.00    +0.168 C 
BRANCH  21  22
ATOM     22  C   UNL     1       0.147  -5.048  -4.706  0.00  0.00    +0.226 C 
ATOM     23  O   UNL     1       0.013  -6.229  -4.945  0.00  0.00    -0.275 OA
ATOM     24  N   UNL     1       0.362  -4.177  -5.712  0.00  0.00    -0.298 N 
ATOM     25  C   UNL     1       0.532  -2.744  -5.437  0.00  0.00    +0.126 C 
ATOM     26  C   UNL     1       1.864  -2.283  -6.044  0.00  0.00    +0.125 C 
ATOM     27  N   UNL     1       1.932  -2.751  -7.436  0.00  0.00    -0.314 N 
ATOM     28  C   UNL     1       1.762  -4.184  -7.711  0.00  0.00    +0.125 C 
ATOM     29  C   UNL     1       0.436  -4.645  -7.104  0.00  0.00    +0.126 C 
ATOM     30  C   UNL     1       2.154  -1.853  -8.473  0.00  0.00    +0.099 A 
ATOM     31  C   UNL     1       2.459  -0.526  -8.184  0.00  0.00    +0.042 A 
ATOM     32  C   UNL     1       2.677   0.356  -9.226  0.00  0.00    +0.005 A 
ATOM     33  C   UNL     1       2.583  -0.119 -10.528  0.00  0.00    +0.018 A 
ATOM     34  C   UNL     1       2.276  -1.447 -10.742  0.00  0.00    +0.084 A 
ATOM     35  N   UNL     1       2.078  -2.268  -9.728  0.00  0.00    -0.350 N 
ATOM     36  H   UNL     1       1.867  -3.198  -9.906  0.00  0.00    +0.166 HD
ENDBRANCH  21  22
ENDBRANCH  20  21
ENDBRANCH   4  20
TORSDOF 5
