REMARK  Name = ZINC40397306
REMARK  3 active torsions:
REMARK  status: ('A' for Active; 'I' for Inactive)
REMARK    1  A    between atoms: C_2  and  C_12
REMARK    2  A    between atoms: C_12  and  C_14
REMARK    3  A    between atoms: C_12  and  N_19
REMARK                            x       y       z     vdW  Elec       q    Type
REMARK                         _______ _______ _______ _____ _____    ______ ____
ROOT
ATOM      1  C   UNL     1      -0.017   1.383   0.010  0.00  0.00    +0.052 A 
ATOM      2  C   UNL     1       1.170   2.092   0.002  0.00  0.00    -0.050 A 
ATOM      3  C   UNL     1       2.378   1.421  -0.013  0.00  0.00    +0.021 A 
ATOM      4  C   UNL     1       2.405   0.038  -0.023  0.00  0.00    +0.063 A 
ATOM      5  C   UNL     1       1.217  -0.679  -0.016  0.00  0.00    +0.176 A 
ATOM      6  C   UNL     1       0.002  -0.004   0.002  0.00  0.00    +0.163 A 
ATOM      7  O   UNL     1      -1.174  -0.688   0.017  0.00  0.00    -0.485 OA
ATOM      8  C   UNL     1      -1.122  -2.066  -0.368  0.00  0.00    +0.270 C 
ATOM      9  C   UNL     1       0.061  -2.723   0.356  0.00  0.00    +0.270 C 
ATOM     10  O   UNL     1       1.258  -2.039  -0.029  0.00  0.00    -0.484 OA
ATOM     11 BR   UNL     1       4.060  -0.875  -0.046  0.00  0.00    -0.046 Br
ENDROOT
BRANCH   2  12
ATOM     12  C   UNL     1       1.146   3.599   0.010  0.00  0.00    +0.029 C 
BRANCH  12  13
ATOM     13  C   UNL     1       1.371   4.112  -1.388  0.00  0.00    +0.167 A 
ATOM     14  N   UNL     1       2.521   4.133  -2.047  0.00  0.00    -0.113 NA
ATOM     15  N   UNL     1       2.296   4.646  -3.208  0.00  0.00    -0.021 NA
ATOM     16  N   UNL     1       1.047   4.947  -3.299  0.00  0.00    -0.021 NA
ATOM     17  N   UNL     1       0.456   4.625  -2.199  0.00  0.00    -0.113 NA
ENDBRANCH  12  13
BRANCH  12  18
ATOM     18  N   UNL     1       2.207   4.101   0.893  0.00  0.00    +0.387 N 
ATOM     19  H   UNL     1       3.103   3.780   0.558  0.00  0.00    -0.089 HD
ATOM     20  H   UNL     1       2.191   5.109   0.899  0.00  0.00    -0.089 HD
ATOM     21  H   UNL     1       2.056   3.757   1.830  0.00  0.00    -0.089 HD
ENDBRANCH  12  18
ENDBRANCH   2  12
TORSDOF 3
