REMARK  Name = ZINC61981718
REMARK  4 active torsions:
REMARK  status: ('A' for Active; 'I' for Inactive)
REMARK    1  A    between atoms: C_4  and  N_17
REMARK    2  A    between atoms: C_6  and  N_7
REMARK    3  A    between atoms: N_7  and  C_8
REMARK    4  A    between atoms: N_12  and  C_14
REMARK                            x       y       z     vdW  Elec       q    Type
REMARK                         _______ _______ _______ _____ _____    ______ ____
ROOT
ATOM      1  N   UNL     1      -1.198  -0.721   0.010  0.00  0.00    -0.343 N 
ATOM      2  H   UNL     1      -1.183  -1.690   0.005  0.00  0.00    +0.146 HD
ENDROOT
BRANCH   1   8
ATOM      3  C   UNL     1      -0.017   1.385   0.010  0.00  0.00    +0.024 A 
ATOM      4  C   UNL     1       1.171   2.090   0.002  0.00  0.00    +0.024 A 
ATOM      5  C   UNL     1       2.378   1.415  -0.013  0.00  0.00    +0.071 A 
ATOM      6  C   UNL     1       2.400   0.031  -0.021  0.00  0.00    +0.146 A 
ATOM      7  C   UNL     1       1.216  -0.680  -0.013  0.00  0.00    +0.057 A 
ATOM      8  C   UNL     1       0.002  -0.004   0.002  0.00  0.00    +0.030 A 
ATOM      9 CL   UNL     1       3.869   2.305  -0.024  0.00  0.00    -0.081 Cl
BRANCH   6  10
ATOM     10  N   UNL     1       3.693  -0.688  -0.038  0.00  0.00    +0.058 N 
ATOM     11  O   UNL     1       3.713  -1.897  -0.045  0.00  0.00    -0.126 OA
ATOM     12  O   UNL     1       4.730  -0.067  -0.046  0.00  0.00    -0.126 OA
ENDBRANCH   6  10
ENDBRANCH   1   8
BRANCH   1  13
ATOM     13  C   UNL     1      -2.477  -0.007   0.027  0.00  0.00    +0.052 C 
ATOM     14  C   UNL     1      -2.933   0.311  -1.416  0.00  0.00    +0.002 C 
ATOM     15  C   UNL     1      -3.916  -0.844  -1.732  0.00  0.00    -0.077 C 
ATOM     16  N   UNL     1      -4.616  -1.057  -0.439  0.00  0.00    +0.383 N 
ATOM     17  C   UNL     1      -3.583  -0.905   0.611  0.00  0.00    -0.056 C 
ATOM     18  H   UNL     1      -5.339  -0.364  -0.317  0.00  0.00    -0.081 HD
BRANCH  16  19
ATOM     19  C   UNL     1      -5.192  -2.407  -0.392  0.00  0.00    -0.069 C 
ATOM     20  C   UNL     1      -6.718  -2.525  -0.390  0.00  0.00    -0.017 C 
ATOM     21  C   UNL     1      -5.927  -2.817   0.886  0.00  0.00    -0.017 C 
ENDBRANCH  16  19
ENDBRANCH   1  13
TORSDOF 4
