REMARK  Name = ZINC54877910
REMARK  9 active torsions:
REMARK  status: ('A' for Active; 'I' for Inactive)
REMARK    1  A    between atoms: C_1  and  C_2
REMARK    2  A    between atoms: C_2  and  O_3
REMARK    3  A    between atoms: O_3  and  C_4
REMARK    4  A    between atoms: C_5  and  N_11
REMARK    5  A    between atoms: C_12  and  C_14
REMARK    6  A    between atoms: N_16  and  C_17
REMARK    7  A    between atoms: C_17  and  C_19
REMARK    8  A    between atoms: C_17  and  C_20
REMARK    9  A    between atoms: N_24  and  C_25
REMARK                            x       y       z     vdW  Elec       q    Type
REMARK                         _______ _______ _______ _____ _____    ______ ____
ROOT
ATOM      1  N   UNL     1      -1.511  -1.841  -2.413  0.00  0.00    -0.275 N 
ATOM      2  C   UNL     1      -1.495  -2.516  -3.579  0.00  0.00    +0.303 C 
ATOM      3  O   UNL     1      -1.637  -3.721  -3.584  0.00  0.00    -0.265 OA
ATOM      4  H   UNL     1      -1.463  -0.872  -2.413  0.00  0.00    +0.155 HD
ENDROOT
BRANCH   1   6
ATOM      5  C   UNL     1      -0.935  -2.059  -0.073  0.00  0.00    +0.160 A 
ATOM      6  C   UNL     1      -1.597  -2.537  -1.203  0.00  0.00    +0.077 A 
ATOM      7  C   UNL     1      -2.343  -3.704  -1.123  0.00  0.00    +0.027 A 
ATOM      8  C   UNL     1      -2.428  -4.390   0.073  0.00  0.00    +0.003 A 
ATOM      9  C   UNL     1      -1.770  -3.917   1.194  0.00  0.00    +0.024 A 
ATOM     10  C   UNL     1      -1.020  -2.756   1.122  0.00  0.00    +0.084 A 
ATOM     11 CL   UNL     1      -0.191  -2.170   2.530  0.00  0.00    -0.080 Cl
BRANCH   5  12
ATOM     12  O   UNL     1      -0.202  -0.916  -0.145  0.00  0.00    -0.489 OA
BRANCH  12  14
ATOM     13  C   UNL     1       1.831   0.333  -0.531  0.00  0.00    +0.048 C 
ATOM     14  C   UNL     1       1.175  -1.050  -0.502  0.00  0.00    +0.226 C 
ENDBRANCH  12  14
ENDBRANCH   5  12
ENDBRANCH   1   6
BRANCH   2  15
ATOM     15  C   UNL     1      -1.302  -1.781  -4.865  0.00  0.00    +0.300 C 
ATOM     16  O   UNL     1      -1.161  -0.576  -4.860  0.00  0.00    -0.265 OA
ATOM     17  N   UNL     1      -1.286  -2.456  -6.031  0.00  0.00    -0.298 N 
ATOM     18  H   UNL     1      -1.399  -3.420  -6.035  0.00  0.00    +0.150 HD
BRANCH  17  19
ATOM     19  C   UNL     1      -1.097  -1.735  -7.293  0.00  0.00    +0.138 C 
ATOM     20  C   UNL     1       0.398  -1.544  -7.551  0.00  0.00    +0.036 C 
BRANCH  19  21
ATOM     21  C   UNL     1      -1.705  -2.529  -8.420  0.00  0.00    +0.153 A 
ATOM     22  N   UNL     1      -1.581  -3.813  -8.617  0.00  0.00    -0.133 NA
ATOM     23  N   UNL     1      -2.231  -4.154  -9.673  0.00  0.00    -0.138 NA
ATOM     24  C   UNL     1      -2.799  -3.103 -10.198  0.00  0.00    +0.224 A 
ATOM     25  N   UNL     1      -2.486  -2.042  -9.415  0.00  0.00    -0.319 N 
ATOM     26  C   UNL     1      -2.904  -0.651  -9.607  0.00  0.00    +0.151 C 
ENDBRANCH  19  21
ENDBRANCH  17  19
ENDBRANCH   2  15
TORSDOF 6
