REMARK  Name = ZINC16701275
REMARK  9 active torsions:
REMARK  status: ('A' for Active; 'I' for Inactive)
REMARK    1  A    between atoms: C_1  and  C_2
REMARK    2  A    between atoms: C_2  and  C_3
REMARK    3  A    between atoms: C_3  and  C_5
REMARK    4  A    between atoms: C_3  and  S_14
REMARK    5  A    between atoms: C_10  and  C_13
REMARK    6  A    between atoms: S_14  and  C_15
REMARK    7  A    between atoms: C_18  and  C_21
REMARK    8  A    between atoms: N_19  and  N_20
REMARK    9  A    between atoms: C_24  and  C_27
REMARK                            x       y       z     vdW  Elec       q    Type
REMARK                         _______ _______ _______ _____ _____    ______ ____
ROOT
ATOM      1  C   UNL     1       1.762   8.302  -0.556  0.00  0.00    +0.209 A 
ATOM      2  N   UNL     1       2.975   8.285  -0.051  0.00  0.00    -0.121 NA
ATOM      3  N   UNL     1       3.490   9.461  -0.101  0.00  0.00    -0.127 NA
ATOM      4  C   UNL     1       2.638  10.301  -0.641  0.00  0.00    +0.182 A 
ATOM      5  N   UNL     1       1.507   9.583  -0.954  0.00  0.00    -0.224 N 
ENDROOT
BRANCH   4   6
ATOM      6  C   UNL     1       2.854  11.745  -0.874  0.00  0.00    +0.021 A 
ATOM      7  C   UNL     1       1.774  12.577  -1.168  0.00  0.00    +0.012 A 
ATOM      8  C   UNL     1       1.982  13.925  -1.379  0.00  0.00    +0.004 A 
ATOM      9  C   UNL     1       3.260  14.449  -1.310  0.00  0.00    -0.050 A 
ATOM     10  C   UNL     1       4.337  13.629  -1.024  0.00  0.00    +0.004 A 
ATOM     11  C   UNL     1       4.142  12.280  -0.806  0.00  0.00    +0.012 A 
ATOM     12  C   UNL     1       3.481  15.921  -1.548  0.00  0.00    +0.044 C 
ENDBRANCH   4   6
BRANCH   5  13
ATOM     13  N   UNL     1       0.366  10.054  -1.539  0.00  0.00    -0.295 N 
ATOM     14  H   UNL     1      -0.292  10.372  -0.844  0.00  0.00    +0.163 HD
ATOM     15  H   UNL     1       0.575  10.786  -2.202  0.00  0.00    +0.163 HD
ENDBRANCH   5  13
BRANCH   1  16
ATOM     16  S   UNL     1       0.670   6.926  -0.700  0.00  0.00    -0.072 S 
BRANCH  16  17
ATOM     17  C   UNL     1       1.639   5.665   0.165  0.00  0.00    +0.140 C 
BRANCH  17  18
ATOM     18  C   UNL     1       0.987   4.318  -0.017  0.00  0.00    +0.232 C 
ATOM     19  O   UNL     1      -0.181   4.248  -0.335  0.00  0.00    -0.274 OA
ATOM     20  N   UNL     1       1.702   3.192   0.174  0.00  0.00    -0.267 N 
ATOM     21  C   UNL     1       1.098   1.946   0.007  0.00  0.00    +0.168 A 
ATOM     22  C   UNL     1      -0.251   1.694  -0.361  0.00  0.00    +0.091 A 
ATOM     23  C   UNL     1      -0.335   0.345  -0.388  0.00  0.00    +0.136 A 
ATOM     24  O   UNL     1       0.878  -0.122  -0.060  0.00  0.00    -0.358 OA
ATOM     25  N   UNL     1       1.660   0.775   0.155  0.00  0.00    -0.063 NA
ATOM     26  C   UNL     1      -1.555  -0.475  -0.723  0.00  0.00    +0.089 C 
ATOM     27  H   UNL     1       2.636   3.248   0.429  0.00  0.00    +0.156 HD
ENDBRANCH  17  18
BRANCH  17  29
ATOM     28  C   UNL     1       2.632   5.016   2.364  0.00  0.00    +0.005 C 
ATOM     29  C   UNL     1       1.703   6.004   1.655  0.00  0.00    +0.020 C 
ENDBRANCH  17  29
ENDBRANCH  16  17
ENDBRANCH   1  16
TORSDOF 6
