REMARK  Name = ZINC60477388
REMARK  11 active torsions:
REMARK  status: ('A' for Active; 'I' for Inactive)
REMARK    1  A    between atoms: C_1  and  C_2
REMARK    2  A    between atoms: C_2  and  N_3
REMARK    3  A    between atoms: N_3  and  C_4
REMARK    4  A    between atoms: N_3  and  C_21
REMARK    5  A    between atoms: C_4  and  C_5
REMARK    6  A    between atoms: N_7  and  C_8
REMARK    7  A    between atoms: C_11  and  C_17
REMARK    8  A    between atoms: C_18  and  C_20
REMARK    9  A    between atoms: C_21  and  C_22
REMARK   10  A    between atoms: C_21  and  C_23
REMARK   11  A    between atoms: C_26  and  C_29
REMARK                            x       y       z     vdW  Elec       q    Type
REMARK                         _______ _______ _______ _____ _____    ______ ____
ROOT
ATOM      1  C   UNL     1       2.246   1.508  -0.836  0.00  0.00    +0.203 C 
ATOM      2  O   UNL     1       1.244   2.186  -0.923  0.00  0.00    -0.277 OA
ATOM      3  N   UNL     1       3.431   2.089  -0.563  0.00  0.00    -0.257 N 
ATOM      4  H   UNL     1       4.233   1.547  -0.493  0.00  0.00    +0.158 HD
ENDROOT
BRANCH   3   5
ATOM      5  C   UNL     1       3.505   3.460  -0.382  0.00  0.00    +0.206 A 
ATOM      6  C   UNL     1       4.644   4.176  -0.105  0.00  0.00    +0.110 A 
ATOM      7  C   UNL     1       4.210   5.591  -0.003  0.00  0.00    +0.053 A 
ATOM      8  C   UNL     1       5.234   6.599   0.290  0.00  0.00    +0.070 A 
ATOM      9  N   UNL     1       6.468   6.233   0.449  0.00  0.00    -0.175 NA
ATOM     10  N   UNL     1       6.899   4.912   0.358  0.00  0.00    -0.242 N 
ATOM     11  H   UNL     1       7.841   4.720   0.489  0.00  0.00    +0.192 HD
ATOM     12  C   UNL     1       6.061   3.888   0.093  0.00  0.00    +0.277 A 
ATOM     13  O   UNL     1       6.479   2.746   0.022  0.00  0.00    -0.266 OA
ATOM     14  C   UNL     1       4.854   8.052   0.406  0.00  0.00    +0.068 C 
ATOM     15  C   UNL     1       2.879   5.583  -0.224  0.00  0.00    +0.114 A 
ATOM     16  O   UNL     1       2.477   4.319  -0.452  0.00  0.00    -0.445 OA
ATOM     17  C   UNL     1       1.986   6.797  -0.221  0.00  0.00    +0.087 C 
ENDBRANCH   3   5
BRANCH   1  18
ATOM     18  C   UNL     1       2.166   0.016  -1.033  0.00  0.00    +0.020 C 
BRANCH  18  19
ATOM     19  N   UNL     1       0.759  -0.385  -1.168  0.00  0.00    +0.390 N 
ATOM     20  H   UNL     1       0.323   0.160  -1.896  0.00  0.00    -0.080 HD
BRANCH  19  22
ATOM     21  C   UNL     1       0.703  -1.003   1.201  0.00  0.00    -0.017 C 
ATOM     22  C   UNL     1       0.060  -0.154   0.103  0.00  0.00    -0.081 C 
ENDBRANCH  19  22
BRANCH  19  23
ATOM     23  C   UNL     1       0.688  -1.811  -1.514  0.00  0.00    -0.040 C 
ATOM     24  C   UNL     1       1.416  -2.052  -2.837  0.00  0.00    -0.008 C 
BRANCH  23  25
ATOM     25  C   UNL     1      -0.755  -2.222  -1.652  0.00  0.00    -0.061 A 
ATOM     26  C   UNL     1      -1.657  -1.374  -2.271  0.00  0.00    +0.003 A 
ATOM     27  C   UNL     1      -2.979  -1.745  -2.401  0.00  0.00    +0.019 A 
ATOM     28  C   UNL     1      -3.407  -2.979  -1.907  0.00  0.00    +0.052 A 
ATOM     29  C   UNL     1      -2.492  -3.830  -1.284  0.00  0.00    +0.019 A 
ATOM     30  C   UNL     1      -1.171  -3.449  -1.165  0.00  0.00    +0.003 A 
BRANCH  28  31
ATOM     31  C   UNL     1      -4.778  -3.370  -2.038  0.00  0.00    +0.099 C 
ATOM     32  N   UNL     1      -5.866  -3.680  -2.142  0.00  0.00    -0.191 NA
ENDBRANCH  28  31
ENDBRANCH  23  25
ENDBRANCH  19  23
ENDBRANCH  18  19
ENDBRANCH   1  18
TORSDOF 7
