REMARK  Name = ZINC39325070
REMARK  11 active torsions:
REMARK  status: ('A' for Active; 'I' for Inactive)
REMARK    1  A    between atoms: C_1  and  O_2
REMARK    2  A    between atoms: O_2  and  C_3
REMARK    3  A    between atoms: C_3  and  C_5
REMARK    4  A    between atoms: C_10  and  S_11
REMARK    5  A    between atoms: S_11  and  N_14
REMARK    6  A    between atoms: N_14  and  C_15
REMARK    7  A    between atoms: N_14  and  C_19
REMARK    8  A    between atoms: C_15  and  C_16
REMARK    9  A    between atoms: C_16  and  C_17
REMARK   10  A    between atoms: C_17  and  O_18
REMARK   11  A    between atoms: C_19  and  C_20
REMARK                            x       y       z     vdW  Elec       q    Type
REMARK                         _______ _______ _______ _____ _____    ______ ____
ROOT
ATOM      1  N   UNL     1       2.986  -0.557   2.835  0.00  0.00    -0.175 NA
ENDROOT
BRANCH   1   2
ATOM      2  S   UNL     1       1.879  -1.784   2.939  0.00  0.00    +0.062 S 
ATOM      3  O   UNL     1       0.656  -1.194   3.357  0.00  0.00    -0.153 OA
ATOM      4  O   UNL     1       2.505  -2.835   3.663  0.00  0.00    -0.153 OA
BRANCH   2  10
ATOM      5  C   UNL     1       0.932  -3.589   1.105  0.00  0.00    +0.085 A 
ATOM      6  C   UNL     1       0.721  -4.057  -0.194  0.00  0.00    +0.017 A 
ATOM      7  C   UNL     1       1.192  -3.333  -1.269  0.00  0.00    +0.001 A 
ATOM      8  C   UNL     1       1.873  -2.146  -1.063  0.00  0.00    +0.002 A 
ATOM      9  C   UNL     1       2.085  -1.677   0.221  0.00  0.00    +0.029 A 
ATOM     10  C   UNL     1       1.614  -2.388   1.305  0.00  0.00    +0.119 A 
BRANCH   5  11
ATOM     11  C   UNL     1       0.430  -4.359   2.261  0.00  0.00    +0.341 C 
ATOM     12  O   UNL     1       0.627  -3.957   3.390  0.00  0.00    -0.245 OA
BRANCH  11  14
ATOM     13  C   UNL     1      -0.703  -6.200   3.227  0.00  0.00    +0.280 C 
ATOM     14  O   UNL     1      -0.247  -5.507   2.064  0.00  0.00    -0.464 OA
ENDBRANCH  11  14
ENDBRANCH   5  11
ENDBRANCH   2  10
ENDBRANCH   1   2
BRANCH   1  15
ATOM     15  C   UNL     1       2.531   0.829   2.695  0.00  0.00    +0.112 C 
BRANCH  15  16
ATOM     16  C   UNL     1       1.935   1.307   4.020  0.00  0.00    +0.045 C 
BRANCH  16  17
ATOM     17  C   UNL     1       1.409   2.734   3.858  0.00  0.00    +0.157 C 
BRANCH  17  18
ATOM     18  O   UNL     1       0.853   3.180   5.096  0.00  0.00    -0.395 OA
ATOM     19  H   UNL     1       0.499   4.080   5.067  0.00  0.00    +0.209 HD
ENDBRANCH  17  18
ENDBRANCH  16  17
ENDBRANCH  15  16
ENDBRANCH   1  15
BRANCH   1  20
ATOM     20  C   UNL     1       4.419  -0.857   2.882  0.00  0.00    +0.126 C 
BRANCH  20  21
ATOM     21  C   UNL     1       4.951  -1.030   1.458  0.00  0.00    +0.114 C 
ATOM     22  C   UNL     1       6.311  -1.692   1.548  0.00  0.00    -0.003 C 
ATOM     23  C   UNL     1       7.366  -1.030   1.000  0.00  0.00    -0.003 A 
ATOM     24  C   UNL     1       8.713  -1.600   1.046  0.00  0.00    +0.059 A 
ATOM     25  C   UNL     1       9.747  -0.914   0.488  0.00  0.00    +0.163 A 
ATOM     26  C   UNL     1       9.542   0.334  -0.134  0.00  0.00    +0.164 A 
ATOM     27  C   UNL     1       8.291   0.915  -0.200  0.00  0.00    +0.073 A 
ATOM     28  C   UNL     1       7.172   0.278   0.348  0.00  0.00    +0.044 A 
ATOM     29  N   UNL     1       5.971   0.858   0.273  0.00  0.00    -0.284 N 
ATOM     30  C   UNL     1       4.875   0.313   0.768  0.00  0.00    +0.225 C 
ATOM     31  O   UNL     1       3.808   0.889   0.668  0.00  0.00    -0.275 OA
ATOM     32  O   UNL     1      10.588   1.000  -0.694  0.00  0.00    -0.485 OA
ATOM     33  C   UNL     1      11.900   0.597  -0.293  0.00  0.00    +0.270 C 
ATOM     34  C   UNL     1      11.974  -0.934  -0.352  0.00  0.00    +0.270 C 
ATOM     35  O   UNL     1      10.994  -1.463   0.547  0.00  0.00    -0.485 OA
ATOM     36  H   UNL     1       5.901   1.720  -0.167  0.00  0.00    +0.155 HD
ENDBRANCH  20  21
ENDBRANCH   1  20
TORSDOF 10
