REMARK  Name = ZINC09973170
REMARK  12 active torsions:
REMARK  status: ('A' for Active; 'I' for Inactive)
REMARK    1  A    between atoms: C_1  and  C_2
REMARK    2  A    between atoms: C_5  and  N_9
REMARK    3  A    between atoms: C_6  and  C_8
REMARK    4  A    between atoms: C_13  and  C_14
REMARK    5  A    between atoms: C_17  and  O_22
REMARK    6  A    between atoms: C_18  and  O_20
REMARK    7  A    between atoms: O_20  and  C_21
REMARK    8  A    between atoms: O_22  and  C_23
REMARK    9  A    between atoms: C_23  and  C_24
REMARK   10  A    between atoms: C_27  and  C_29
REMARK   11  A    between atoms: C_29  and  O_31
REMARK   12  A    between atoms: O_31  and  C_32
REMARK                            x       y       z     vdW  Elec       q    Type
REMARK                         _______ _______ _______ _____ _____    ______ ____
ROOT
ATOM      1  N   UNL     1      -0.831   2.644   7.288  0.00  0.00    -0.217 N 
ATOM      2  C   UNL     1      -1.897   1.824   7.397  0.00  0.00    +0.262 C 
ATOM      3  O   UNL     1      -1.764   0.616   7.342  0.00  0.00    -0.269 OA
ATOM      4  C   UNL     1      -3.228   2.433   7.585  0.00  0.00    +0.100 C 
ATOM      5  C   UNL     1      -4.365   1.657   7.705  0.00  0.00    +0.026 C 
ATOM      6  C   UNL     1      -3.290   3.907   7.640  0.00  0.00    +0.255 C 
ATOM      7  O   UNL     1      -4.351   4.482   7.793  0.00  0.00    -0.270 OA
ATOM      8  N   UNL     1      -2.138   4.598   7.516  0.00  0.00    -0.263 N 
ATOM      9  C   UNL     1      -0.962   3.976   7.353  0.00  0.00    +0.150 C 
ATOM     10  S   UNL     1       0.448   4.936   7.212  0.00  0.00    -0.018 S 
ATOM     11  H   UNL     1      -2.161   5.567   7.550  0.00  0.00    +0.157 HD
ENDROOT
BRANCH   1  16
ATOM     12  C   UNL     1       4.331   0.402   6.562  0.00  0.00    +0.044 C 
ATOM     13  C   UNL     1       2.960   0.997   6.755  0.00  0.00    -0.050 A 
ATOM     14  C   UNL     1       2.184   1.313   5.654  0.00  0.00    +0.005 A 
ATOM     15  C   UNL     1       0.925   1.854   5.828  0.00  0.00    +0.024 A 
ATOM     16  C   UNL     1       0.443   2.090   7.109  0.00  0.00    +0.046 A 
ATOM     17  C   UNL     1       1.227   1.777   8.211  0.00  0.00    -0.028 A 
ATOM     18  C   UNL     1       2.483   1.231   8.031  0.00  0.00    +0.008 A 
ATOM     19  C   UNL     1       0.708   2.031   9.603  0.00  0.00    +0.046 C 
ENDBRANCH   1  16
BRANCH   5  20
ATOM     20  C   UNL     1      -4.305   0.222   7.428  0.00  0.00    -0.020 A 
ATOM     21  C   UNL     1      -3.649  -0.246   6.280  0.00  0.00    +0.012 A 
ATOM     22  C   UNL     1      -3.590  -1.597   6.026  0.00  0.00    +0.050 A 
ATOM     23  C   UNL     1      -4.188  -2.500   6.898  0.00  0.00    +0.163 A 
ATOM     24  C   UNL     1      -4.846  -2.042   8.040  0.00  0.00    +0.162 A 
ATOM     25  C   UNL     1      -4.907  -0.691   8.307  0.00  0.00    +0.057 A 
BRANCH  24  26
ATOM     26  O   UNL     1      -5.429  -2.930   8.890  0.00  0.00    -0.491 OA
ATOM     27  C   UNL     1      -6.086  -2.392  10.040  0.00  0.00    +0.277 C 
ENDBRANCH  24  26
BRANCH  23  28
ATOM     28  O   UNL     1      -4.130  -3.830   6.638  0.00  0.00    -0.481 OA
BRANCH  28  29
ATOM     29  C   UNL     1      -3.440  -4.231   5.452  0.00  0.00    +0.303 C 
BRANCH  29  30
ATOM     30  C   UNL     1      -3.479  -5.732   5.330  0.00  0.00    +0.143 A 
ATOM     31  C   UNL     1      -4.437  -6.446   4.698  0.00  0.00    +0.049 A 
ATOM     32  C   UNL     1      -4.092  -7.800   4.821  0.00  0.00    +0.057 A 
ATOM     33  C   UNL     1      -2.926  -7.846   5.531  0.00  0.00    +0.212 A 
ATOM     34  O   UNL     1      -2.568  -6.579   5.827  0.00  0.00    -0.450 OA
BRANCH  33  35
ATOM     35  C   UNL     1      -2.190  -9.057   5.902  0.00  0.00    +0.375 C 
ATOM     36  O   UNL     1      -2.612 -10.149   5.573  0.00  0.00    -0.241 OA
BRANCH  35  37
ATOM     37  O   UNL     1      -1.045  -8.961   6.609  0.00  0.00    -0.462 OA
ATOM     38  C   UNL     1      -0.370 -10.202   6.941  0.00  0.00    +0.280 C 
ENDBRANCH  35  37
ENDBRANCH  33  35
ENDBRANCH  29  30
ENDBRANCH  28  29
ENDBRANCH  23  28
ENDBRANCH   5  20
TORSDOF 8
