REMARK  Name = ZINC09181373
REMARK  7 active torsions:
REMARK  status: ('A' for Active; 'I' for Inactive)
REMARK    1  A    between atoms: C_4  and  N_10
REMARK    2  A    between atoms: C_6  and  N_7
REMARK    3  A    between atoms: C_11  and  C_13
REMARK    4  A    between atoms: C_13  and  S_14
REMARK    5  A    between atoms: S_14  and  C_15
REMARK    6  A    between atoms: N_25  and  C_26
REMARK    7  A    between atoms: C_26  and  C_27
REMARK                            x       y       z     vdW  Elec       q    Type
REMARK                         _______ _______ _______ _____ _____    ______ ____
ROOT
ATOM      1  C   UNL     1      -1.122  -2.042   0.044  0.00  0.00    +0.173 A 
ATOM      2  N   UNL     1      -1.141  -0.731   0.052  0.00  0.00    -0.223 NA
ATOM      3  C   UNL     1       0.003  -0.007   0.055  0.00  0.00    +0.080 A 
ATOM      4  C   UNL     1      -0.015   1.390   0.065  0.00  0.00    +0.048 A 
ATOM      5  C   UNL     1       1.174   2.085   0.068  0.00  0.00    +0.043 A 
ATOM      6  C   UNL     1       2.391   1.413   0.062  0.00  0.00    +0.021 A 
ATOM      7  C   UNL     1       2.434   0.047   0.053  0.00  0.00    +0.017 A 
ATOM      8  C   UNL     1       1.245  -0.682   0.049  0.00  0.00    +0.065 A 
ATOM      9  C   UNL     1       1.237  -2.151   0.040  0.00  0.00    +0.262 A 
ATOM     10  O   UNL     1       2.274  -2.788   0.035  0.00  0.00    -0.267 OA
ATOM     11  N   UNL     1       0.034  -2.770   0.038  0.00  0.00    -0.285 N 
ATOM     12 CL   UNL     1       1.153   3.821   0.079  0.00  0.00    -0.083 Cl
ENDROOT
BRANCH   1  13
ATOM     13  S   UNL     1      -2.658  -2.904   0.041  0.00  0.00    -0.078 S 
BRANCH  13  14
ATOM     14  C   UNL     1      -3.805  -1.503   0.052  0.00  0.00    +0.173 C 
BRANCH  14  16
ATOM     15  N   UNL     1      -6.252  -1.145   0.058  0.00  0.00    -0.282 N 
ATOM     16  C   UNL     1      -5.223  -2.014   0.051  0.00  0.00    +0.228 C 
ATOM     17  O   UNL     1      -5.437  -3.208   0.044  0.00  0.00    -0.275 OA
ATOM     18  H   UNL     1      -6.083  -0.193   0.129  0.00  0.00    +0.155 HD
BRANCH  15  22
ATOM     19  C   UNL     1     -10.167  -2.550  -0.224  0.00  0.00    +0.035 A 
ATOM     20  C   UNL     1      -9.823  -1.346  -0.812  0.00  0.00    +0.042 A 
ATOM     21  C   UNL     1      -8.527  -0.874  -0.717  0.00  0.00    +0.145 A 
ATOM     22  C   UNL     1      -7.567  -1.617  -0.037  0.00  0.00    +0.071 A 
ATOM     23  C   UNL     1      -7.918  -2.824   0.552  0.00  0.00    +0.059 A 
ATOM     24  C   UNL     1      -9.216  -3.287   0.456  0.00  0.00    +0.128 A 
ATOM     25  F   UNL     1      -8.192   0.304  -1.286  0.00  0.00    -0.204 F 
BRANCH  24  26
ATOM     26  N   UNL     1      -9.589  -4.574   1.085  0.00  0.00    +0.056 N 
ATOM     27  O   UNL     1      -8.752  -5.224   1.685  0.00  0.00    -0.126 OA
ATOM     28  O   UNL     1     -10.734  -4.983   1.001  0.00  0.00    -0.126 OA
ENDBRANCH  24  26
ENDBRANCH  15  22
ENDBRANCH  14  16
ENDBRANCH  13  14
ENDBRANCH   1  13
BRANCH  11  29
ATOM     29  C   UNL     1      -0.030  -4.233   0.029  0.00  0.00    +0.159 C 
BRANCH  29  30
ATOM     30  C   UNL     1      -0.051  -4.751   1.468  0.00  0.00    +0.138 C 
ATOM     31  C   UNL     1      -0.002  -6.295   1.470  0.00  0.00    +0.035 C 
ATOM     32  C   UNL     1      -0.978  -6.654   2.623  0.00  0.00    +0.031 C 
ATOM     33  C   UNL     1      -2.024  -5.519   2.487  0.00  0.00    +0.160 C 
ATOM     34  O   UNL     1      -1.269  -4.356   2.110  0.00  0.00    -0.375 OA
ENDBRANCH  29  30
ENDBRANCH  11  29
TORSDOF 7
