REMARK  Name = ZINC08326737
REMARK  4 active torsions:
REMARK  status: ('A' for Active; 'I' for Inactive)
REMARK    1  A    between atoms: C_9  and  N_11
REMARK    2  A    between atoms: C_12  and  C_14
REMARK    3  A    between atoms: C_14  and  C_15
REMARK    4  A    between atoms: C_15  and  N_16
REMARK                            x       y       z     vdW  Elec       q    Type
REMARK                         _______ _______ _______ _____ _____    ______ ____
ROOT
ATOM      1  C   UNL     1       6.104   2.146   0.169  0.00  0.00    +0.115 C 
ENDROOT
BRANCH   1   3
ATOM      2  N   UNL     1       3.638   2.088  -0.022  0.00  0.00    -0.284 N 
ATOM      3  C   UNL     1       4.796   1.404   0.065  0.00  0.00    +0.219 C 
ATOM      4  O   UNL     1       4.786   0.191   0.058  0.00  0.00    -0.275 OA
ATOM      5  H   UNL     1       3.651   3.055  -0.098  0.00  0.00    +0.155 HD
BRANCH   2  14
ATOM      6  C   UNL     1       1.121  -0.524   0.621  0.00  0.00    +0.003 A 
ATOM      7  C   UNL     1      -0.001   0.003   0.057  0.00  0.00    +0.010 A 
ATOM      8  C   UNL     1       0.052   1.263  -0.561  0.00  0.00    +0.002 A 
ATOM      9  C   UNL     1      -1.089   1.834  -1.157  0.00  0.00    +0.011 A 
ATOM     10  C   UNL     1      -0.966   3.064  -1.737  0.00  0.00    +0.020 A 
ATOM     11  C   UNL     1       0.267   3.713  -1.735  0.00  0.00    +0.111 A 
ATOM     12  N   UNL     1       1.328   3.176  -1.183  0.00  0.00    -0.253 NA
ATOM     13  C   UNL     1       1.274   1.978  -0.595  0.00  0.00    +0.092 A 
ATOM     14  C   UNL     1       2.420   1.405  -0.003  0.00  0.00    +0.060 A 
ATOM     15  C   UNL     1       2.328   0.167   0.594  0.00  0.00    +0.025 A 
ENDBRANCH   2  14
ENDBRANCH   1   3
BRANCH   1  16
ATOM     16  C   UNL     1       7.255   1.141   0.254  0.00  0.00    +0.127 C 
BRANCH  16  17
ATOM     17  N   UNL     1       8.526   1.863   0.355  0.00  0.00    -0.224 N 
ATOM     18  C   UNL     1       9.098   2.231   1.521  0.00  0.00    +0.247 C 
ATOM     19  O   UNL     1       8.674   2.035   2.640  0.00  0.00    -0.273 OA
ATOM     20  C   UNL     1      10.377   2.938   1.137  0.00  0.00    +0.113 C 
ATOM     21  C   UNL     1      11.584   2.199   1.706  0.00  0.00    +0.035 C 
ATOM     22  C   UNL     1      12.870   2.914   1.283  0.00  0.00    +0.003 C 
ATOM     23  C   UNL     1      12.843   4.355   1.797  0.00  0.00    +0.000 C 
ATOM     24  C   UNL     1      11.642   5.089   1.198  0.00  0.00    +0.003 C 
ATOM     25  C   UNL     1      10.351   4.383   1.621  0.00  0.00    +0.035 C 
ATOM     26  N   UNL     1      10.387   2.886  -0.331  0.00  0.00    -0.285 N 
ATOM     27  C   UNL     1       9.267   2.233  -0.696  0.00  0.00    +0.309 C 
ATOM     28  O   UNL     1       8.962   2.008  -1.851  0.00  0.00    -0.252 OA
ATOM     29  H   UNL     1      11.068   3.246  -0.920  0.00  0.00    +0.151 HD
ENDBRANCH  16  17
ENDBRANCH   1  16
TORSDOF 4
