REMARK  Name = ZINC14480568
REMARK  6 active torsions:
REMARK  status: ('A' for Active; 'I' for Inactive)
REMARK    1  A    between atoms: C_1  and  C_2
REMARK    2  A    between atoms: C_2  and  O_3
REMARK    3  A    between atoms: O_3  and  C_4
REMARK    4  A    between atoms: C_7  and  C_10
REMARK    5  A    between atoms: C_20  and  N_27
REMARK    6  A    between atoms: C_23  and  O_26
REMARK                            x       y       z     vdW  Elec       q    Type
REMARK                         _______ _______ _______ _____ _____    ______ ____
ROOT
ATOM      1  C   UNL     1       2.490   1.045  -0.016  0.00  0.00    +0.105 C 
ATOM      2  C   UNL     1       3.132   1.115   1.371  0.00  0.00    +0.029 C 
ATOM      3  C   UNL     1       2.075   0.645   2.410  0.00  0.00    +0.033 C 
ATOM      4  C   UNL     1       1.239   1.885   2.654  0.00  0.00    -0.030 C 
ATOM      5  C   UNL     1       1.902   2.961   2.313  0.00  0.00    -0.023 C 
ATOM      6  C   UNL     1       3.271   2.595   1.786  0.00  0.00    +0.051 C 
ATOM      7  C   UNL     1       3.637   3.464   0.619  0.00  0.00    +0.014 A 
ATOM      8  C   UNL     1       3.943   4.797   0.869  0.00  0.00    +0.132 A 
ATOM      9  C   UNL     1       4.279   5.648  -0.162  0.00  0.00    +0.037 A 
ATOM     10  C   UNL     1       4.317   5.180  -1.464  0.00  0.00    +0.049 A 
ATOM     11  C   UNL     1       4.017   3.856  -1.724  0.00  0.00    +0.138 A 
ATOM     12  C   UNL     1       3.676   2.991  -0.679  0.00  0.00    +0.076 A 
ATOM     13  N   UNL     1       3.384   1.662  -0.997  0.00  0.00    -0.334 N 
ATOM     14  H   UNL     1       3.741   1.079  -1.859  0.00  0.00    +0.147 HD
ENDROOT
BRANCH   1  18
ATOM     15  C   UNL     1      -1.237   3.137   0.031  0.00  0.00    +0.121 A 
ATOM     16  C   UNL     1      -1.159   1.845   0.529  0.00  0.00    +0.046 A 
ATOM     17  C   UNL     1       0.048   1.173   0.518  0.00  0.00    +0.009 A 
ATOM     18  C   UNL     1       1.176   1.783   0.000  0.00  0.00    -0.027 A 
ATOM     19  C   UNL     1       1.099   3.068  -0.503  0.00  0.00    +0.009 A 
ATOM     20  C   UNL     1      -0.104   3.747  -0.489  0.00  0.00    +0.046 A 
BRANCH  15  21
ATOM     21  O   UNL     1      -2.422   3.802   0.045  0.00  0.00    -0.492 OA
BRANCH  21  23
ATOM     22  C   UNL     1      -4.781   4.013   0.526  0.00  0.00    +0.048 C 
ATOM     23  C   UNL     1      -3.546   3.112   0.595  0.00  0.00    +0.225 C 
ENDBRANCH  21  23
ENDBRANCH  15  21
ENDBRANCH   1  18
BRANCH   8  24
ATOM     24  N   UNL     1       3.907   5.307   2.257  0.00  0.00    +0.057 N 
ATOM     25  O   UNL     1       4.174   6.474   2.484  0.00  0.00    -0.126 OA
ATOM     26  O   UNL     1       3.611   4.561   3.173  0.00  0.00    -0.126 OA
ENDBRANCH   8  24
BRANCH  11  27
ATOM     27  O   UNL     1       4.055   3.392  -3.002  0.00  0.00    -0.505 OA
ATOM     28  H   UNL     1       3.817   2.339  -3.213  0.00  0.00    +0.292 HD
ENDBRANCH  11  27
TORSDOF 5
