REMARK  Name = ZINC20206164
REMARK  7 active torsions:
REMARK  status: ('A' for Active; 'I' for Inactive)
REMARK    1  A    between atoms: C_1  and  C_2
REMARK    2  A    between atoms: C_6  and  C_8
REMARK    3  A    between atoms: C_8  and  O_10
REMARK    4  A    between atoms: O_10  and  C_11
REMARK    5  A    between atoms: C_14  and  C_17
REMARK    6  A    between atoms: C_28  and  S_29
REMARK    7  A    between atoms: S_29  and  C_32
REMARK                            x       y       z     vdW  Elec       q    Type
REMARK                         _______ _______ _______ _____ _____    ______ ____
ROOT
ATOM      1  C   UNL     1      -0.621  -7.097   7.464  0.00  0.00    +0.024 C 
ATOM      2  C   UNL     1      -0.779  -8.464   7.450  0.00  0.00    +0.078 C 
ATOM      3  C   UNL     1      -0.280  -9.326   8.561  0.00  0.00    +0.117 C 
ATOM      4  N   UNL     1      -0.238  -8.940   9.807  0.00  0.00    -0.386 N 
ATOM      5  N   UNL     1       0.140 -10.600   8.128  0.00  0.00    -0.203 N 
ATOM      6  C   UNL     1      -0.370 -11.092   6.945  0.00  0.00    +0.183 C 
ATOM      7  N   UNL     1      -1.149 -10.453   6.101  0.00  0.00    -0.152 NA
ATOM      8  C   UNL     1      -1.462  -9.162   6.332  0.00  0.00    +0.273 C 
ATOM      9  O   UNL     1      -2.281  -8.581   5.639  0.00  0.00    -0.268 OA
ATOM     10  S   UNL     1       0.258 -12.635   6.872  0.00  0.00    +0.049 S 
ATOM     11  N   UNL     1       1.220 -12.602   8.244  0.00  0.00    -0.174 NA
ATOM     12  C   UNL     1       1.005 -11.430   8.757  0.00  0.00    +0.257 C 
ATOM     13  H   UNL     1      -0.451  -8.023  10.038  0.00  0.00    +0.157 HD
ATOM     14  H   UNL     1       0.007  -9.571  10.502  0.00  0.00    +0.157 HD
ENDROOT
BRANCH   1  18
ATOM     15  C   UNL     1      -1.640  -4.813   4.050  0.00  0.00    +0.132 A 
ATOM     16  C   UNL     1      -1.892  -4.308   5.321  0.00  0.00    +0.047 A 
ATOM     17  C   UNL     1      -1.564  -5.043   6.431  0.00  0.00    +0.011 A 
ATOM     18  C   UNL     1      -0.974  -6.306   6.282  0.00  0.00    -0.024 A 
ATOM     19  C   UNL     1      -0.722  -6.810   4.998  0.00  0.00    +0.011 A 
ATOM     20  C   UNL     1      -1.060  -6.067   3.896  0.00  0.00    +0.047 A 
BRANCH  15  21
ATOM     21  O   UNL     1      -1.967  -4.080   2.955  0.00  0.00    -0.422 OA
BRANCH  21  22
ATOM     22  C   UNL     1      -1.166  -3.049   2.621  0.00  0.00    +0.344 C 
ATOM     23  O   UNL     1      -0.238  -2.743   3.342  0.00  0.00    -0.245 OA
BRANCH  22  29
ATOM     24  C   UNL     1       0.061   0.637  -0.509  0.00  0.00    +0.044 C 
ATOM     25  C   UNL     1      -0.830  -0.518  -0.131  0.00  0.00    -0.050 A 
ATOM     26  C   UNL     1      -1.889  -0.869  -0.951  0.00  0.00    +0.003 A 
ATOM     27  C   UNL     1      -2.713  -1.928  -0.611  0.00  0.00    +0.001 A 
ATOM     28  C   UNL     1      -2.484  -2.640   0.548  0.00  0.00    +0.015 A 
ATOM     29  C   UNL     1      -1.417  -2.291   1.379  0.00  0.00    +0.060 A 
ATOM     30  C   UNL     1      -0.587  -1.225   1.027  0.00  0.00    +0.018 A 
ENDBRANCH  22  29
ENDBRANCH  21  22
ENDBRANCH  15  21
ENDBRANCH   1  18
BRANCH  12  31
ATOM     31  S   UNL     1       1.820 -10.930  10.237  0.00  0.00    +0.026 S 
ATOM     32  O   UNL     1       2.966 -11.766  10.320  0.00  0.00    -0.167 OA
ATOM     33  O   UNL     1       1.958  -9.521  10.116  0.00  0.00    -0.167 OA
ATOM     34  C   UNL     1       0.656 -11.332  11.569  0.00  0.00    +0.203 C 
ENDBRANCH  12  31
TORSDOF 5
