REMARK  Name = ZINC40110671
REMARK  13 active torsions:
REMARK  status: ('A' for Active; 'I' for Inactive)
REMARK    1  A    between atoms: C_1  and  C_2
REMARK    2  A    between atoms: C_2  and  C_3
REMARK    3  A    between atoms: C_2  and  C_4
REMARK    4  A    between atoms: C_7  and  C_10
REMARK    5  A    between atoms: C_12  and  C_21
REMARK    6  A    between atoms: N_16  and  C_17
REMARK    7  A    between atoms: C_17  and  C_18
REMARK    8  A    between atoms: C_18  and  O_19
REMARK    9  A    between atoms: C_21  and  C_23
REMARK   10  A    between atoms: C_26  and  S_29
REMARK   11  A    between atoms: S_29  and  N_32
REMARK   12  A    between atoms: N_32  and  C_33
REMARK   13  A    between atoms: N_32  and  C_34
REMARK                            x       y       z     vdW  Elec       q    Type
REMARK                         _______ _______ _______ _____ _____    ______ ____
ROOT
ATOM      1  C   UNL     1       2.688  -1.861  -4.719  0.00  0.00    +0.145 C 
ATOM      2  C   UNL     1       2.458  -3.338  -4.936  0.00  0.00    +0.076 C 
ATOM      3  C   UNL     1       3.675  -3.930  -4.913  0.00  0.00    +0.249 C 
ATOM      4  C   UNL     1       4.712  -2.900  -4.689  0.00  0.00    +0.288 C 
ATOM      5  O   UNL     1       5.905  -3.116  -4.619  0.00  0.00    -0.266 OA
ATOM      6  N   UNL     1       4.138  -1.687  -4.576  0.00  0.00    -0.281 N 
ATOM      7  O   UNL     1       3.906  -5.254  -5.070  0.00  0.00    -0.282 OA
ENDROOT
BRANCH   1  11
ATOM      8  C   UNL     1       0.695  -0.571  -1.168  0.00  0.00    -0.045 A 
ATOM      9  C   UNL     1       0.257  -0.133  -2.404  0.00  0.00    +0.004 A 
ATOM     10  C   UNL     1       0.902  -0.550  -3.553  0.00  0.00    +0.006 A 
ATOM     11  C   UNL     1       1.985  -1.405  -3.466  0.00  0.00    -0.022 A 
ATOM     12  C   UNL     1       2.423  -1.843  -2.230  0.00  0.00    +0.006 A 
ATOM     13  C   UNL     1       1.781  -1.422  -1.081  0.00  0.00    +0.004 A 
BRANCH   8  15
ATOM     14  C   UNL     1       0.059   1.409   0.183  0.00  0.00    +0.012 C 
ATOM     15  C   UNL     1      -0.008  -0.116   0.085  0.00  0.00    +0.013 C 
ATOM     16  C   UNL     1      -1.472  -0.560   0.038  0.00  0.00    +0.012 C 
ENDBRANCH   8  15
ENDBRANCH   1  11
BRANCH   2  17
ATOM     17  C   UNL     1       1.166  -4.003  -5.131  0.00  0.00    +0.195 C 
ATOM     18  O   UNL     1       0.751  -4.784  -4.296  0.00  0.00    -0.287 OA
BRANCH  17  19
ATOM     19  C   UNL     1       0.368  -3.724  -6.344  0.00  0.00    +0.022 A 
ATOM     20  C   UNL     1       0.893  -2.924  -7.361  0.00  0.00    +0.013 A 
ATOM     21  C   UNL     1       0.143  -2.668  -8.490  0.00  0.00    +0.029 A 
ATOM     22  C   UNL     1      -1.128  -3.202  -8.616  0.00  0.00    +0.105 A 
ATOM     23  C   UNL     1      -1.655  -3.995  -7.612  0.00  0.00    +0.029 A 
ATOM     24  C   UNL     1      -0.913  -4.264  -6.480  0.00  0.00    +0.013 A 
BRANCH  22  25
ATOM     25  S   UNL     1      -2.080  -2.869 -10.061  0.00  0.00    +0.060 S 
ATOM     26  O   UNL     1      -3.443  -3.034  -9.696  0.00  0.00    -0.153 OA
ATOM     27  O   UNL     1      -1.579  -1.657 -10.607  0.00  0.00    -0.153 OA
BRANCH  25  28
ATOM     28  N   UNL     1      -1.736  -4.060 -11.159  0.00  0.00    -0.183 NA
ATOM     29  C   UNL     1      -2.534  -5.289 -11.180  0.00  0.00    +0.131 C 
ATOM     30  C   UNL     1      -0.634  -3.885 -12.108  0.00  0.00    +0.131 C 
ENDBRANCH  25  28
ENDBRANCH  22  25
ENDBRANCH  17  19
ENDBRANCH   2  17
BRANCH   6  31
ATOM     31  C   UNL     1       4.836  -0.419  -4.349  0.00  0.00    +0.137 C 
BRANCH  31  32
ATOM     32  C   UNL     1       4.961  -0.168  -2.845  0.00  0.00    +0.175 C 
BRANCH  32  33
ATOM     33  O   UNL     1       5.798  -1.169  -2.263  0.00  0.00    -0.393 OA
ATOM     34  H   UNL     1       5.921  -1.072  -1.309  0.00  0.00    +0.209 HD
ENDBRANCH  32  33
ENDBRANCH  31  32
ENDBRANCH   6  31
TORSDOF 9
