REMARK  Name = ZINC55136815
REMARK  8 active torsions:
REMARK  status: ('A' for Active; 'I' for Inactive)
REMARK    1  A    between atoms: C_1  and  C_2
REMARK    2  A    between atoms: C_7  and  N_19
REMARK    3  A    between atoms: C_9  and  C_11
REMARK    4  A    between atoms: N_13  and  C_14
REMARK    5  A    between atoms: C_14  and  C_15
REMARK    6  A    between atoms: C_15  and  C_16
REMARK    7  A    between atoms: C_15  and  C_17
REMARK    8  A    between atoms: C_15  and  C_18
REMARK                            x       y       z     vdW  Elec       q    Type
REMARK                         _______ _______ _______ _____ _____    ______ ____
ROOT
ATOM      1  C   UNL     1       0.240   1.526   0.248  0.00  0.00    +0.008 C 
ATOM      2  C   UNL     1      -0.058   0.029   0.134  0.00  0.00    -0.004 C 
ATOM      3  C   UNL     1      -1.573  -0.190   0.124  0.00  0.00    +0.004 C 
ATOM      4  C   UNL     1      -2.175   0.353   1.422  0.00  0.00    -0.001 C 
ATOM      5  C   UNL     1      -1.561  -0.381   2.616  0.00  0.00    -0.016 C 
ATOM      6  C   UNL     1      -0.047  -0.162   2.626  0.00  0.00    -0.063 C 
ATOM      7  C   UNL     1       0.555  -0.705   1.328  0.00  0.00    +0.063 C 
ENDROOT
BRANCH   7   8
ATOM      8  C   UNL     1       2.047  -0.489   1.338  0.00  0.00    +0.215 C 
ATOM      9  O   UNL     1       2.517   0.469   1.913  0.00  0.00    -0.276 OA
ATOM     10  N   UNL     1       2.858  -1.361   0.708  0.00  0.00    -0.315 N 
ATOM     11  H   UNL     1       2.479  -2.087   0.186  0.00  0.00    +0.149 HD
BRANCH  10  12
ATOM     12  C   UNL     1       4.312  -1.214   0.809  0.00  0.00    +0.110 C 
BRANCH  12  13
ATOM     13  C   UNL     1       4.994  -2.325   0.008  0.00  0.00    -0.022 C 
ATOM     14  C   UNL     1       4.573  -2.227  -1.460  0.00  0.00    +0.012 C 
ATOM     15  C   UNL     1       6.513  -2.171   0.114  0.00  0.00    +0.012 C 
ATOM     16  C   UNL     1       4.579  -3.687   0.567  0.00  0.00    +0.012 C 
ENDBRANCH  12  13
ENDBRANCH  10  12
ENDBRANCH   7   8
BRANCH   6  17
ATOM     17  N   UNL     1       0.542  -0.867   3.772  0.00  0.00    +0.380 N 
ATOM     18  H   UNL     1       0.423  -1.862   3.652  0.00  0.00    -0.090 HD
ATOM     19  H   UNL     1       1.526  -0.650   3.830  0.00  0.00    -0.090 HD
ATOM     20  H   UNL     1       0.082  -0.573   4.620  0.00  0.00    -0.090 HD
ENDBRANCH   6  17
TORSDOF 4
