REMARK  Name = ZINC22468849
REMARK  7 active torsions:
REMARK  status: ('A' for Active; 'I' for Inactive)
REMARK    1  A    between atoms: C_1  and  C_2
REMARK    2  A    between atoms: C_2  and  C_3
REMARK    3  A    between atoms: C_8  and  N_9
REMARK    4  A    between atoms: C_12  and  C_17
REMARK    5  A    between atoms: C_17  and  S_18
REMARK    6  A    between atoms: S_18  and  C_19
REMARK    7  A    between atoms: C_33  and  C_36
REMARK                            x       y       z     vdW  Elec       q    Type
REMARK                         _______ _______ _______ _____ _____    ______ ____
ROOT
ATOM      1  S   UNL     1       1.402   4.346   0.398  0.00  0.00    -0.084 S 
ENDROOT
BRANCH   1   2
ATOM      2  C   UNL     1       2.860   3.357   0.356  0.00  0.00    +0.147 C 
ATOM      3  N   UNL     1       4.003   3.941   0.096  0.00  0.00    -0.337 N 
ATOM      4  C   UNL     1       5.160   3.240   0.043  0.00  0.00    +0.053 A 
ATOM      5  C   UNL     1       6.380   3.860  -0.240  0.00  0.00    +0.026 A 
ATOM      6  C   UNL     1       7.524   3.114  -0.284  0.00  0.00    +0.002 A 
ATOM      7  C   UNL     1       7.494   1.745  -0.051  0.00  0.00    +0.001 A 
ATOM      8  C   UNL     1       6.315   1.109   0.229  0.00  0.00    +0.015 A 
ATOM      9  C   UNL     1       5.133   1.847   0.280  0.00  0.00    +0.061 A 
ATOM     10  C   UNL     1       3.839   1.218   0.575  0.00  0.00    +0.260 C 
ATOM     11  O   UNL     1       3.752   0.022   0.788  0.00  0.00    -0.269 OA
ATOM     12  N   UNL     1       2.746   2.016   0.602  0.00  0.00    -0.201 N 
ATOM     13  C   UNL     1       1.493   1.466   0.878  0.00  0.00    +0.111 A 
ATOM     14  C   UNL     1       0.664   1.081  -0.170  0.00  0.00    +0.043 A 
ATOM     15  C   UNL     1      -0.576   0.537   0.118  0.00  0.00    +0.008 A 
ATOM     16  C   UNL     1      -0.945   0.396   1.448  0.00  0.00    -0.034 A 
ATOM     17  C   UNL     1      -0.071   0.799   2.439  0.00  0.00    +0.087 A 
ATOM     18  N   UNL     1       1.105   1.315   2.134  0.00  0.00    -0.349 N 
ATOM     19  C   UNL     1      -2.285  -0.191   1.809  0.00  0.00    +0.045 C 
ATOM     20  H   UNL     1       1.769   1.622   2.955  0.00  0.00    +0.167 HD
ATOM     21  H   UNL     1       4.038   5.025  -0.086  0.00  0.00    +0.168 HD
ENDBRANCH   1   2
BRANCH   1  22
ATOM     22  C   UNL     1       2.110   5.967   0.017  0.00  0.00    +0.153 C 
BRANCH  22  26
ATOM     23  N   UNL     1      -1.263   8.448  -2.325  0.00  0.00    -0.283 N 
ATOM     24  C   UNL     1      -0.594   8.177  -1.148  0.00  0.00    +0.224 A 
ATOM     25  N   UNL     1       0.378   7.267  -1.129  0.00  0.00    -0.198 NA
ATOM     26  C   UNL     1       1.015   7.002  -0.002  0.00  0.00    +0.146 A 
ATOM     27  N   UNL     1       0.698   7.646   1.108  0.00  0.00    -0.199 NA
ATOM     28  C   UNL     1      -0.269   8.561   1.095  0.00  0.00    +0.217 A 
ATOM     29  N   UNL     1      -0.915   8.826  -0.035  0.00  0.00    -0.181 NA
ATOM     30  N   UNL     1      -0.600   9.233   2.255  0.00  0.00    -0.327 N 
ATOM     31  H   UNL     1      -0.935   7.981  -3.265  0.00  0.00    +0.155 HD
ATOM     32  H   UNL     1      -1.399   9.989   2.243  0.00  0.00    +0.145 HD
ATOM     33  H   UNL     1      -0.064   9.012   3.190  0.00  0.00    +0.145 HD
BRANCH  23  39
ATOM     34  C   UNL     1      -2.625  10.105  -3.434  0.00  0.00    -0.026 A 
ATOM     35  C   UNL     1      -3.708  10.963  -3.428  0.00  0.00    +0.005 A 
ATOM     36  C   UNL     1      -4.526  11.037  -2.316  0.00  0.00    +0.000 A 
ATOM     37  C   UNL     1      -4.264  10.254  -1.207  0.00  0.00    +0.002 A 
ATOM     38  C   UNL     1      -3.185   9.391  -1.208  0.00  0.00    +0.023 A 
ATOM     39  C   UNL     1      -2.358   9.318  -2.322  0.00  0.00    +0.037 A 
BRANCH  34  41
ATOM     40  C   UNL     1      -2.189   8.868  -5.539  0.00  0.00    +0.009 C 
ATOM     41  C   UNL     1      -1.733  10.025  -4.647  0.00  0.00    +0.033 C 
ENDBRANCH  34  41
ENDBRANCH  23  39
ENDBRANCH  22  26
ENDBRANCH   1  22
TORSDOF 5
