REMARK  Name = ZINC08122782
REMARK  3 active torsions:
REMARK  status: ('A' for Active; 'I' for Inactive)
REMARK    1  A    between atoms: C_6  and  C_7
REMARK    2  A    between atoms: N_9  and  N_10
REMARK    3  A    between atoms: C_11  and  C_13
REMARK                            x       y       z     vdW  Elec       q    Type
REMARK                         _______ _______ _______ _____ _____    ______ ____
ROOT
ATOM      1  C   UNL     1      -1.266  -0.763   0.011  0.00  0.00    +0.260 C 
ATOM      2  O   UNL     1      -2.328  -0.172   0.024  0.00  0.00    -0.269 OA
ATOM      3  N   UNL     1      -1.244  -2.111   0.003  0.00  0.00    -0.230 N 
ATOM      4  H   UNL     1      -0.397  -2.582  -0.008  0.00  0.00    +0.173 HD
ENDROOT
BRANCH   1  10
ATOM      5  C   UNL     1      -0.017   1.392   0.010  0.00  0.00    +0.014 A 
ATOM      6  C   UNL     1       1.169   2.095   0.002  0.00  0.00    +0.021 A 
ATOM      7  C   UNL     1       2.378   1.419  -0.013  0.00  0.00    +0.041 A 
ATOM      8  C   UNL     1       2.403   0.034  -0.022  0.00  0.00    +0.021 A 
ATOM      9  C   UNL     1       1.224  -0.680  -0.014  0.00  0.00    +0.014 A 
ATOM     10  C   UNL     1       0.002  -0.004   0.002  0.00  0.00    +0.038 A 
ATOM     11 CL   UNL     1       3.868   2.310  -0.024  0.00  0.00    -0.084 Cl
ENDBRANCH   1  10
BRANCH   3  12
ATOM     12  N   UNL     1      -2.446  -2.830   0.011  0.00  0.00    -0.229 N 
ATOM     13  C   UNL     1      -2.425  -4.178   0.004  0.00  0.00    +0.276 C 
ATOM     14  O   UNL     1      -1.362  -4.770  -0.010  0.00  0.00    -0.267 OA
ATOM     15  H   UNL     1      -3.294  -2.359   0.022  0.00  0.00    +0.173 HD
BRANCH  13  16
ATOM     16  C   UNL     1      -3.683  -4.931   0.012  0.00  0.00    +0.104 A 
ATOM     17  C   UNL     1      -3.811  -6.304   0.012  0.00  0.00    +0.047 A 
ATOM     18  C   UNL     1      -5.181  -6.590   0.023  0.00  0.00    +0.036 A 
ATOM     19  C   UNL     1      -5.851  -5.412   0.029  0.00  0.00    +0.098 A 
ATOM     20  N   UNL     1      -4.952  -4.397   0.028  0.00  0.00    -0.356 N 
ATOM     21  H   UNL     1      -5.167  -3.451   0.034  0.00  0.00    +0.166 HD
ATOM     22 BR   UNL     1      -5.959  -8.313   0.027  0.00  0.00    -0.049 Br
ENDBRANCH  13  16
ENDBRANCH   3  12
TORSDOF 3
