REMARK  Name = ZINC49128400
REMARK  8 active torsions:
REMARK  status: ('A' for Active; 'I' for Inactive)
REMARK    1  A    between atoms: C_1  and  C_2
REMARK    2  A    between atoms: C_2  and  C_4
REMARK    3  A    between atoms: C_2  and  N_10
REMARK    4  A    between atoms: C_4  and  C_5
REMARK    5  A    between atoms: N_10  and  C_11
REMARK    6  A    between atoms: C_13  and  N_21
REMARK    7  A    between atoms: C_15  and  S_17
REMARK    8  A    between atoms: S_17  and  N_20
REMARK                            x       y       z     vdW  Elec       q    Type
REMARK                         _______ _______ _______ _____ _____    ______ ____
ROOT
ATOM      1  C   UNL     1       2.103  -0.604   1.173  0.00  0.00    +0.031 A 
ATOM      2  C   UNL     1       2.816  -0.253   0.035  0.00  0.00    +0.045 A 
ATOM      3  C   UNL     1       4.198  -0.368   0.024  0.00  0.00    +0.028 A 
ATOM      4  C   UNL     1       4.865  -0.834   1.151  0.00  0.00    +0.051 A 
ATOM      5  C   UNL     1       4.152  -1.183   2.282  0.00  0.00    +0.108 A 
ATOM      6  C   UNL     1       2.775  -1.064   2.298  0.00  0.00    +0.051 A 
ENDROOT
BRANCH   5   7
ATOM      7  S   UNL     1       5.001  -1.774   3.708  0.00  0.00    +0.056 S 
ATOM      8  O   UNL     1       4.065  -2.549   4.446  0.00  0.00    -0.153 OA
ATOM      9  O   UNL     1       6.238  -2.304   3.254  0.00  0.00    -0.153 OA
BRANCH   7  10
ATOM     10  N   UNL     1       5.364  -0.456   4.643  0.00  0.00    -0.204 NA
ATOM     11  H   UNL     1       5.422  -0.546   5.607  0.00  0.00    +0.144 HD
ATOM     12  H   UNL     1       5.520   0.406   4.226  0.00  0.00    +0.144 HD
ENDBRANCH   7  10
ENDBRANCH   5   7
BRANCH   3  13
ATOM     13  N   UNL     1       4.920  -0.016  -1.119  0.00  0.00    -0.358 N 
ATOM     14  H   UNL     1       4.454   0.309  -1.905  0.00  0.00    +0.142 HD
ATOM     15  H   UNL     1       5.886  -0.097  -1.127  0.00  0.00    +0.142 HD
ENDBRANCH   3  13
BRANCH   1  16
ATOM     16  N   UNL     1       0.711  -0.489   1.189  0.00  0.00    -0.341 N 
ATOM     17  H   UNL     1       0.213  -0.731   1.986  0.00  0.00    +0.146 HD
BRANCH  16  19
ATOM     18  C   UNL     1      -0.019   1.526   0.010  0.00  0.00    +0.028 C 
ATOM     19  C   UNL     1       0.002  -0.004   0.002  0.00  0.00    +0.075 C 
BRANCH  19  20
ATOM     20  C   UNL     1      -1.433  -0.534   0.013  0.00  0.00    +0.096 C 
BRANCH  20  21
ATOM     21  C   UNL     1      -1.416  -2.035  -0.119  0.00  0.00    +0.107 A 
ATOM     22  C   UNL     1      -1.369  -2.913   0.898  0.00  0.00    +0.045 A 
ATOM     23  C   UNL     1      -1.369  -4.205   0.324  0.00  0.00    +0.041 A 
ATOM     24  C   UNL     1      -1.417  -4.039  -1.010  0.00  0.00    +0.195 A 
ATOM     25  O   UNL     1      -1.451  -2.722  -1.272  0.00  0.00    -0.468 OA
ENDBRANCH  20  21
ENDBRANCH  19  20
ENDBRANCH  16  19
ENDBRANCH   1  16
TORSDOF 7
