REMARK  Name = ZINC12771157
REMARK  6 active torsions:
REMARK  status: ('A' for Active; 'I' for Inactive)
REMARK    1  A    between atoms: C_3  and  N_14
REMARK    2  A    between atoms: C_5  and  S_7
REMARK    3  A    between atoms: S_7  and  N_10
REMARK    4  A    between atoms: N_10  and  C_11
REMARK    5  A    between atoms: C_15  and  C_17
REMARK    6  A    between atoms: C_22  and  N_23
REMARK                            x       y       z     vdW  Elec       q    Type
REMARK                         _______ _______ _______ _____ _____    ______ ____
ROOT
ATOM      1  C   UNL     1       2.602   3.357   0.020  0.00  0.00    +0.004 A 
ATOM      2  C   UNL     1       2.359   1.998  -0.019  0.00  0.00    +0.023 A 
ATOM      3  C   UNL     1       1.059   1.530  -0.160  0.00  0.00    +0.036 A 
ATOM      4  C   UNL     1       0.008   2.432  -0.266  0.00  0.00    +0.051 A 
ATOM      5  C   UNL     1       0.257   3.789  -0.221  0.00  0.00    +0.107 A 
ATOM      6  C   UNL     1       1.553   4.252  -0.081  0.00  0.00    +0.028 A 
ENDROOT
BRANCH   3   7
ATOM      7  N   UNL     1       0.809   0.155  -0.200  0.00  0.00    -0.281 N 
ATOM      8  C   UNL     1       1.571  -0.690   0.523  0.00  0.00    +0.251 C 
ATOM      9  O   UNL     1       2.413  -0.251   1.282  0.00  0.00    -0.270 OA
ATOM     10  H   UNL     1       0.088  -0.191  -0.748  0.00  0.00    +0.155 HD
BRANCH   8  11
ATOM     11  C   UNL     1       1.383  -2.150   0.393  0.00  0.00    +0.069 A 
ATOM     12  C   UNL     1       1.453  -2.757  -0.862  0.00  0.00    +0.035 A 
ATOM     13  C   UNL     1       1.281  -4.122  -0.976  0.00  0.00    +0.042 A 
ATOM     14  C   UNL     1       1.030  -4.887   0.151  0.00  0.00    +0.022 A 
ATOM     15  C   UNL     1       0.955  -4.290   1.396  0.00  0.00    +0.035 A 
ATOM     16  C   UNL     1       1.130  -2.928   1.524  0.00  0.00    +0.138 A 
ATOM     17 CL   UNL     1       1.373  -4.880  -2.535  0.00  0.00    -0.084 Cl
BRANCH  16  18
ATOM     18  N   UNL     1       1.049  -2.292   2.858  0.00  0.00    +0.057 N 
ATOM     19  O   UNL     1       0.946  -2.981   3.857  0.00  0.00    -0.126 OA
ATOM     20  O   UNL     1       1.084  -1.078   2.957  0.00  0.00    -0.126 OA
ENDBRANCH  16  18
ENDBRANCH   8  11
ENDBRANCH   3   7
BRANCH   5  21
ATOM     21  S   UNL     1      -1.077   4.934  -0.350  0.00  0.00    +0.059 S 
ATOM     22  O   UNL     1      -2.245   4.245   0.074  0.00  0.00    -0.153 OA
ATOM     23  O   UNL     1      -0.638   6.139   0.261  0.00  0.00    -0.153 OA
BRANCH  21  24
ATOM     24  N   UNL     1      -1.282   5.267  -1.960  0.00  0.00    -0.187 NA
ATOM     25  H   UNL     1      -1.119   6.162  -2.294  0.00  0.00    +0.148 HD
BRANCH  24  26
ATOM     26  C   UNL     1      -1.711   4.208  -2.878  0.00  0.00    +0.077 C 
ATOM     27  C   UNL     1      -1.170   4.253  -4.308  0.00  0.00    +0.022 C 
ATOM     28  C   UNL     1      -2.633   4.606  -4.032  0.00  0.00    +0.022 C 
ENDBRANCH  24  26
ENDBRANCH  21  24
ENDBRANCH   5  21
TORSDOF 6
