REMARK  Name = ZINC08891372
REMARK  10 active torsions:
REMARK  status: ('A' for Active; 'I' for Inactive)
REMARK    1  A    between atoms: C_1  and  C_2
REMARK    2  A    between atoms: C_2  and  C_3
REMARK    3  A    between atoms: C_3  and  C_26
REMARK    4  A    between atoms: N_6  and  C_10
REMARK    5  A    between atoms: C_10  and  C_11
REMARK    6  A    between atoms: N_13  and  C_14
REMARK    7  A    between atoms: N_13  and  C_15
REMARK    8  A    between atoms: C_15  and  C_16
REMARK    9  A    between atoms: N_18  and  C_19
REMARK   10  A    between atoms: C_22  and  C_25
REMARK                            x       y       z     vdW  Elec       q    Type
REMARK                         _______ _______ _______ _____ _____    ______ ____
ROOT
ATOM      1  C   UNL     1      -0.094   5.599   0.053  0.00  0.00    +0.138 C 
ATOM      2  C   UNL     1      -0.065   6.134   1.471  0.00  0.00    +0.251 C 
ATOM      3  O   UNL     1      -0.890   5.952   2.340  0.00  0.00    -0.272 OA
ATOM      4  N   UNL     1       1.070   6.855   1.565  0.00  0.00    -0.215 N 
ATOM      5  C   UNL     1       1.754   6.850   0.415  0.00  0.00    +0.310 C 
ATOM      6  O   UNL     1       2.810   7.430   0.255  0.00  0.00    -0.252 OA
ATOM      7  N   UNL     1       1.143   6.131  -0.544  0.00  0.00    -0.281 N 
ATOM      8  H   UNL     1       1.457   5.989  -1.451  0.00  0.00    +0.152 HD
ENDROOT
BRANCH   1   9
ATOM      9  C   UNL     1      -0.078   4.093   0.054  0.00  0.00    -0.015 A 
ATOM     10  C   UNL     1       1.127   3.415   0.040  0.00  0.00    +0.009 A 
ATOM     11  C   UNL     1       1.144   2.033   0.041  0.00  0.00    +0.039 A 
ATOM     12  C   UNL     1      -0.047   1.327   0.057  0.00  0.00    +0.123 A 
ATOM     13  C   UNL     1      -1.254   2.007   0.066  0.00  0.00    +0.039 A 
ATOM     14  C   UNL     1      -1.268   3.389   0.070  0.00  0.00    +0.009 A 
ATOM     15  F   UNL     1      -0.032  -0.024   0.057  0.00  0.00    -0.205 F 
ENDBRANCH   1   9
BRANCH   1  17
ATOM     16  C   UNL     1      -1.252   7.647  -0.789  0.00  0.00    +0.007 C 
ATOM     17  C   UNL     1      -1.323   6.122  -0.694  0.00  0.00    +0.037 C 
ENDBRANCH   1  17
BRANCH   4  18
ATOM     18  C   UNL     1       1.502   7.557   2.776  0.00  0.00    +0.213 C 
BRANCH  18  19
ATOM     19  C   UNL     1       2.352   6.637   3.614  0.00  0.00    +0.234 C 
ATOM     20  O   UNL     1       2.575   5.506   3.236  0.00  0.00    -0.274 OA
ATOM     21  N   UNL     1       2.864   7.071   4.783  0.00  0.00    -0.294 N 
ATOM     22  C   UNL     1       2.594   8.436   5.239  0.00  0.00    +0.132 C 
BRANCH  21  23
ATOM     23  C   UNL     1       3.691   6.176   5.597  0.00  0.00    +0.203 C 
BRANCH  23  24
ATOM     24  C   UNL     1       5.136   6.326   5.198  0.00  0.00    +0.235 C 
ATOM     25  O   UNL     1       5.445   7.103   4.320  0.00  0.00    -0.274 OA
ATOM     26  N   UNL     1       6.085   5.596   5.817  0.00  0.00    -0.284 N 
ATOM     27  H   UNL     1       5.847   5.024   6.564  0.00  0.00    +0.155 HD
BRANCH  26  28
ATOM     28  C   UNL     1       7.413   5.663   5.382  0.00  0.00    +0.033 A 
ATOM     29  C   UNL     1       8.219   4.533   5.432  0.00  0.00    +0.023 A 
ATOM     30  C   UNL     1       9.529   4.601   4.998  0.00  0.00    +0.005 A 
ATOM     31  C   UNL     1      10.040   5.795   4.524  0.00  0.00    -0.050 A 
ATOM     32  C   UNL     1       9.242   6.923   4.477  0.00  0.00    +0.005 A 
ATOM     33  C   UNL     1       7.930   6.860   4.905  0.00  0.00    +0.023 A 
ATOM     34  C   UNL     1      11.471   5.867   4.056  0.00  0.00    +0.044 C 
ENDBRANCH  26  28
ENDBRANCH  23  24
ENDBRANCH  21  23
ENDBRANCH  18  19
ENDBRANCH   4  18
TORSDOF 7
