REMARK  Name = ZINC36159094
REMARK  12 active torsions:
REMARK  status: ('A' for Active; 'I' for Inactive)
REMARK    1  A    between atoms: C_1  and  C_2
REMARK    2  A    between atoms: C_2  and  C_3
REMARK    3  A    between atoms: C_3  and  C_4
REMARK    4  A    between atoms: C_4  and  O_6
REMARK    5  A    between atoms: O_6  and  C_7
REMARK    6  A    between atoms: C_7  and  C_8
REMARK    7  A    between atoms: C_8  and  C_10
REMARK    8  A    between atoms: C_8  and  O_33
REMARK    9  A    between atoms: C_10  and  N_11
REMARK   10  A    between atoms: N_11  and  C_12
REMARK   11  A    between atoms: N_11  and  C_27
REMARK   12  A    between atoms: C_12  and  C_13
REMARK                            x       y       z     vdW  Elec       q    Type
REMARK                         _______ _______ _______ _____ _____    ______ ____
ROOT
ATOM      1  N   UNL     1       2.711  -6.708  -4.555  0.00  0.00    +0.388 N 
ATOM      2  H   UNL     1       3.538  -6.351  -5.010  0.00  0.00    -0.081 HD
ENDROOT
BRANCH   1   3
ATOM      3  C   UNL     1       1.526  -6.360  -5.351  0.00  0.00    -0.068 C 
ATOM      4  C   UNL     1       0.266  -6.820  -4.617  0.00  0.00    -0.015 C 
ATOM      5  C   UNL     1      -0.968  -6.457  -5.445  0.00  0.00    -0.002 C 
ATOM      6  C   UNL     1      -0.890  -7.150  -6.807  0.00  0.00    -0.000 C 
ATOM      7  C   UNL     1       0.371  -6.689  -7.541  0.00  0.00    -0.002 C 
ATOM      8  C   UNL     1       1.605  -7.052  -6.713  0.00  0.00    -0.015 C 
ENDBRANCH   1   3
BRANCH   1   9
ATOM      9  C   UNL     1       2.594  -6.115  -3.216  0.00  0.00    -0.043 C 
BRANCH   9  10
ATOM     10  C   UNL     1       2.686  -4.592  -3.323  0.00  0.00    +0.136 C 
BRANCH  10  11
ATOM     11  O   UNL     1       1.520  -4.089  -3.979  0.00  0.00    -0.390 OA
ATOM     12  H   UNL     1       0.702  -4.220  -3.482  0.00  0.00    +0.210 HD
ENDBRANCH  10  11
BRANCH  10  13
ATOM     13  C   UNL     1       2.783  -3.987  -1.921  0.00  0.00    +0.261 C 
BRANCH  13  14
ATOM     14  O   UNL     1       2.986  -2.576  -2.024  0.00  0.00    -0.462 OA
BRANCH  14  15
ATOM     15  C   UNL     1       3.093  -1.891  -0.875  0.00  0.00    +0.307 C 
ATOM     16  O   UNL     1       3.017  -2.469   0.183  0.00  0.00    -0.251 OA
BRANCH  15  17
ATOM     17  C   UNL     1       3.308  -0.400  -0.904  0.00  0.00    +0.120 C 
BRANCH  17  19
ATOM     18  C   UNL     1       3.614   1.646   0.498  0.00  0.00    +0.004 C 
ATOM     19  C   UNL     1       3.395   0.132   0.528  0.00  0.00    +0.008 C 
ENDBRANCH  17  19
ENDBRANCH  15  17
ENDBRANCH  14  15
ENDBRANCH  13  14
ENDBRANCH  10  13
ENDBRANCH   9  10
ENDBRANCH   1   9
BRANCH   1  20
ATOM     20  C   UNL     1       2.809  -8.169  -4.437  0.00  0.00    -0.003 C 
BRANCH  20  21
ATOM     21  C   UNL     1       3.480  -8.729  -5.665  0.00  0.00    +0.094 A 
ATOM     22  N   UNL     1       3.543 -10.074  -5.835  0.00  0.00    -0.312 N 
ATOM     23  H   UNL     1       3.155 -10.657  -5.163  0.00  0.00    +0.170 HD
ATOM     24  C   UNL     1       4.134 -10.617  -6.917  0.00  0.00    +0.260 A 
ATOM     25  O   UNL     1       4.183 -11.826  -7.056  0.00  0.00    -0.267 OA
ATOM     26  C   UNL     1       4.702  -9.745  -7.901  0.00  0.00    +0.075 A 
ATOM     27  C   UNL     1       5.389 -10.111  -9.149  0.00  0.00    -0.023 A 
ATOM     28  C   UNL     1       5.840  -9.102  -9.913  0.00  0.00    -0.004 A 
ATOM     29  S   UNL     1       5.384  -7.623  -9.037  0.00  0.00    -0.073 S 
ATOM     30  C   UNL     1       4.589  -8.373  -7.640  0.00  0.00    +0.116 A 
ATOM     31  N   UNL     1       3.985  -7.910  -6.548  0.00  0.00    -0.229 NA
ATOM     32  C   UNL     1       6.527  -9.594 -11.158  0.00  0.00    +0.043 C 
ATOM     33  C   UNL     1       6.832 -11.081 -10.870  0.00  0.00    +0.010 C 
ATOM     34  C   UNL     1       5.739 -11.431  -9.841  0.00  0.00    +0.037 C 
ENDBRANCH  20  21
ENDBRANCH   1  20
TORSDOF 11
