REMARK  Name = ZINC20106873
REMARK  6 active torsions:
REMARK  status: ('A' for Active; 'I' for Inactive)
REMARK    1  A    between atoms: C_1  and  C_2
REMARK    2  A    between atoms: C_5  and  N_8
REMARK    3  A    between atoms: C_9  and  C_11
REMARK    4  A    between atoms: N_22  and  C_34
REMARK    5  A    between atoms: C_23  and  C_25
REMARK    6  A    between atoms: N_27  and  C_28
REMARK                            x       y       z     vdW  Elec       q    Type
REMARK                         _______ _______ _______ _____ _____    ______ ____
ROOT
ATOM      1  C   UNL     1       4.864   1.058  -0.252  0.00  0.00    +0.123 C 
ATOM      2  C   UNL     1       4.916   0.240  -1.583  0.00  0.00    +0.155 C 
ATOM      3  C   UNL     1       4.595   1.218  -2.719  0.00  0.00    +0.004 C 
ATOM      4  C   UNL     1       5.662   2.011  -2.875  0.00  0.00    +0.009 C 
ATOM      5  C   UNL     1       6.603   1.548  -1.821  0.00  0.00    +0.127 C 
ATOM      6  C   UNL     1       6.034   2.041  -0.439  0.00  0.00    +0.128 C 
ATOM      7  C   UNL     1       7.214   1.798   0.458  0.00  0.00    +0.224 C 
ATOM      8  O   UNL     1       7.159   1.605   1.654  0.00  0.00    -0.275 OA
ATOM      9  N   UNL     1       8.352   1.829  -0.281  0.00  0.00    -0.283 N 
ATOM     10  C   UNL     1       8.040   1.954  -1.725  0.00  0.00    +0.199 C 
ATOM     11  O   UNL     1       6.375   0.115  -1.747  0.00  0.00    -0.358 OA
ENDROOT
BRANCH   1  13
ATOM     12  N   UNL     1       2.402   1.106  -0.014  0.00  0.00    -0.285 N 
ATOM     13  C   UNL     1       3.556   1.795  -0.123  0.00  0.00    +0.224 C 
ATOM     14  O   UNL     1       3.541   3.008  -0.117  0.00  0.00    -0.275 OA
ATOM     15  H   UNL     1       2.421   0.009   0.058  0.00  0.00    +0.155 HD
BRANCH  12  20
ATOM     16  C   UNL     1      -2.552   3.869   0.076  0.00  0.00    +0.044 C 
ATOM     17  C   UNL     1      -1.236   3.135   0.052  0.00  0.00    -0.050 A 
ATOM     18  C   UNL     1      -1.145   1.902  -0.567  0.00  0.00    +0.005 A 
ATOM     19  C   UNL     1       0.059   1.224  -0.586  0.00  0.00    +0.023 A 
ATOM     20  C   UNL     1       1.181   1.788   0.008  0.00  0.00    +0.033 A 
ATOM     21  C   UNL     1       1.087   3.028   0.625  0.00  0.00    +0.023 A 
ATOM     22  C   UNL     1      -0.121   3.698   0.646  0.00  0.00    +0.005 A 
ENDBRANCH  12  20
ENDBRANCH   1  13
BRANCH  10  23
ATOM     23  C   UNL     1       8.220   3.377  -2.187  0.00  0.00    +0.237 C 
ATOM     24  O   UNL     1       8.312   4.271  -1.373  0.00  0.00    -0.274 OA
ATOM     25  N   UNL     1       8.277   3.656  -3.504  0.00  0.00    -0.311 N 
ATOM     26  H   UNL     1       8.194   2.845  -4.242  0.00  0.00    +0.149 HD
BRANCH  25  27
ATOM     27  C   UNL     1       8.452   5.040  -3.953  0.00  0.00    +0.073 C 
ATOM     28  C   UNL     1       7.089   5.731  -4.016  0.00  0.00    +0.022 C 
ATOM     29  C   UNL     1       7.271   7.176  -4.484  0.00  0.00    +0.002 C 
ATOM     30  C   UNL     1       7.912   7.185  -5.874  0.00  0.00    +0.000 C 
ATOM     31  C   UNL     1       9.275   6.493  -5.811  0.00  0.00    +0.002 C 
ATOM     32  C   UNL     1       9.093   5.048  -5.342  0.00  0.00    +0.022 C 
ENDBRANCH  25  27
ENDBRANCH  10  23
BRANCH   9  33
ATOM     33  C   UNL     1       9.706   1.750   0.274  0.00  0.00    +0.077 C 
ATOM     34  C   UNL     1       9.842   1.420   1.761  0.00  0.00    +0.024 C 
ATOM     35  C   UNL     1      10.129   2.838   1.263  0.00  0.00    +0.024 C 
ENDBRANCH   9  33
TORSDOF 5
