REMARK  Name = ZINC05365273
REMARK  11 active torsions:
REMARK  status: ('A' for Active; 'I' for Inactive)
REMARK    1  A    between atoms: C_1  and  C_2
REMARK    2  A    between atoms: C_5  and  N_9
REMARK    3  A    between atoms: C_6  and  C_8
REMARK    4  A    between atoms: C_10  and  C_12
REMARK    5  A    between atoms: C_12  and  O_13
REMARK    6  A    between atoms: O_13  and  C_14
REMARK    7  A    between atoms: C_14  and  C_16
REMARK    8  A    between atoms: C_16  and  N_17
REMARK    9  A    between atoms: C_22  and  C_29
REMARK   10  A    between atoms: C_25  and  C_27
REMARK   11  A    between atoms: C_25  and  C_28
REMARK                            x       y       z     vdW  Elec       q    Type
REMARK                         _______ _______ _______ _____ _____    ______ ____
ROOT
ATOM      1  C   UNL     1      -2.140  -4.187  -2.950  0.00  0.00    +0.238 C 
ENDROOT
BRANCH   1   2
ATOM      2  N   UNL     1      -2.134  -3.388  -1.723  0.00  0.00    -0.213 N 
ATOM      3  C   UNL     1      -1.130  -2.561  -1.359  0.00  0.00    +0.247 C 
ATOM      4  O   UNL     1      -0.164  -2.271  -2.033  0.00  0.00    -0.273 OA
ATOM      5  C   UNL     1      -1.484  -2.070   0.024  0.00  0.00    +0.113 C 
ATOM      6  C   UNL     1      -1.489  -0.549   0.071  0.00  0.00    +0.038 C 
ATOM      7  C   UNL     1      -0.054  -0.020   0.040  0.00  0.00    -0.011 C 
ATOM      8  C   UNL     1       0.678  -0.525   1.281  0.00  0.00    +0.009 C 
ATOM      9  C   UNL     1       0.749  -2.048   1.290  0.00  0.00    -0.032 C 
ATOM     10  C   UNL     1      -0.610  -2.697   1.091  0.00  0.00    +0.041 C 
ATOM     11  C   UNL     1       1.743  -2.534   0.232  0.00  0.00    +0.011 C 
ATOM     12  C   UNL     1       1.290  -2.486   2.669  0.00  0.00    +0.011 C 
ATOM     13  C   UNL     1      -0.079   1.512   0.054  0.00  0.00    +0.007 C 
ATOM     14  N   UNL     1      -2.871  -2.555   0.207  0.00  0.00    -0.285 N 
ATOM     15  C   UNL     1      -3.131  -3.367  -0.832  0.00  0.00    +0.310 C 
ATOM     16  O   UNL     1      -4.156  -4.011  -0.949  0.00  0.00    -0.252 OA
ATOM     17  H   UNL     1      -3.461  -2.323   0.938  0.00  0.00    +0.151 HD
ENDBRANCH   1   2
BRANCH   1  18
ATOM     18  C   UNL     1      -1.512  -5.530  -2.678  0.00  0.00    +0.326 C 
ATOM     19  O   UNL     1      -1.102  -5.792  -1.573  0.00  0.00    -0.249 OA
BRANCH  18  20
ATOM     20  O   UNL     1      -1.409  -6.434  -3.665  0.00  0.00    -0.454 OA
BRANCH  20  21
ATOM     21  C   UNL     1      -0.794  -7.707  -3.331  0.00  0.00    +0.328 C 
BRANCH  21  23
ATOM     22  N   UNL     1      -0.236  -9.824  -4.481  0.00  0.00    -0.282 N 
ATOM     23  C   UNL     1      -0.765  -8.587  -4.553  0.00  0.00    +0.255 C 
ATOM     24  O   UNL     1      -1.218  -8.182  -5.603  0.00  0.00    -0.272 OA
ATOM     25  H   UNL     1       0.199 -10.119  -3.665  0.00  0.00    +0.155 HD
BRANCH  22  30
ATOM     26  C   UNL     1      -0.546 -13.310  -8.946  0.00  0.00    +0.044 C 
ATOM     27  C   UNL     1      -0.464 -12.384  -7.760  0.00  0.00    -0.050 A 
ATOM     28  C   UNL     1      -1.393 -11.371  -7.609  0.00  0.00    +0.005 A 
ATOM     29  C   UNL     1      -1.320 -10.521  -6.524  0.00  0.00    +0.024 A 
ATOM     30  C   UNL     1      -0.312 -10.684  -5.582  0.00  0.00    +0.036 A 
ATOM     31  C   UNL     1       0.623 -11.698  -5.739  0.00  0.00    -0.029 A 
ATOM     32  C   UNL     1       0.541 -12.549  -6.825  0.00  0.00    +0.008 A 
ATOM     33  C   UNL     1       1.722 -11.875  -4.723  0.00  0.00    +0.045 C 
ENDBRANCH  22  30
ENDBRANCH  21  23
ENDBRANCH  20  21
ENDBRANCH  18  20
ENDBRANCH   1  18
TORSDOF 6
