REMARK  Name = ZINC39606693
REMARK  10 active torsions:
REMARK  status: ('A' for Active; 'I' for Inactive)
REMARK    1  A    between atoms: C_1  and  C_2
REMARK    2  A    between atoms: C_5  and  N_8
REMARK    3  A    between atoms: C_9  and  C_34
REMARK    4  A    between atoms: C_10  and  N_14
REMARK    5  A    between atoms: C_11  and  C_13
REMARK    6  A    between atoms: C_15  and  C_17
REMARK    7  A    between atoms: C_17  and  O_18
REMARK    8  A    between atoms: O_18  and  C_19
REMARK    9  A    between atoms: C_19  and  C_21
REMARK   10  A    between atoms: C_30  and  C_33
REMARK                            x       y       z     vdW  Elec       q    Type
REMARK                         _______ _______ _______ _____ _____    ______ ____
ROOT
ATOM      1  N   UNL     1       1.101  -7.275   1.306  0.00  0.00    -0.280 N 
ATOM      2  C   UNL     1       0.562  -8.506   1.212  0.00  0.00    +0.255 C 
ATOM      3  O   UNL     1      -0.347  -8.712   0.436  0.00  0.00    -0.272 OA
ATOM      4  H   UNL     1       1.875  -7.126   1.871  0.00  0.00    +0.155 HD
ENDROOT
BRANCH   1   7
ATOM      5  N   UNL     1      -0.561  -4.378   0.074  0.00  0.00    -0.235 N 
ATOM      6  C   UNL     1      -0.224  -5.207   1.099  0.00  0.00    +0.063 A 
ATOM      7  C   UNL     1       0.541  -6.204   0.585  0.00  0.00    +0.078 A 
ATOM      8  C   UNL     1       0.673  -5.977  -0.793  0.00  0.00    +0.082 A 
ATOM      9  N   UNL     1       0.011  -4.890  -1.098  0.00  0.00    -0.170 NA
ATOM     10  C   UNL     1       1.443  -6.841  -1.759  0.00  0.00    +0.069 C 
ATOM     11  C   UNL     1      -0.625  -5.046   2.543  0.00  0.00    +0.068 C 
BRANCH   5  16
ATOM     12  C   UNL     1      -3.741   0.306   0.468  0.00  0.00    +0.044 C 
ATOM     13  C   UNL     1      -2.896  -0.938   0.363  0.00  0.00    -0.050 A 
ATOM     14  C   UNL     1      -1.848  -0.987  -0.537  0.00  0.00    +0.005 A 
ATOM     15  C   UNL     1      -1.073  -2.125  -0.636  0.00  0.00    +0.028 A 
ATOM     16  C   UNL     1      -1.346  -3.221   0.171  0.00  0.00    +0.066 A 
ATOM     17  C   UNL     1      -2.398  -3.169   1.075  0.00  0.00    +0.028 A 
ATOM     18  C   UNL     1      -3.167  -2.026   1.173  0.00  0.00    +0.005 A 
ENDBRANCH   5  16
ENDBRANCH   1   7
BRANCH   2  19
ATOM     19  C   UNL     1       1.088  -9.627   2.071  0.00  0.00    +0.328 C 
BRANCH  19  20
ATOM     20  O   UNL     1       0.360 -10.824   1.790  0.00  0.00    -0.452 OA
BRANCH  20  21
ATOM     21  C   UNL     1       0.710 -11.929   2.479  0.00  0.00    +0.340 C 
ATOM     22  O   UNL     1       1.608 -11.876   3.296  0.00  0.00    -0.245 OA
BRANCH  21  23
ATOM     23  C   UNL     1       0.003 -13.200   2.241  0.00  0.00    +0.061 A 
ATOM     24  C   UNL     1      -1.027 -13.260   1.297  0.00  0.00    +0.016 A 
ATOM     25  C   UNL     1      -1.684 -14.450   1.076  0.00  0.00    +0.017 A 
ATOM     26  C   UNL     1      -1.326 -15.585   1.791  0.00  0.00    +0.030 A 
ATOM     27  C   UNL     1      -0.300 -15.539   2.741  0.00  0.00    +0.048 A 
ATOM     28  C   UNL     1       0.366 -14.344   2.956  0.00  0.00    +0.039 A 
ATOM     29  N   UNL     1       0.065 -16.666   3.474  0.00  0.00    -0.284 N 
ATOM     30  C   UNL     1      -0.160 -17.932   3.134  0.00  0.00    +0.230 C 
ATOM     31  O   UNL     1       0.233 -18.804   3.880  0.00  0.00    -0.274 OA
ATOM     32  C   UNL     1      -0.875 -18.343   1.876  0.00  0.00    +0.134 C 
ATOM     33  S   UNL     1      -2.163 -17.113   1.506  0.00  0.00    -0.111 S 
ATOM     34  C   UNL     1      -1.517 -19.718   2.076  0.00  0.00    +0.029 C 
ATOM     35  H   UNL     1       0.528 -16.513   4.312  0.00  0.00    +0.155 HD
ENDBRANCH  21  23
ENDBRANCH  20  21
ENDBRANCH  19  20
ENDBRANCH   2  19
TORSDOF 6
