REMARK  Name = ZINC10339501
REMARK  5 active torsions:
REMARK  status: ('A' for Active; 'I' for Inactive)
REMARK    1  A    between atoms: C_1  and  C_2
REMARK    2  A    between atoms: C_2  and  O_3
REMARK    3  A    between atoms: O_3  and  C_4
REMARK    4  A    between atoms: C_8  and  C_10
REMARK    5  A    between atoms: C_15  and  C_20
REMARK                            x       y       z     vdW  Elec       q    Type
REMARK                         _______ _______ _______ _____ _____    ______ ____
ROOT
ATOM      1  C   UNL     1       2.490   1.044  -0.016  0.00  0.00    +0.176 C 
ATOM      2  C   UNL     1       2.592   0.174   1.217  0.00  0.00    +0.041 C 
ATOM      3  C   UNL     1       2.469  -1.169   1.161  0.00  0.00    +0.020 C 
ATOM      4  C   UNL     1       2.580  -2.011   2.410  0.00  0.00    +0.055 C 
ATOM      5  C   UNL     1       2.078  -1.215   3.615  0.00  0.00    -0.001 C 
ATOM      6  C   UNL     1       2.917   0.062   3.733  0.00  0.00    +0.083 C 
ATOM      7  C   UNL     1       2.823   0.827   2.442  0.00  0.00    +0.163 C 
ATOM      8  O   UNL     1       2.950   2.036   2.457  0.00  0.00    -0.292 OA
ATOM      9  C   UNL     1       2.232  -2.052   4.887  0.00  0.00    +0.008 C 
ATOM     10  N   UNL     1       2.243  -1.826  -0.025  0.00  0.00    -0.287 N 
ATOM     11  C   UNL     1       2.444  -1.129  -1.204  0.00  0.00    +0.218 A 
ATOM     12  N   UNL     1       2.566   0.219  -1.215  0.00  0.00    -0.221 N 
ATOM     13  N   UNL     1       2.765   0.590  -2.546  0.00  0.00    -0.156 NA
ATOM     14  C   UNL     1       2.747  -0.515  -3.251  0.00  0.00    +0.247 A 
ATOM     15  N   UNL     1       2.550  -1.554  -2.433  0.00  0.00    -0.201 NA
ATOM     16  H   UNL     1       1.952  -2.752  -0.035  0.00  0.00    +0.155 HD
ENDROOT
BRANCH   1  21
ATOM     17  C   UNL     1      -0.050   3.842   0.024  0.00  0.00    +0.121 A 
ATOM     18  C   UNL     1      -1.242   3.131   0.031  0.00  0.00    +0.045 A 
ATOM     19  C   UNL     1      -1.220   1.750   0.017  0.00  0.00    +0.004 A 
ATOM     20  C   UNL     1      -0.013   1.076   0.008  0.00  0.00    +0.006 A 
ATOM     21  C   UNL     1       1.176   1.782   0.000  0.00  0.00    -0.015 A 
ATOM     22  C   UNL     1       1.160   3.164   0.008  0.00  0.00    +0.051 A 
BRANCH  17  23
ATOM     23  O   UNL     1      -0.069   5.201   0.031  0.00  0.00    -0.492 OA
BRANCH  23  25
ATOM     24  C   UNL     1      -1.171   7.351   0.053  0.00  0.00    +0.048 C 
ATOM     25  C   UNL     1      -1.350   5.832   0.047  0.00  0.00    +0.225 C 
ENDBRANCH  23  25
ENDBRANCH  17  23
ENDBRANCH   1  21
TORSDOF 3
