REMARK  Name = ZINC51749332
REMARK  6 active torsions:
REMARK  status: ('A' for Active; 'I' for Inactive)
REMARK    1  A    between atoms: C_1  and  C_2
REMARK    2  A    between atoms: C_7  and  C_10
REMARK    3  A    between atoms: N_13  and  CA_14
REMARK    4  A    between atoms: CA_14  and  CB_16
REMARK    5  A    between atoms: CA_14  and  C_23
REMARK    6  A    between atoms: CB_16  and  CG_17
REMARK                            x       y       z     vdW  Elec       q    Type
REMARK                         _______ _______ _______ _____ _____    ______ ____
ROOT
ATOM      1  C   UNK A   0      -0.021   1.528   0.015  0.00  0.00    +0.007 C 
ATOM      2  C   UNK A   0       0.001  -0.002   0.005  0.00  0.00    -0.011 C 
ATOM      3  C   UNK A   0      -1.435  -0.532   0.015  0.00  0.00    +0.022 C 
ATOM      4  C   UNK A   0      -1.410  -2.063  -0.030  0.00  0.00    +0.110 C 
ATOM      5  N   UNK A   0      -0.578  -2.555   1.076  0.00  0.00    -0.283 N 
ATOM      6  C   UNK A   0       0.791  -2.040   1.213  0.00  0.00    +0.075 C 
ATOM      7  C   UNK A   0       0.742  -0.509   1.244  0.00  0.00    +0.025 C 
ATOM      8  C   UNK A   0       1.636  -2.505   0.025  0.00  0.00    +0.028 C 
ATOM      9  C   UNK A   0      -1.061  -3.461   1.949  0.00  0.00    +0.303 C 
ATOM     10  O   UNK A   0      -0.335  -3.929   2.805  0.00  0.00    -0.253 OA
ATOM     11  N   HIS A   1      -2.350  -3.849   1.874  0.00  0.00    -0.286 N 
ATOM     12  H   HIS A   1      -2.910  -3.532   1.147  0.00  0.00    +0.151 HD
ENDROOT
BRANCH  11  13
ATOM     13  CA  HIS A   1      -2.905  -4.748   2.888  0.00  0.00    +0.193 C 
BRANCH  13  14
ATOM     14  C   HIS A   1      -2.604  -6.176   2.513  0.00  0.00    +0.376 C 
ATOM     15  O   HIS A   1      -2.461  -7.018   3.383  0.00  0.00    -0.244 OA
ATOM     16  OXT HIS A   1      -2.503  -6.489   1.339  0.00  0.00    -0.244 OA
ENDBRANCH  13  14
BRANCH  13  17
ATOM     17  CB  HIS A   1      -4.420  -4.550   2.970  0.00  0.00    +0.088 C 
BRANCH  17  18
ATOM     18  CG  HIS A   1      -4.719  -3.158   3.464  0.00  0.00    +0.035 A 
ATOM     19  CD2 HIS A   1      -4.795  -2.040   2.717  0.00  0.00    +0.105 A 
ATOM     20  NE2 HIS A   1      -5.081  -1.015   3.533  0.00  0.00    -0.352 N 
ATOM     21  HD1 HIS A   1      -4.992  -3.374   5.531  0.00  0.00    +0.166 HD
ATOM     22  CE1 HIS A   1      -5.186  -1.455   4.757  0.00  0.00    +0.171 A 
ATOM     23  ND1 HIS A   1      -4.973  -2.788   4.758  0.00  0.00    -0.350 N 
ATOM     24  HE2 HIS A   1      -5.193  -0.092   3.257  0.00  0.00    +0.166 HD
ENDBRANCH  17  18
ENDBRANCH  13  17
ENDBRANCH  11  13
TORSDOF 4
