REMARK  Name = ZINC64677844
REMARK  6 active torsions:
REMARK  status: ('A' for Active; 'I' for Inactive)
REMARK    1  A    between atoms: C_7  and  C_10
REMARK    2  A    between atoms: C_13  and  S_15
REMARK    3  A    between atoms: S_15  and  C_16
REMARK    4  A    between atoms: C_16  and  C_17
REMARK    5  A    between atoms: N_19  and  C_20
REMARK    6  A    between atoms: C_23  and  N_27
REMARK                            x       y       z     vdW  Elec       q    Type
REMARK                         _______ _______ _______ _____ _____    ______ ____
ROOT
ATOM      1  S   UNL     1      -0.304  -6.887  -0.003  0.00  0.00    -0.056 S 
ENDROOT
BRANCH   1   5
ATOM      2  C   UNL     1       0.678  -3.131   0.031  0.00  0.00    +0.248 A 
ATOM      3  N   UNL     1      -0.643  -3.063   0.036  0.00  0.00    -0.107 NA
ATOM      4  N   UNL     1      -1.130  -4.254   0.026  0.00  0.00    -0.101 NA
ATOM      5  C   UNL     1      -0.140  -5.133   0.014  0.00  0.00    +0.278 A 
ATOM      6  O   UNL     1       1.015  -4.443   0.011  0.00  0.00    -0.411 OA
BRANCH   2  13
ATOM      7  C   UNL     1      -0.012   1.352   0.094  0.00  0.00    +0.001 A 
ATOM      8  C   UNL     1       1.168   2.099   0.095  0.00  0.00    +0.002 A 
ATOM      9  C   UNL     1       2.388   1.508   0.078  0.00  0.00    +0.026 A 
ATOM     10  C   UNL     1       2.487   0.093   0.059  0.00  0.00    +0.043 A 
ATOM     11  N   UNL     1       3.534  -0.708   0.040  0.00  0.00    -0.380 N 
ATOM     12  C   UNL     1       3.078  -2.101   0.025  0.00  0.00    +0.154 C 
ATOM     13  C   UNL     1       1.566  -2.046   0.038  0.00  0.00    +0.044 C 
ATOM     14  C   UNL     1       1.240  -0.690   0.059  0.00  0.00    +0.008 A 
ATOM     15  C   UNL     1       0.006  -0.006   0.077  0.00  0.00    +0.010 A 
ATOM     16  H   UNL     1       4.461  -0.420   0.036  0.00  0.00    +0.160 HD
ENDBRANCH   2  13
ENDBRANCH   1   5
BRANCH   1  17
ATOM     17  C   UNL     1      -2.098  -7.159   0.001  0.00  0.00    +0.175 C 
BRANCH  17  18
ATOM     18  C   UNL     1      -2.381  -8.639  -0.012  0.00  0.00    +0.228 C 
ATOM     19  O   UNL     1      -1.464  -9.432  -0.023  0.00  0.00    -0.275 OA
ATOM     20  N   UNL     1      -3.655  -9.082  -0.012  0.00  0.00    -0.284 N 
ATOM     21  H   UNL     1      -4.387  -8.450   0.062  0.00  0.00    +0.155 HD
BRANCH  20  22
ATOM     22  C   UNL     1      -3.919 -10.452  -0.119  0.00  0.00    +0.048 A 
ATOM     23  C   UNL     1      -3.062 -11.374   0.465  0.00  0.00    +0.026 A 
ATOM     24  C   UNL     1      -3.325 -12.725   0.357  0.00  0.00    +0.034 A 
ATOM     25  C   UNL     1      -4.443 -13.161  -0.332  0.00  0.00    +0.127 A 
ATOM     26  C   UNL     1      -5.299 -12.246  -0.915  0.00  0.00    +0.049 A 
ATOM     27  C   UNL     1      -5.044 -10.892  -0.806  0.00  0.00    +0.041 A 
ATOM     28 BR   UNL     1      -6.221  -9.640  -1.597  0.00  0.00    -0.048 Br
BRANCH  25  29
ATOM     29  N   UNL     1      -4.722 -14.610  -0.446  0.00  0.00    +0.056 N 
ATOM     30  O   UNL     1      -3.973 -15.412   0.064  0.00  0.00    -0.126 OA
ATOM     31  O   UNL     1      -5.698 -14.992  -1.048  0.00  0.00    -0.126 OA
ENDBRANCH  25  29
ENDBRANCH  20  22
ENDBRANCH  17  18
ENDBRANCH   1  17
TORSDOF 6
