REMARK  Name = ZINC40028361
REMARK  8 active torsions:
REMARK  status: ('A' for Active; 'I' for Inactive)
REMARK    1  A    between atoms: C_2  and  C_3
REMARK    2  A    between atoms: C_3  and  N_4
REMARK    3  A    between atoms: C_5  and  C_23
REMARK    4  A    between atoms: C_7  and  C_12
REMARK    5  A    between atoms: C_12  and  C_14
REMARK    6  A    between atoms: C_26  and  O_29
REMARK    7  A    between atoms: O_29  and  C_30
REMARK    8  A    between atoms: C_30  and  C_31
REMARK                            x       y       z     vdW  Elec       q    Type
REMARK                         _______ _______ _______ _____ _____    ______ ____
ROOT
ATOM      1  N   UNL     1       1.444  -1.425   1.073  0.00  0.00    -0.280 N 
ATOM      2  C   UNL     1       1.700  -1.317   2.514  0.00  0.00    +0.145 C 
ATOM      3  C   UNL     1       1.501  -2.704   3.081  0.00  0.00    +0.079 C 
ATOM      4  C   UNL     1       1.166  -3.505   2.044  0.00  0.00    +0.249 C 
ATOM      5  C   UNL     1       1.127  -2.704   0.804  0.00  0.00    +0.288 C 
ATOM      6  O   UNL     1       0.853  -3.138  -0.298  0.00  0.00    -0.266 OA
ATOM      7  O   UNL     1       0.902  -4.830   2.130  0.00  0.00    -0.282 OA
ENDROOT
BRANCH   2   8
ATOM      8  C   UNL     1       0.726  -0.354   3.143  0.00  0.00    -0.022 A 
ATOM      9  C   UNL     1      -0.622  -0.442   2.843  0.00  0.00    +0.009 A 
ATOM     10  C   UNL     1      -1.516   0.440   3.418  0.00  0.00    +0.046 A 
ATOM     11  C   UNL     1      -1.063   1.413   4.296  0.00  0.00    +0.121 A 
ATOM     12  C   UNL     1       0.289   1.498   4.595  0.00  0.00    +0.046 A 
ATOM     13  C   UNL     1       1.179   0.611   4.022  0.00  0.00    +0.009 A 
BRANCH  11  14
ATOM     14  O   UNL     1      -1.941   2.282   4.862  0.00  0.00    -0.483 OA
BRANCH  14  15
ATOM     15  C   UNL     1      -1.403   3.258   5.757  0.00  0.00    +0.324 C 
BRANCH  15  16
ATOM     16  C   UNL     1      -2.517   4.126   6.282  0.00  0.00    +0.248 C 
ATOM     17  O   UNL     1      -3.659   3.929   5.926  0.00  0.00    -0.272 OA
ATOM     18  N   UNL     1      -2.244   5.122   7.149  0.00  0.00    -0.327 N 
ATOM     19  H   UNL     1      -1.331   5.280   7.434  0.00  0.00    +0.145 HD
ATOM     20  H   UNL     1      -2.961   5.681   7.487  0.00  0.00    +0.145 HD
ENDBRANCH  15  16
ENDBRANCH  14  15
ENDBRANCH  11  14
ENDBRANCH   2   8
BRANCH   3  21
ATOM     21  C   UNL     1       1.645  -3.103   4.485  0.00  0.00    +0.230 C 
ATOM     22  O   UNL     1       0.682  -3.529   5.099  0.00  0.00    -0.283 OA
BRANCH  21  23
ATOM     23  C   UNL     1       2.949  -2.991   5.151  0.00  0.00    +0.176 A 
ATOM     24  C   UNL     1       3.222  -3.412   6.417  0.00  0.00    +0.061 A 
ATOM     25  C   UNL     1       4.630  -3.099   6.652  0.00  0.00    +0.021 A 
ATOM     26  C   UNL     1       5.499  -3.275   7.732  0.00  0.00    +0.011 A 
ATOM     27  C   UNL     1       6.797  -2.861   7.631  0.00  0.00    +0.001 A 
ATOM     28  C   UNL     1       7.257  -2.267   6.463  0.00  0.00    +0.004 A 
ATOM     29  C   UNL     1       6.416  -2.085   5.387  0.00  0.00    +0.047 A 
ATOM     30  C   UNL     1       5.091  -2.498   5.465  0.00  0.00    +0.136 A 
ATOM     31  O   UNL     1       4.060  -2.459   4.600  0.00  0.00    -0.452 OA
ENDBRANCH  21  23
ENDBRANCH   3  21
BRANCH   1  32
ATOM     32  C   UNL     1       1.516  -0.331   0.101  0.00  0.00    +0.136 C 
BRANCH  32  34
ATOM     33  C   UNL     1       0.059   1.627   0.186  0.00  0.00    +0.005 C 
ATOM     34  C   UNL     1       0.168   0.335  -0.005  0.00  0.00    -0.016 C 
ENDBRANCH  32  34
ENDBRANCH   1  32
TORSDOF 8
