REMARK  Name = ZINC05989413
REMARK  7 active torsions:
REMARK  status: ('A' for Active; 'I' for Inactive)
REMARK    1  A    between atoms: C_1  and  N_2
REMARK    2  A    between atoms: C_6  and  C_8
REMARK    3  A    between atoms: C_8  and  O_9
REMARK    4  A    between atoms: O_9  and  C_10
REMARK    5  A    between atoms: C_10  and  C_12
REMARK    6  A    between atoms: N_14  and  C_24
REMARK    7  A    between atoms: C_16  and  C_17
REMARK                            x       y       z     vdW  Elec       q    Type
REMARK                         _______ _______ _______ _____ _____    ______ ____
ROOT
ATOM      1  C   UNL     1      -0.799   1.631   3.641  0.00  0.00    +0.105 A 
ATOM      2  C   UNL     1      -1.929   2.414   3.766  0.00  0.00    +0.130 A 
ATOM      3  N   UNL     1      -2.175   2.577   5.077  0.00  0.00    -0.238 N 
ATOM      4  N   UNL     1      -1.201   1.909   5.824  0.00  0.00    -0.166 NA
ATOM      5  C   UNL     1      -0.355   1.327   5.005  0.00  0.00    +0.107 A 
ENDROOT
BRANCH   5   6
ATOM      6  C   UNL     1       0.826   0.516   5.388  0.00  0.00    +0.003 A 
ATOM      7  C   UNL     1       1.198  -0.585   4.618  0.00  0.00    +0.011 A 
ATOM      8  C   UNL     1       2.301  -1.333   4.975  0.00  0.00    +0.020 A 
ATOM      9  C   UNL     1       3.032  -0.999   6.102  0.00  0.00    +0.041 A 
ATOM     10  C   UNL     1       2.664   0.091   6.873  0.00  0.00    +0.020 A 
ATOM     11  C   UNL     1       1.565   0.849   6.522  0.00  0.00    +0.011 A 
ATOM     12 CL   UNL     1       4.414  -1.948   6.551  0.00  0.00    -0.084 Cl
ENDBRANCH   5   6
BRANCH   3  13
ATOM     13  C   UNL     1      -3.241   3.310   5.613  0.00  0.00    +0.065 A 
ATOM     14  C   UNL     1      -4.147   3.939   4.769  0.00  0.00    +0.028 A 
ATOM     15  C   UNL     1      -5.201   4.657   5.301  0.00  0.00    +0.002 A 
ATOM     16  C   UNL     1      -5.348   4.759   6.672  0.00  0.00    +0.000 A 
ATOM     17  C   UNL     1      -4.444   4.138   7.515  0.00  0.00    +0.002 A 
ATOM     18  C   UNL     1      -3.392   3.414   6.990  0.00  0.00    +0.028 A 
ENDBRANCH   3  13
BRANCH   1  19
ATOM     19  C   UNL     1      -0.164   1.192   2.389  0.00  0.00    +0.343 C 
ATOM     20  O   UNL     1       0.838   0.505   2.423  0.00  0.00    -0.245 OA
BRANCH  19  21
ATOM     21  O   UNL     1      -0.692   1.554   1.203  0.00  0.00    -0.452 OA
BRANCH  21  22
ATOM     22  C   UNL     1      -0.013   1.086   0.008  0.00  0.00    +0.328 C 
BRANCH  22  28
ATOM     23  C   UNL     1      -1.196   1.891  -5.952  0.00  0.00    +0.129 C 
ATOM     24  N   UNL     1      -0.487   1.406  -4.765  0.00  0.00    -0.302 N 
ATOM     25  C   UNL     1      -0.940   1.719  -3.535  0.00  0.00    +0.306 C 
ATOM     26  O   UNL     1      -1.937   2.403  -3.410  0.00  0.00    -0.252 OA
ATOM     27  N   UNL     1      -0.288   1.272  -2.443  0.00  0.00    -0.237 N 
ATOM     28  C   UNL     1      -0.742   1.585  -1.213  0.00  0.00    +0.258 C 
ATOM     29  O   UNL     1      -1.736   2.268  -1.089  0.00  0.00    -0.272 OA
ATOM     30  H   UNL     1       0.308   0.860  -4.865  0.00  0.00    +0.150 HD
ATOM     31  H   UNL     1       0.507   0.726  -2.543  0.00  0.00    +0.159 HD
ENDBRANCH  22  28
ENDBRANCH  21  22
ENDBRANCH  19  21
ENDBRANCH   1  19
TORSDOF 6
