REMARK  Name = ZINC04425820
REMARK  16 active torsions:
REMARK  status: ('A' for Active; 'I' for Inactive)
REMARK    1  A    between atoms: C_1  and  O_2
REMARK    2  A    between atoms: O_2  and  C_3
REMARK    3  A    between atoms: C_6  and  C_11
REMARK    4  A    between atoms: C_8  and  O_9
REMARK    5  A    between atoms: O_9  and  C_10
REMARK    6  A    between atoms: C_13  and  C_36
REMARK    7  A    between atoms: C_18  and  C_32
REMARK    8  A    between atoms: C_20  and  C_22
REMARK    9  A    between atoms: C_25  and  O_30
REMARK   10  A    between atoms: C_26  and  O_28
REMARK   11  A    between atoms: O_28  and  C_29
REMARK   12  A    between atoms: O_30  and  C_31
REMARK   13  A    between atoms: C_32  and  O_34
REMARK   14  A    between atoms: O_34  and  C_35
REMARK   15  A    between atoms: C_36  and  O_38
REMARK   16  A    between atoms: O_38  and  C_39
REMARK                            x       y       z     vdW  Elec       q    Type
REMARK                         _______ _______ _______ _____ _____    ______ ____
ROOT
ATOM      1  C   UNL     1      -0.866   4.816   2.950  0.00  0.00    -0.004 C 
ATOM      2  C   UNL     1      -1.465   3.453   2.586  0.00  0.00    +0.230 C 
ATOM      3  S   UNL     1      -3.232   3.678   2.218  0.00  0.00    -0.007 S 
ATOM      4  O   UNL     1      -3.354   4.527   1.085  0.00  0.00    -0.173 OA
ATOM      5  O   UNL     1      -3.858   2.402   2.203  0.00  0.00    -0.173 OA
ATOM      6  C   UNL     1      -3.803   4.586   3.687  0.00  0.00    +0.230 C 
ATOM      7  C   UNL     1      -2.885   5.794   3.900  0.00  0.00    -0.004 C 
ATOM      8  N   UNL     1      -1.506   5.341   4.173  0.00  0.00    +0.391 N 
ATOM      9  H   UNL     1      -0.956   6.133   4.525  0.00  0.00    -0.084 HD
ATOM     10  H   UNL     1      -1.531   4.599   4.882  0.00  0.00    -0.084 HD
ENDROOT
BRANCH   1  14
ATOM     11  C   UNL     1       3.325   4.376   3.679  0.00  0.00    +0.161 A 
ATOM     12  C   UNL     1       2.408   4.035   4.661  0.00  0.00    +0.049 A 
ATOM     13  C   UNL     1       1.054   4.184   4.424  0.00  0.00    +0.006 A 
ATOM     14  C   UNL     1       0.611   4.661   3.204  0.00  0.00    -0.055 A 
ATOM     15  C   UNL     1       1.520   5.002   2.220  0.00  0.00    +0.051 A 
ATOM     16  C   UNL     1       2.879   4.861   2.453  0.00  0.00    +0.162 A 
BRANCH  11  18
ATOM     17  C   UNL     1       5.042   3.731   5.192  0.00  0.00    +0.277 C 
ATOM     18  O   UNL     1       4.657   4.235   3.912  0.00  0.00    -0.491 OA
ENDBRANCH  11  18
BRANCH  16  19
ATOM     19  O   UNL     1       3.774   5.197   1.486  0.00  0.00    -0.491 OA
ATOM     20  C   UNL     1       3.244   5.689   0.254  0.00  0.00    +0.277 C 
ENDBRANCH  16  19
ENDBRANCH   1  14
BRANCH   7  21
ATOM     21  C   UNL     1      -2.905   6.662   2.668  0.00  0.00    -0.055 A 
ATOM     22  C   UNL     1      -2.401   6.178   1.476  0.00  0.00    +0.006 A 
ATOM     23  C   UNL     1      -2.422   6.968   0.341  0.00  0.00    +0.049 A 
ATOM     24  C   UNL     1      -2.939   8.252   0.401  0.00  0.00    +0.161 A 
ATOM     25  C   UNL     1      -3.441   8.742   1.603  0.00  0.00    +0.162 A 
ATOM     26  C   UNL     1      -3.422   7.942   2.735  0.00  0.00    +0.051 A 
BRANCH  25  27
ATOM     27  O   UNL     1      -3.950  10.001   1.667  0.00  0.00    -0.491 OA
ATOM     28  C   UNL     1      -4.448  10.436   2.934  0.00  0.00    +0.277 C 
ENDBRANCH  25  27
BRANCH  24  29
ATOM     29  O   UNL     1      -2.956   9.033  -0.712  0.00  0.00    -0.491 OA
ATOM     30  C   UNL     1      -2.424   8.465  -1.911  0.00  0.00    +0.277 C 
ENDBRANCH  24  29
ENDBRANCH   7  21
BRANCH   6  31
ATOM     31  C   UNL     1      -5.218   5.058   3.472  0.00  0.00    +0.330 C 
ATOM     32  O   UNL     1      -5.428   6.089   2.878  0.00  0.00    -0.249 OA
BRANCH  31  33
ATOM     33  O   UNL     1      -6.246   4.332   3.941  0.00  0.00    -0.467 OA
ATOM     34  C   UNL     1      -7.581   4.847   3.698  0.00  0.00    +0.280 C 
ENDBRANCH  31  33
ENDBRANCH   6  31
BRANCH   2  35
ATOM     35  C   UNL     1      -0.762   2.898   1.374  0.00  0.00    +0.330 C 
ATOM     36  O   UNL     1      -0.302   3.649   0.546  0.00  0.00    -0.249 OA
BRANCH  35  37
ATOM     37  O   UNL     1      -0.647   1.571   1.214  0.00  0.00    -0.467 OA
ATOM     38  C   UNL     1       0.042   1.107   0.022  0.00  0.00    +0.280 C 
ENDBRANCH  35  37
ENDBRANCH   2  35
TORSDOF 10
