REMARK  Name = ZINC63820643
REMARK  5 active torsions:
REMARK  status: ('A' for Active; 'I' for Inactive)
REMARK    1  A    between atoms: C_4  and  C_7
REMARK    2  A    between atoms: C_10  and  C_13
REMARK    3  A    between atoms: C_13  and  O_14
REMARK    4  A    between atoms: O_14  and  C_15
REMARK    5  A    between atoms: C_15  and  C_17
REMARK                            x       y       z     vdW  Elec       q    Type
REMARK                         _______ _______ _______ _____ _____    ______ ____
ROOT
ATOM      1  C   UNL     1       5.664  -3.152   1.181  0.00  0.00    +0.300 C 
ENDROOT
BRANCH   1   5
ATOM      2  C   UNL     1       3.697  -0.686  -0.037  0.00  0.00    +0.168 C 
ATOM      3  N   UNL     1       4.853  -0.109  -0.040  0.00  0.00    -0.067 NA
ATOM      4  O   UNL     1       5.896  -1.066  -0.057  0.00  0.00    -0.366 OA
ATOM      5  C   UNL     1       5.266  -2.356  -0.065  0.00  0.00    +0.330 C 
ATOM      6  N   UNL     1       3.825  -2.063  -0.046  0.00  0.00    -0.287 N 
ATOM      7  H   UNL     1       3.103  -2.711  -0.043  0.00  0.00    +0.151 HD
BRANCH   2  11
ATOM      8  C   UNL     1      -0.017   1.379   0.010  0.00  0.00    +0.000 A 
ATOM      9  C   UNL     1       1.169   2.093   0.002  0.00  0.00    +0.001 A 
ATOM     10  C   UNL     1       2.377   1.428  -0.013  0.00  0.00    +0.011 A 
ATOM     11  C   UNL     1       2.403   0.033  -0.021  0.00  0.00    +0.018 A 
ATOM     12  C   UNL     1       1.205  -0.680  -0.013  0.00  0.00    +0.011 A 
ATOM     13  C   UNL     1       0.002  -0.004   0.002  0.00  0.00    +0.001 A 
ENDBRANCH   2  11
ENDBRANCH   1   5
BRANCH   1  14
ATOM     14  O   UNL     1       5.284  -2.426   2.351  0.00  0.00    -0.455 OA
BRANCH  14  15
ATOM     15  C   UNL     1       5.565  -2.993   3.543  0.00  0.00    +0.358 C 
ATOM     16  O   UNL     1       6.118  -4.076   3.585  0.00  0.00    -0.243 OA
BRANCH  15  17
ATOM     17  C   UNL     1       5.205  -2.307   4.783  0.00  0.00    +0.150 A 
ATOM     18  C   UNL     1       5.432  -2.759   6.090  0.00  0.00    +0.034 A 
ATOM     19  C   UNL     1       6.012  -3.885   6.687  0.00  0.00    +0.012 A 
ATOM     20  C   UNL     1       6.053  -3.977   8.044  0.00  0.00    +0.001 A 
ATOM     21  C   UNL     1       5.532  -2.973   8.860  0.00  0.00    +0.002 A 
ATOM     22  C   UNL     1       4.957  -1.857   8.344  0.00  0.00    +0.030 A 
ATOM     23  C   UNL     1       4.880  -1.698   6.945  0.00  0.00    +0.093 A 
ATOM     24  N   UNL     1       4.407  -0.773   6.128  0.00  0.00    -0.173 NA
ATOM     25  N   UNL     1       4.587  -1.098   4.898  0.00  0.00    -0.270 N 
ATOM     26  H   UNL     1       4.314  -0.552   4.145  0.00  0.00    +0.189 HD
ENDBRANCH  15  17
ENDBRANCH  14  15
ENDBRANCH   1  14
TORSDOF 5
