REMARK  Name = ZINC05343215
REMARK  8 active torsions:
REMARK  status: ('A' for Active; 'I' for Inactive)
REMARK    1  A    between atoms: C_1  and  C_2
REMARK    2  A    between atoms: C_5  and  O_29
REMARK    3  A    between atoms: C_6  and  C_8
REMARK    4  A    between atoms: N_16  and  C_26
REMARK    5  A    between atoms: C_17  and  C_19
REMARK    6  A    between atoms: C_23  and  O_25
REMARK    7  A    between atoms: C_26  and  C_27
REMARK    8  A    between atoms: C_27  and  O_28
REMARK                            x       y       z     vdW  Elec       q    Type
REMARK                         _______ _______ _______ _____ _____    ______ ____
ROOT
ATOM      1  C   UNL     1       0.052  -2.841   2.463  0.00  0.00    +0.075 A 
ATOM      2  C   UNL     1       1.054  -3.632   2.928  0.00  0.00    +0.035 A 
ATOM      3  C   UNL     1       0.613  -4.128   4.175  0.00  0.00    +0.153 A 
ATOM      4  N   UNL     1      -0.588  -3.625   4.385  0.00  0.00    -0.168 NA
ATOM      5  N   UNL     1      -0.936  -2.868   3.406  0.00  0.00    -0.276 N 
ATOM      6  H   UNL     1      -1.777  -2.389   3.345  0.00  0.00    +0.189 HD
ATOM      7  C   UNL     1       1.674  -4.994   4.719  0.00  0.00    +0.268 C 
ATOM      8  O   UNL     1       1.613  -5.581   5.782  0.00  0.00    -0.268 OA
ATOM      9  N   UNL     1       2.717  -5.045   3.874  0.00  0.00    -0.283 N 
ATOM     10  C   UNL     1       2.424  -4.212   2.702  0.00  0.00    +0.141 C 
ENDROOT
BRANCH   1  16
ATOM     11  C   UNL     1      -0.018   1.503   0.010  0.00  0.00    +0.044 C 
ATOM     12  C   UNL     1       0.002  -0.004   0.002  0.00  0.00    -0.050 A 
ATOM     13  C   UNL     1       0.006  -0.687  -1.202  0.00  0.00    +0.007 A 
ATOM     14  C   UNL     1       0.024  -2.069  -1.221  0.00  0.00    +0.046 A 
ATOM     15  C   UNL     1       0.040  -2.779  -0.031  0.00  0.00    +0.126 A 
ATOM     16  C   UNL     1       0.036  -2.092   1.188  0.00  0.00    +0.042 A 
ATOM     17  C   UNL     1       0.023  -0.698   1.195  0.00  0.00    +0.017 A 
BRANCH  15  18
ATOM     18  O   UNL     1       0.058  -4.137  -0.049  0.00  0.00    -0.506 OA
ATOM     19  H   UNL     1       0.946  -4.519  -0.058  0.00  0.00    +0.292 HD
ENDBRANCH  15  18
ENDBRANCH   1  16
BRANCH  10  20
ATOM     20  C   UNL     1       3.441  -3.107   2.585  0.00  0.00    -0.019 A 
ATOM     21  C   UNL     1       3.937  -2.501   3.725  0.00  0.00    +0.006 A 
ATOM     22  C   UNL     1       4.871  -1.487   3.621  0.00  0.00    +0.004 A 
ATOM     23  C   UNL     1       5.310  -1.075   2.378  0.00  0.00    +0.045 A 
ATOM     24  C   UNL     1       4.814  -1.681   1.233  0.00  0.00    +0.117 A 
ATOM     25  C   UNL     1       3.881  -2.703   1.340  0.00  0.00    +0.051 A 
BRANCH  24  26
ATOM     26  O   UNL     1       5.244  -1.278   0.008  0.00  0.00    -0.507 OA
ATOM     27  H   UNL     1       6.020  -1.757  -0.313  0.00  0.00    +0.292 HD
ENDBRANCH  24  26
ENDBRANCH  10  20
BRANCH   9  28
ATOM     28  C   UNL     1       3.950  -5.808   4.088  0.00  0.00    +0.137 C 
BRANCH  28  29
ATOM     29  C   UNL     1       3.788  -7.212   3.502  0.00  0.00    +0.175 C 
BRANCH  29  30
ATOM     30  O   UNL     1       3.642  -7.122   2.083  0.00  0.00    -0.393 OA
ATOM     31  H   UNL     1       3.535  -7.976   1.643  0.00  0.00    +0.209 HD
ENDBRANCH  29  30
ENDBRANCH  28  29
ENDBRANCH   9  28
TORSDOF 7
