REMARK  Name = ZINC49095951
REMARK  5 active torsions:
REMARK  status: ('A' for Active; 'I' for Inactive)
REMARK    1  A    between atoms: C_1  and  C_2
REMARK    2  A    between atoms: C_3  and  C_19
REMARK    3  A    between atoms: N_7  and  S_8
REMARK    4  A    between atoms: S_8  and  C_11
REMARK    5  A    between atoms: C_16  and  N_17
REMARK                            x       y       z     vdW  Elec       q    Type
REMARK                         _______ _______ _______ _____ _____    ______ ____
ROOT
ATOM      1  S   UNL     1       3.739  -2.321  -0.031  0.00  0.00    +0.103 S 
ATOM      2  O   UNL     1       3.925  -1.656  -1.273  0.00  0.00    -0.146 OA
ATOM      3  O   UNL     1       3.938  -1.671   1.218  0.00  0.00    -0.146 OA
ENDROOT
BRANCH   1  10
ATOM      4  C   UNL     1      -0.018   1.503   0.010  0.00  0.00    +0.064 C 
ATOM      5  C   UNL     1       0.002  -0.004   0.002  0.00  0.00    +0.025 A 
ATOM      6  C   UNL     1      -1.144  -0.684   0.004  0.00  0.00    +0.009 A 
ATOM      7  S   UNL     1      -0.577  -2.377  -0.009  0.00  0.00    -0.053 S 
ATOM      8  C   UNL     1       1.179  -2.046  -0.016  0.00  0.00    +0.192 A 
ATOM      9  N   UNL     1       1.194  -0.668  -0.013  0.00  0.00    -0.336 N 
ATOM     10  N   UNL     1       2.183  -2.888  -0.026  0.00  0.00    -0.103 NA
ATOM     11  C   UNL     1      -2.557  -0.159   0.016  0.00  0.00    +0.053 C 
ATOM     12  H   UNL     1       2.033  -0.181  -0.019  0.00  0.00    +0.168 HD
ENDBRANCH   1  10
BRANCH   1  13
ATOM     13  C   UNL     1       4.804  -3.724  -0.045  0.00  0.00    +0.134 A 
ATOM     14  C   UNL     1       5.624  -3.959  -1.132  0.00  0.00    +0.046 A 
ATOM     15  C   UNL     1       6.460  -5.060  -1.143  0.00  0.00    +0.020 A 
ATOM     16  C   UNL     1       6.480  -5.929  -0.067  0.00  0.00    +0.017 A 
ATOM     17  C   UNL     1       5.663  -5.700   1.022  0.00  0.00    +0.026 A 
ATOM     18  C   UNL     1       4.826  -4.591   1.040  0.00  0.00    +0.052 A 
ATOM     19 BR   UNL     1       7.579  -5.379  -2.634  0.00  0.00    -0.050 Br
BRANCH  18  20
ATOM     20  N   UNL     1       4.003  -4.352   2.143  0.00  0.00    -0.356 N 
ATOM     21  H   UNL     1       3.416  -3.580   2.153  0.00  0.00    +0.142 HD
ATOM     22  H   UNL     1       4.018  -4.959   2.900  0.00  0.00    +0.142 HD
ENDBRANCH  18  20
ENDBRANCH   1  13
TORSDOF 3
