REMARK  Name = ZINC25493809
REMARK  2 active torsions:
REMARK  status: ('A' for Active; 'I' for Inactive)
REMARK    1  A    between atoms: C_8  and  C_18
REMARK    2  A    between atoms: N_14  and  N_17
REMARK                            x       y       z     vdW  Elec       q    Type
REMARK                         _______ _______ _______ _____ _____    ______ ____
ROOT
ATOM      1  C   UNL     1       6.750  -0.284  -5.396  0.00  0.00    +0.000 A 
ATOM      2  C   UNL     1       6.661  -1.644  -5.633  0.00  0.00    +0.001 A 
ATOM      3  C   UNL     1       5.768  -2.414  -4.914  0.00  0.00    +0.010 A 
ATOM      4  C   UNL     1       4.953  -1.815  -3.958  0.00  0.00    +0.004 A 
ATOM      5  C   UNL     1       5.071  -0.449  -3.698  0.00  0.00    -0.038 A 
ATOM      6  C   UNL     1       5.960   0.311  -4.429  0.00  0.00    +0.004 A 
ATOM      7  C   UNL     1       4.252   0.181  -2.603  0.00  0.00    +0.044 C 
ATOM      8  C   UNL     1       2.870  -0.461  -2.526  0.00  0.00    +0.034 C 
ATOM      9  C   UNL     1       2.983  -1.959  -2.477  0.00  0.00    +0.048 A 
ATOM     10  C   UNL     1       3.976  -2.611  -3.183  0.00  0.00    +0.082 A 
ATOM     11  N   UNL     1       4.045  -3.951  -3.150  0.00  0.00    -0.235 NA
ATOM     12  C   UNL     1       3.202  -4.651  -2.441  0.00  0.00    +0.222 A 
ATOM     13  N   UNL     1       2.227  -4.068  -1.715  0.00  0.00    -0.222 N 
ATOM     14  C   UNL     1       2.085  -2.725  -1.715  0.00  0.00    +0.274 A 
ATOM     15  O   UNL     1       1.198  -2.190  -1.071  0.00  0.00    -0.266 OA
ENDROOT
BRANCH   8  16
ATOM     16  C   UNL     1       2.154   0.032  -1.268  0.00  0.00    -0.003 C 
ATOM     17  C   UNL     1       2.082   1.560  -1.288  0.00  0.00    +0.004 C 
ATOM     18  C   UNL     1       1.366   2.054  -0.029  0.00  0.00    +0.000 C 
ATOM     19  C   UNL     1       2.138   1.595   1.210  0.00  0.00    +0.000 C 
ATOM     20  C   UNL     1       2.210   0.067   1.230  0.00  0.00    +0.000 C 
ATOM     21  C   UNL     1       2.926  -0.426  -0.029  0.00  0.00    +0.004 C 
ENDBRANCH   8  16
BRANCH  13  22
ATOM     22  N   UNL     1       1.378  -4.840  -0.973  0.00  0.00    -0.294 N 
ATOM     23  H   UNL     1       0.582  -4.368  -0.380  0.00  0.00    +0.163 HD
ATOM     24  H   UNL     1       1.492  -5.934  -0.970  0.00  0.00    +0.163 HD
ENDBRANCH  13  22
TORSDOF 2
