REMARK  Name = ZINC63373132
REMARK  7 active torsions:
REMARK  status: ('A' for Active; 'I' for Inactive)
REMARK    1  A    between atoms: C_1  and  C_2
REMARK    2  A    between atoms: C_2  and  C_3
REMARK    3  A    between atoms: C_2  and  C_4
REMARK    4  A    between atoms: C_4  and  C_6
REMARK    5  A    between atoms: C_4  and  N_14
REMARK    6  A    between atoms: N_8  and  C_9
REMARK    7  A    between atoms: C_17  and  C_33
REMARK                            x       y       z     vdW  Elec       q    Type
REMARK                         _______ _______ _______ _____ _____    ______ ____
ROOT
ATOM      1  N   UNL     1      -1.769  -1.917   0.512  0.00  0.00    -0.212 N 
ATOM      2  C   UNL     1      -2.320  -2.291   1.686  0.00  0.00    +0.249 C 
ATOM      3  O   UNL     1      -2.603  -1.577   2.624  0.00  0.00    -0.273 OA
ATOM      4  C   UNL     1      -2.511  -3.788   1.586  0.00  0.00    +0.136 C 
ATOM      5  C   UNL     1      -1.743  -4.505   2.696  0.00  0.00    +0.139 C 
ATOM      6  C   UNL     1      -0.595  -5.259   2.040  0.00  0.00    -0.034 C 
ATOM      7  C   UNL     1       0.516  -4.838   2.639  0.00  0.00    -0.001 A 
ATOM      8  C   UNL     1       1.922  -5.243   2.485  0.00  0.00    +0.010 A 
ATOM      9  C   UNL     1       2.823  -4.587   3.263  0.00  0.00    +0.001 A 
ATOM     10  C   UNL     1       2.470  -3.581   4.167  0.00  0.00    +0.002 A 
ATOM     11  C   UNL     1       1.201  -3.149   4.377  0.00  0.00    +0.026 A 
ATOM     12  C   UNL     1       0.164  -3.767   3.619  0.00  0.00    +0.043 A 
ATOM     13  N   UNL     1      -1.135  -3.562   3.636  0.00  0.00    -0.375 N 
ATOM     14  C   UNL     1      -0.774  -6.219   0.890  0.00  0.00    +0.052 C 
ATOM     15  C   UNL     1      -1.605  -5.487  -0.183  0.00  0.00    +0.115 C 
ATOM     16  N   UNL     1      -1.869  -4.129   0.300  0.00  0.00    -0.269 N 
ATOM     17  C   UNL     1      -1.552  -2.968  -0.290  0.00  0.00    +0.313 C 
ATOM     18  O   UNL     1      -1.115  -2.878  -1.420  0.00  0.00    -0.252 OA
ATOM     19  C   UNL     1      -3.995  -4.162   1.586  0.00  0.00    +0.044 C 
ATOM     20  H   UNL     1      -1.610  -2.905   4.169  0.00  0.00    +0.160 HD
ENDROOT
BRANCH   1  21
ATOM     21  C   UNL     1      -1.454  -0.531   0.157  0.00  0.00    +0.174 C 
BRANCH  21  22
ATOM     22  C   UNL     1      -2.227  -0.140  -1.076  0.00  0.00    +0.235 C 
ATOM     23  O   UNL     1      -2.777  -0.991  -1.742  0.00  0.00    -0.274 OA
ATOM     24  N   UNL     1      -2.307   1.156  -1.438  0.00  0.00    -0.311 N 
ATOM     25  H   UNL     1      -1.911   1.842  -0.878  0.00  0.00    +0.149 HD
BRANCH  24  26
ATOM     26  C   UNL     1      -2.993   1.528  -2.678  0.00  0.00    +0.073 C 
ATOM     27  C   UNL     1      -2.004   1.484  -3.862  0.00  0.00    +0.022 C 
ATOM     28  C   UNL     1      -2.425   2.679  -4.754  0.00  0.00    +0.002 C 
ATOM     29  C   UNL     1      -2.804   3.763  -3.715  0.00  0.00    +0.002 C 
ATOM     30  C   UNL     1      -3.501   2.978  -2.585  0.00  0.00    +0.022 C 
ENDBRANCH  24  26
ENDBRANCH  21  22
BRANCH  21  32
ATOM     31  C   UNL     1       0.398   1.065  -0.361  0.00  0.00    +0.009 C 
ATOM     32  C   UNL     1       0.046  -0.404  -0.120  0.00  0.00    +0.013 C 
ATOM     33  C   UNL     1       0.833  -0.926   1.084  0.00  0.00    +0.009 C 
ENDBRANCH  21  32
ENDBRANCH   1  21
TORSDOF 4
