REMARK  Name = ZINC39939425
REMARK  12 active torsions:
REMARK  status: ('A' for Active; 'I' for Inactive)
REMARK    1  A    between atoms: C_1  and  C_2
REMARK    2  A    between atoms: C_4  and  C_33
REMARK    3  A    between atoms: C_6  and  S_8
REMARK    4  A    between atoms: S_8  and  C_9
REMARK    5  A    between atoms: C_9  and  C_10
REMARK    6  A    between atoms: C_13  and  C_16
REMARK    7  A    between atoms: N_18  and  N_19
REMARK    8  A    between atoms: C_20  and  C_22
REMARK    9  A    between atoms: C_24  and  C_32
REMARK   10  A    between atoms: C_26  and  C_29
REMARK   11  A    between atoms: C_27  and  C_28
REMARK   12  A    between atoms: C_29  and  C_31
REMARK                            x       y       z     vdW  Elec       q    Type
REMARK                         _______ _______ _______ _____ _____    ______ ____
ROOT
ATOM      1  C   UNL     1       0.097  -3.858   9.187  0.00  0.00    +0.260 C 
ATOM      2  O   UNL     1      -0.950  -4.121   9.746  0.00  0.00    -0.269 OA
ATOM      3  N   UNL     1       1.271  -4.109   9.801  0.00  0.00    -0.230 N 
ATOM      4  H   UNL     1       2.106  -3.899   9.354  0.00  0.00    +0.173 HD
ENDROOT
BRANCH   1   8
ATOM      5  C   UNL     1       0.056  -2.148   5.299  0.00  0.00    -0.037 A 
ATOM      6  C   UNL     1      -1.137  -2.447   5.933  0.00  0.00    +0.005 A 
ATOM      7  C   UNL     1      -1.131  -3.003   7.196  0.00  0.00    +0.013 A 
ATOM      8  C   UNL     1       0.083  -3.263   7.834  0.00  0.00    +0.038 A 
ATOM      9  C   UNL     1       1.283  -2.960   7.189  0.00  0.00    +0.013 A 
ATOM     10  C   UNL     1       1.262  -2.409   5.924  0.00  0.00    +0.005 A 
BRANCH   5  11
ATOM     11  C   UNL     1       0.041  -1.542   3.919  0.00  0.00    +0.112 C 
BRANCH  11  12
ATOM     12  S   UNL     1       0.053  -2.864   2.678  0.00  0.00    -0.081 S 
BRANCH  12  18
ATOM     13  C   UNL     1      -0.018   1.503   0.010  0.00  0.00    +0.066 C 
ATOM     14  C   UNL     1       0.002  -0.004   0.002  0.00  0.00    +0.043 A 
ATOM     15  C   UNL     1       0.006  -0.699  -1.198  0.00  0.00    +0.046 A 
ATOM     16  C   UNL     1       0.025  -2.084  -1.161  0.00  0.00    +0.043 A 
ATOM     17  N   UNL     1       0.039  -2.699   0.010  0.00  0.00    -0.227 NA
ATOM     18  C   UNL     1       0.035  -2.005   1.140  0.00  0.00    +0.189 A 
ATOM     19  N   UNL     1       0.022  -0.679   1.139  0.00  0.00    -0.227 NA
ATOM     20  C   UNL     1       0.029  -2.881  -2.440  0.00  0.00    +0.066 C 
ENDBRANCH  12  18
ENDBRANCH  11  12
ENDBRANCH   5  11
ENDBRANCH   1   8
BRANCH   3  21
ATOM     21  N   UNL     1       1.284  -4.673  11.083  0.00  0.00    -0.229 N 
ATOM     22  C   UNL     1       2.458  -4.923  11.697  0.00  0.00    +0.278 C 
ATOM     23  O   UNL     1       3.503  -4.660  11.138  0.00  0.00    -0.267 OA
ATOM     24  H   UNL     1       0.449  -4.882  11.530  0.00  0.00    +0.173 HD
BRANCH  22  25
ATOM     25  C   UNL     1       2.472  -5.521  13.058  0.00  0.00    +0.125 C 
ATOM     26  N   UNL     1       1.412  -5.841  13.731  0.00  0.00    -0.271 NA
ATOM     27  C   UNL     1       1.831  -6.399  15.022  0.00  0.00    +0.137 C 
ATOM     28  C   UNL     1       3.343  -6.362  15.012  0.00  0.00    +0.024 C 
ATOM     29  C   UNL     1       3.691  -5.835  13.817  0.00  0.00    -0.012 C 
ATOM     30  C   UNL     1       5.101  -5.603  13.340  0.00  0.00    +0.046 C 
ATOM     31  C   UNL     1       1.286  -5.545  16.169  0.00  0.00    +0.038 C 
BRANCH  28  32
ATOM     32  C   UNL     1       4.243  -6.809  16.074  0.00  0.00    +0.159 C 
ATOM     33  O   UNL     1       5.444  -6.718  15.929  0.00  0.00    -0.293 OA
ATOM     34  C   UNL     1       3.678  -7.381  17.349  0.00  0.00    +0.091 C 
ENDBRANCH  28  32
ENDBRANCH  22  25
ENDBRANCH   3  21
TORSDOF 7
