REMARK  Name = ZINC18153505
REMARK  6 active torsions:
REMARK  status: ('A' for Active; 'I' for Inactive)
REMARK    1  A    between atoms: C_5  and  C_7
REMARK    2  A    between atoms: N_8  and  N_9
REMARK    3  A    between atoms: C_10  and  S_12
REMARK    4  A    between atoms: S_12  and  C_13
REMARK    5  A    between atoms: N_18  and  C_21
REMARK    6  A    between atoms: C_25  and  N_27
REMARK                            x       y       z     vdW  Elec       q    Type
REMARK                         _______ _______ _______ _____ _____    ______ ____
ROOT
ATOM      1  S   UNL     1       3.464  -6.995  -0.175  0.00  0.00    -0.078 S 
ENDROOT
BRANCH   1   2
ATOM      2  C   UNL     1       5.277  -7.058  -0.161  0.00  0.00    +0.149 C 
ATOM      3  C   UNL     1       5.768  -8.505   0.048  0.00  0.00    +0.120 C 
ATOM      4  C   UNL     1       6.550  -8.800  -1.214  0.00  0.00    +0.228 C 
ATOM      5  O   UNL     1       7.113  -9.845  -1.463  0.00  0.00    -0.275 OA
ATOM      6  N   UNL     1       6.521  -7.725  -2.011  0.00  0.00    -0.209 N 
ATOM      7  C   UNL     1       5.833  -6.684  -1.518  0.00  0.00    +0.240 C 
ATOM      8  O   UNL     1       5.680  -5.615  -2.068  0.00  0.00    -0.274 OA
BRANCH   6   9
ATOM      9  C   UNL     1       7.159  -7.689  -3.259  0.00  0.00    +0.046 A 
ATOM     10  C   UNL     1       8.253  -6.857  -3.458  0.00  0.00    +0.024 A 
ATOM     11  C   UNL     1       8.879  -6.824  -4.688  0.00  0.00    +0.004 A 
ATOM     12  C   UNL     1       8.417  -7.618  -5.722  0.00  0.00    +0.033 A 
ATOM     13  C   UNL     1       7.328  -8.447  -5.528  0.00  0.00    +0.128 A 
ATOM     14  C   UNL     1       6.702  -8.489  -4.297  0.00  0.00    +0.056 A 
BRANCH  13  15
ATOM     15  N   UNL     1       6.837  -9.294  -6.637  0.00  0.00    +0.056 N 
ATOM     16  O   UNL     1       7.388  -9.262  -7.713  0.00  0.00    -0.126 OA
ATOM     17  O   UNL     1       5.885 -10.020  -6.468  0.00  0.00    -0.126 OA
ENDBRANCH  13  15
ENDBRANCH   6   9
ENDBRANCH   1   2
BRANCH   1  19
ATOM     18  N   UNL     1       1.790  -4.855  -0.381  0.00  0.00    -0.217 N 
ATOM     19  C   UNL     1       3.099  -5.279  -0.336  0.00  0.00    +0.146 C 
ATOM     20  N   UNL     1       4.069  -4.410  -0.413  0.00  0.00    -0.380 N 
ATOM     21  H   UNL     1       1.069  -5.501  -0.324  0.00  0.00    +0.176 HD
ATOM     22  H   UNL     1       4.992  -4.708  -0.381  0.00  0.00    +0.158 HD
ATOM     23  H   UNL     1       3.868  -3.465  -0.501  0.00  0.00    +0.158 HD
BRANCH  18  25
ATOM     24  C   UNL     1       0.266  -3.091  -0.552  0.00  0.00    +0.141 C 
ATOM     25  N   UNL     1       1.499  -3.490  -0.509  0.00  0.00    -0.188 NA
BRANCH  24  30
ATOM     26  C   UNL     1      -1.646   0.124  -0.859  0.00  0.00    +0.001 A 
ATOM     27  C   UNL     1      -0.615   1.044  -0.940  0.00  0.00    +0.003 A 
ATOM     28  C   UNL     1       0.702   0.624  -0.895  0.00  0.00    +0.039 A 
ATOM     29  C   UNL     1       0.997  -0.720  -0.769  0.00  0.00    +0.132 A 
ATOM     30  C   UNL     1      -0.040  -1.655  -0.687  0.00  0.00    +0.030 A 
ATOM     31  C   UNL     1      -1.367  -1.221  -0.733  0.00  0.00    +0.012 A 
ATOM     32  F   UNL     1       2.284  -1.130  -0.726  0.00  0.00    -0.205 F 
ENDBRANCH  24  30
ENDBRANCH  18  25
ENDBRANCH   1  19
TORSDOF 6
