REMARK  Name = ZINC59267209
REMARK  4 active torsions:
REMARK  status: ('A' for Active; 'I' for Inactive)
REMARK    1  A    between atoms: C_1  and  O_2
REMARK    2  A    between atoms: O_2  and  C_3
REMARK    3  A    between atoms: C_5  and  N_25
REMARK    4  A    between atoms: C_10  and  C_19
REMARK                            x       y       z     vdW  Elec       q    Type
REMARK                         _______ _______ _______ _____ _____    ______ ____
ROOT
ATOM      1  C   UNL     1      -1.201  -0.638   0.010  0.00  0.00    +0.143 A 
ATOM      2  C   UNL     1      -2.372   0.101   0.019  0.00  0.00    +0.080 A 
ATOM      3  C   UNL     1      -3.592  -0.550   0.026  0.00  0.00    +0.130 A 
ATOM      4  C   UNL     1      -3.645  -1.929   0.015  0.00  0.00    +0.039 A 
ATOM      5  C   UNL     1      -2.478  -2.681   0.002  0.00  0.00    -0.014 A 
ATOM      6  C   UNL     1      -1.255  -2.032   0.003  0.00  0.00    +0.074 A 
ATOM      7  N   UNL     1      -0.070  -2.763   0.021  0.00  0.00    -0.334 N 
ATOM      8  C   UNL     1      -0.029  -4.209   0.050  0.00  0.00    +0.105 C 
ATOM      9  C   UNL     1      -1.288  -4.877  -0.463  0.00  0.00    +0.029 C 
ATOM     10  C   UNL     1      -2.575  -4.169  -0.031  0.00  0.00    +0.049 C 
ATOM     11  C   UNL     1      -2.940  -4.746   1.312  0.00  0.00    -0.023 C 
ATOM     12  C   UNL     1      -2.323  -5.886   1.498  0.00  0.00    -0.030 C 
ATOM     13  C   UNL     1      -1.452  -6.231   0.285  0.00  0.00    +0.033 C 
ATOM     14  H   UNL     1       0.771  -2.279   0.014  0.00  0.00    +0.147 HD
ENDROOT
BRANCH   8  15
ATOM     15  C   UNL     1       0.200  -4.653   1.472  0.00  0.00    -0.024 A 
ATOM     16  C   UNL     1      -0.434  -4.013   2.526  0.00  0.00    +0.023 A 
ATOM     17  C   UNL     1      -0.199  -4.448   3.817  0.00  0.00    +0.083 A 
ATOM     18  N   UNL     1       0.616  -5.458   4.051  0.00  0.00    -0.367 N 
ATOM     19  C   UNL     1       1.235  -6.090   3.073  0.00  0.00    +0.083 A 
ATOM     20  C   UNL     1       1.045  -5.715   1.757  0.00  0.00    +0.023 A 
ATOM     21  H   UNL     1       0.764  -5.743   4.966  0.00  0.00    +0.165 HD
ENDBRANCH   8  15
BRANCH   3  22
ATOM     22  N   UNL     1      -4.846   0.236   0.045  0.00  0.00    +0.057 N 
ATOM     23  O   UNL     1      -4.803   1.444   0.054  0.00  0.00    -0.126 OA
ATOM     24  O   UNL     1      -5.915  -0.331   0.051  0.00  0.00    -0.126 OA
ENDBRANCH   3  22
BRANCH   1  26
ATOM     25  C   UNL     1      -0.017   1.425   0.010  0.00  0.00    +0.277 C 
ATOM     26  O   UNL     1       0.002  -0.004   0.002  0.00  0.00    -0.493 OA
ENDBRANCH   1  26
TORSDOF 3
