REMARK  Name = ZINC23551423
REMARK  8 active torsions:
REMARK  status: ('A' for Active; 'I' for Inactive)
REMARK    1  A    between atoms: C_1  and  C_2
REMARK    2  A    between atoms: C_5  and  N_9
REMARK    3  A    between atoms: C_6  and  C_8
REMARK    4  A    between atoms: C_13  and  C_15
REMARK    5  A    between atoms: C_15  and  O_16
REMARK    6  A    between atoms: O_16  and  C_17
REMARK    7  A    between atoms: C_17  and  C_19
REMARK    8  A    between atoms: C_19  and  C_20
REMARK                            x       y       z     vdW  Elec       q    Type
REMARK                         _______ _______ _______ _____ _____    ______ ____
ROOT
ATOM      1  C   UNL     1      -1.212   3.509   0.061  0.00  0.00    +0.328 C 
ENDROOT
BRANCH   1   6
ATOM      2  N   UNL     1       1.178  -0.662  -0.013  0.00  0.00    -0.269 N 
ATOM      3  C   UNL     1       0.002  -0.004   0.006  0.00  0.00    +0.310 C 
ATOM      4  O   UNL     1      -1.042  -0.625   0.004  0.00  0.00    -0.252 OA
ATOM      5  N   UNL     1      -0.015   1.344   0.026  0.00  0.00    -0.237 N 
ATOM      6  C   UNL     1      -1.192   2.002   0.039  0.00  0.00    +0.258 C 
ATOM      7  O   UNL     1      -2.233   1.382   0.032  0.00  0.00    -0.272 OA
ATOM      8  H   UNL     1       2.121  -0.102  -0.105  0.00  0.00    +0.156 HD
ATOM      9  H   UNL     1       0.930   1.906   0.032  0.00  0.00    +0.159 HD
BRANCH   2  14
ATOM     10  C   UNL     1       1.268  -6.321   0.384  0.00  0.00    +0.044 C 
ATOM     11  C   UNL     1       1.244  -4.817   0.279  0.00  0.00    -0.050 A 
ATOM     12  C   UNL     1       0.175  -4.107   0.793  0.00  0.00    +0.005 A 
ATOM     13  C   UNL     1       0.150  -2.729   0.698  0.00  0.00    +0.024 A 
ATOM     14  C   UNL     1       1.200  -2.058   0.085  0.00  0.00    +0.038 A 
ATOM     15  C   UNL     1       2.270  -2.775  -0.435  0.00  0.00    -0.029 A 
ATOM     16  C   UNL     1       2.292  -4.152  -0.331  0.00  0.00    +0.008 A 
ATOM     17  C   UNL     1       3.408  -2.051  -1.106  0.00  0.00    +0.045 C 
ENDBRANCH   2  14
ENDBRANCH   1   6
BRANCH   1  18
ATOM     18  O   UNL     1      -2.587   3.974   0.072  0.00  0.00    -0.455 OA
BRANCH  18  19
ATOM     19  C   UNL     1      -2.780   5.303   0.092  0.00  0.00    +0.312 C 
ATOM     20  O   UNL     1      -1.832   6.051   0.101  0.00  0.00    -0.250 OA
BRANCH  19  21
ATOM     21  C   UNL     1      -4.180   5.860   0.104  0.00  0.00    +0.159 C 
BRANCH  21  22
ATOM     22  C   UNL     1      -4.121   7.366   0.126  0.00  0.00    +0.009 A 
ATOM     23  C   UNL     1      -4.186   8.158   1.205  0.00  0.00    +0.200 A 
ATOM     24  O   UNL     1      -4.097   9.448   0.839  0.00  0.00    -0.463 OA
ATOM     25  C   UNL     1      -3.980   9.561  -0.500  0.00  0.00    +0.135 A 
ATOM     26  C   UNL     1      -3.988   8.260  -1.030  0.00  0.00    +0.024 A 
ATOM     27  C   UNL     1      -3.880   8.066  -2.405  0.00  0.00    +0.015 A 
ATOM     28  C   UNL     1      -3.766   9.155  -3.245  0.00  0.00    -0.043 A 
ATOM     29  C   UNL     1      -3.757  10.441  -2.724  0.00  0.00    -0.041 A 
ATOM     30  C   UNL     1      -3.864  10.643  -1.361  0.00  0.00    +0.050 A 
ATOM     31  C   UNL     1      -3.622  11.445  -3.849  0.00  0.00    +0.036 C 
ATOM     32  C   UNL     1      -3.990  10.669  -5.131  0.00  0.00    +0.009 C 
ATOM     33  C   UNL     1      -3.637   9.215  -4.753  0.00  0.00    +0.036 C 
ENDBRANCH  21  22
ENDBRANCH  19  21
ENDBRANCH  18  19
ENDBRANCH   1  18
TORSDOF 6
