REMARK  Name = ZINC43460968
REMARK  4 active torsions:
REMARK  status: ('A' for Active; 'I' for Inactive)
REMARK    1  A    between atoms: C_1  and  C_2
REMARK    2  A    between atoms: C_2  and  C_3
REMARK    3  A    between atoms: C_2  and  C_4
REMARK    4  A    between atoms: C_2  and  N_14
REMARK                            x       y       z     vdW  Elec       q    Type
REMARK                         _______ _______ _______ _____ _____    ______ ____
ROOT
ATOM      1  C   UNL     1      -1.412  -0.526   0.013  0.00  0.00    +0.120 A 
ATOM      2  N   UNL     1      -2.481   0.217   0.021  0.00  0.00    -0.213 NA
ATOM      3  C   UNL     1      -3.586  -0.570   0.029  0.00  0.00    +0.180 A 
ATOM      4  C   UNL     1      -3.135  -1.901   0.025  0.00  0.00    +0.111 A 
ATOM      5  N   UNL     1      -1.756  -1.840   0.009  0.00  0.00    -0.230 NA
ATOM      6  C   UNL     1      -4.061  -2.936   0.031  0.00  0.00    +0.048 A 
ATOM      7  C   UNL     1      -5.407  -2.610   0.042  0.00  0.00    +0.038 A 
ATOM      8  C   UNL     1      -5.785  -1.275   0.046  0.00  0.00    +0.128 A 
ATOM      9  N   UNL     1      -4.892  -0.310   0.039  0.00  0.00    -0.233 NA
ATOM     10 BR   UNL     1      -6.719  -3.972   0.051  0.00  0.00    -0.049 Br
ENDROOT
BRANCH   1  12
ATOM     11  C   UNL     1      -0.019   1.526   0.010  0.00  0.00    -0.003 C 
ATOM     12  C   UNL     1       0.002  -0.004   0.002  0.00  0.00    -0.015 C 
ATOM     13  C   UNL     1       0.742  -0.511   1.242  0.00  0.00    -0.003 C 
BRANCH  12  14
ATOM     14  N   UNL     1       0.690  -0.478  -1.207  0.00  0.00    +0.386 N 
ATOM     15  H   UNL     1       1.636  -0.129  -1.214  0.00  0.00    -0.089 HD
ATOM     16  H   UNL     1       0.703  -1.487  -1.212  0.00  0.00    -0.089 HD
ATOM     17  H   UNL     1       0.202  -0.144  -2.024  0.00  0.00    -0.089 HD
ENDBRANCH  12  14
ENDBRANCH   1  12
TORSDOF 2
