REMARK  Name = ZINC64040498
REMARK  5 active torsions:
REMARK  status: ('A' for Active; 'I' for Inactive)
REMARK    1  A    between atoms: C_1  and  C_2
REMARK    2  A    between atoms: N_11  and  C_16
REMARK    3  A    between atoms: C_16  and  C_17
REMARK    4  A    between atoms: N_19  and  C_32
REMARK    5  A    between atoms: C_21  and  C_22
REMARK                            x       y       z     vdW  Elec       q    Type
REMARK                         _______ _______ _______ _____ _____    ______ ____
ROOT
ATOM      1  C   UNL     1       1.520  -3.863   5.532  0.00  0.00    -0.039 C 
ENDROOT
BRANCH   1  11
ATOM      2  C   UNL     1       0.615   2.167   0.647  0.00  0.00    +0.044 C 
ATOM      3  C   UNL     1       0.536   0.672   0.475  0.00  0.00    -0.050 A 
ATOM      4  C   UNL     1       0.557   0.133  -0.819  0.00  0.00    +0.005 A 
ATOM      5  C   UNL     1       0.485  -1.194  -1.054  0.00  0.00    +0.026 A 
ATOM      6  C   UNL     1       0.384  -2.114   0.024  0.00  0.00    +0.043 A 
ATOM      7  N   UNL     1       0.326  -3.427   0.051  0.00  0.00    -0.378 N 
ATOM      8  C   UNL     1       0.132  -3.852   1.432  0.00  0.00    +0.103 C 
ATOM      9  C   UNL     1       1.209  -4.833   1.905  0.00  0.00    +0.010 C 
ATOM     10  C   UNL     1       1.120  -4.936   3.433  0.00  0.00    -0.076 C 
ATOM     11  N   UNL     1       1.456  -3.665   4.078  0.00  0.00    +0.385 N 
ATOM     12  C   UNL     1       0.438  -2.639   3.771  0.00  0.00    -0.044 C 
ATOM     13  C   UNL     1       0.284  -2.591   2.268  0.00  0.00    -0.055 C 
ATOM     14  C   UNL     1       0.369  -1.569   1.405  0.00  0.00    -0.002 A 
ATOM     15  C   UNL     1       0.452  -0.113   1.572  0.00  0.00    +0.013 A 
ATOM     16  H   UNL     1       0.401  -4.013  -0.718  0.00  0.00    +0.160 HD
ATOM     17  H   UNL     1       2.355  -3.351   3.746  0.00  0.00    -0.081 HD
ENDBRANCH   1  11
BRANCH   1  18
ATOM     18  C   UNL     1       2.665  -4.785   5.864  0.00  0.00    -0.019 A 
ATOM     19  C   UNL     1       2.565  -6.094   6.183  0.00  0.00    +0.110 A 
ATOM     20  N   UNL     1       3.811  -6.563   6.410  0.00  0.00    -0.274 N 
ATOM     21  N   UNL     1       4.715  -5.509   6.225  0.00  0.00    -0.171 NA
ATOM     22  C   UNL     1       4.029  -4.436   5.890  0.00  0.00    +0.094 A 
ATOM     23  C   UNL     1       4.157  -7.937   6.784  0.00  0.00    +0.172 C 
BRANCH  22  24
ATOM     24  C   UNL     1       4.594  -3.096   5.597  0.00  0.00    +0.006 A 
ATOM     25  C   UNL     1       3.986  -1.954   6.114  0.00  0.00    +0.014 A 
ATOM     26  C   UNL     1       4.512  -0.708   5.840  0.00  0.00    +0.050 A 
ATOM     27  C   UNL     1       5.646  -0.588   5.048  0.00  0.00    +0.162 A 
ATOM     28  C   UNL     1       6.258  -1.724   4.531  0.00  0.00    +0.163 A 
ATOM     29  C   UNL     1       5.736  -2.977   4.808  0.00  0.00    +0.059 A 
ATOM     30  O   UNL     1       7.375  -1.625   3.760  0.00  0.00    -0.485 OA
ATOM     31  C   UNL     1       7.659  -0.337   3.200  0.00  0.00    +0.270 C 
ATOM     32  C   UNL     1       7.494   0.714   4.306  0.00  0.00    +0.270 C 
ATOM     33  O   UNL     1       6.146   0.651   4.786  0.00  0.00    -0.485 OA
ENDBRANCH  22  24
ENDBRANCH   1  18
TORSDOF 3
