REMARK  Name = ZINC52842860
REMARK  3 active torsions:
REMARK  status: ('A' for Active; 'I' for Inactive)
REMARK    1  A    between atoms: C_3  and  N_8
REMARK    2  A    between atoms: C_12  and  N_20
REMARK    3  A    between atoms: C_16  and  C_17
REMARK                            x       y       z     vdW  Elec       q    Type
REMARK                         _______ _______ _______ _____ _____    ______ ____
ROOT
ATOM      1  N   UNL     1       3.585   2.125  -0.021  0.00  0.00    -0.296 N 
ATOM      2  C   UNL     1       4.038   2.960  -1.029  0.00  0.00    +0.074 A 
ATOM      3  C   UNL     1       3.527   3.350  -2.259  0.00  0.00    +0.030 A 
ATOM      4  C   UNL     1       4.240   4.219  -3.055  0.00  0.00    +0.025 A 
ATOM      5  C   UNL     1       5.474   4.710  -2.634  0.00  0.00    +0.027 A 
ATOM      6  C   UNL     1       5.997   4.331  -1.411  0.00  0.00    +0.052 A 
ATOM      7  C   UNL     1       5.281   3.450  -0.596  0.00  0.00    +0.091 A 
ATOM      8  N   UNL     1       5.520   2.905   0.625  0.00  0.00    -0.232 NA
ATOM      9  C   UNL     1       4.526   2.135   0.964  0.00  0.00    +0.118 A 
ENDROOT
BRANCH   1  12
ATOM     10  C   UNL     1      -0.017   1.378   0.010  0.00  0.00    +0.003 A 
ATOM     11  C   UNL     1       1.169   2.087   0.002  0.00  0.00    +0.026 A 
ATOM     12  C   UNL     1       2.381   1.409  -0.013  0.00  0.00    +0.049 A 
ATOM     13  C   UNL     1       2.397   0.021  -0.021  0.00  0.00    +0.040 A 
ATOM     14  C   UNL     1       1.208  -0.682  -0.013  0.00  0.00    +0.015 A 
ATOM     15  C   UNL     1       0.002  -0.004   0.002  0.00  0.00    +0.014 A 
ATOM     16  I   UNL     1       1.231  -2.777  -0.025  0.00  0.00    -0.044 I 
ENDBRANCH   1  12
BRANCH   9  17
ATOM     17  C   UNL     1       4.433   1.364   2.255  0.00  0.00    +0.056 C 
ATOM     18  C   UNL     1       5.485   1.652   3.328  0.00  0.00    +0.012 C 
ATOM     19  C   UNL     1       5.530   0.338   2.546  0.00  0.00    +0.012 C 
ENDBRANCH   9  17
BRANCH   5  20
ATOM     20  N   UNL     1       6.189   5.592  -3.452  0.00  0.00    -0.358 N 
ATOM     21  H   UNL     1       5.825   5.860  -4.310  0.00  0.00    +0.142 HD
ATOM     22  H   UNL     1       7.048   5.936  -3.161  0.00  0.00    +0.142 HD
ENDBRANCH   5  20
TORSDOF 3
