REMARK  Name = ZINC14477084
REMARK  6 active torsions:
REMARK  status: ('A' for Active; 'I' for Inactive)
REMARK    1  A    between atoms: C_1  and  C_2
REMARK    2  A    between atoms: C_2  and  C_3
REMARK    3  A    between atoms: C_2  and  C_4
REMARK    4  A    between atoms: C_2  and  N_5
REMARK    5  A    between atoms: C_6  and  C_8
REMARK    6  A    between atoms: C_15  and  C_24
REMARK                            x       y       z     vdW  Elec       q    Type
REMARK                         _______ _______ _______ _____ _____    ______ ____
ROOT
ATOM      1  C   UNL     1      -2.884   4.049  -3.728  0.00  0.00    +0.058 A 
ATOM      2  C   UNL     1      -3.830   4.950  -3.242  0.00  0.00    +0.015 A 
ATOM      3  C   UNL     1      -3.902   5.214  -1.892  0.00  0.00    +0.001 A 
ATOM      4  C   UNL     1      -3.029   4.587  -1.019  0.00  0.00    +0.006 A 
ATOM      5  C   UNL     1      -2.084   3.698  -1.482  0.00  0.00    -0.019 A 
ATOM      6  C   UNL     1      -1.995   3.401  -2.845  0.00  0.00    +0.044 A 
ATOM      7  N   UNL     1      -1.091   2.504  -3.390  0.00  0.00    -0.336 N 
ATOM      8  C   UNL     1      -0.109   1.908  -2.470  0.00  0.00    +0.106 C 
ATOM      9  C   UNL     1      -0.830   1.631  -1.168  0.00  0.00    +0.029 C 
ATOM     10  C   UNL     1      -1.144   3.033  -0.558  0.00  0.00    +0.049 C 
ATOM     11  C   UNL     1      -1.465   2.719   0.856  0.00  0.00    -0.023 C 
ATOM     12  C   UNL     1      -0.807   1.618   1.204  0.00  0.00    -0.030 C 
ATOM     13  C   UNL     1      -0.013   1.086   0.008  0.00  0.00    +0.033 C 
ATOM     14  H   UNL     1      -0.636   2.897  -4.200  0.00  0.00    +0.147 HD
ENDROOT
BRANCH   8  15
ATOM     15  C   UNL     1       1.026   2.871  -2.234  0.00  0.00    -0.007 A 
ATOM     16  C   UNL     1       0.840   4.225  -2.444  0.00  0.00    +0.007 A 
ATOM     17  C   UNL     1       1.879   5.109  -2.222  0.00  0.00    +0.002 A 
ATOM     18  C   UNL     1       3.109   4.639  -1.801  0.00  0.00    +0.021 A 
ATOM     19  C   UNL     1       3.299   3.285  -1.597  0.00  0.00    +0.060 A 
ATOM     20  C   UNL     1       2.256   2.400  -1.813  0.00  0.00    +0.064 A 
ATOM     21 CL   UNL     1       2.494   0.699  -1.558  0.00  0.00    -0.082 Cl
ATOM     22 CL   UNL     1       4.844   2.695  -1.068  0.00  0.00    -0.082 Cl
ENDBRANCH   8  15
BRANCH   1  24
ATOM     23  N   UNL     1      -3.660   4.387  -6.021  0.00  0.00    -0.307 N 
ATOM     24  C   UNL     1      -2.813   3.770  -5.174  0.00  0.00    +0.246 C 
ATOM     25  O   UNL     1      -1.990   2.984  -5.602  0.00  0.00    -0.270 OA
ATOM     26  H   UNL     1      -4.317   5.014  -5.680  0.00  0.00    +0.150 HD
BRANCH  23  28
ATOM     27  C   UNL     1      -3.840   2.621  -7.704  0.00  0.00    +0.031 C 
ATOM     28  C   UNL     1      -3.590   4.110  -7.458  0.00  0.00    +0.026 C 
ATOM     29  C   UNL     1      -4.653   4.933  -8.189  0.00  0.00    +0.031 C 
ATOM     30  C   UNL     1      -2.203   4.487  -7.983  0.00  0.00    +0.031 C 
ENDBRANCH  23  28
ENDBRANCH   1  24
TORSDOF 3
