REMARK  Name = ZINC35486844
REMARK  11 active torsions:
REMARK  status: ('A' for Active; 'I' for Inactive)
REMARK    1  A    between atoms: C_1  and  N_2
REMARK    2  A    between atoms: N_2  and  C_3
REMARK    3  A    between atoms: N_2  and  C_4
REMARK    4  A    between atoms: C_4  and  C_5
REMARK    5  A    between atoms: C_5  and  N_6
REMARK    6  A    between atoms: C_7  and  C_23
REMARK    7  A    between atoms: C_26  and  O_31
REMARK    8  A    between atoms: C_27  and  O_29
REMARK    9  A    between atoms: O_29  and  C_30
REMARK   10  A    between atoms: O_31  and  C_32
REMARK   11  A    between atoms: C_32  and  C_33
REMARK                            x       y       z     vdW  Elec       q    Type
REMARK                         _______ _______ _______ _____ _____    ______ ____
ROOT
ATOM      1  N   UNL     1      -2.733  -2.544  -0.111  0.00  0.00    -0.285 N 
ATOM      2  C   UNL     1      -3.499  -2.941   1.081  0.00  0.00    +0.145 C 
ATOM      3  C   UNL     1      -4.833  -3.386   0.578  0.00  0.00    +0.072 A 
ATOM      4  C   UNL     1      -6.011  -3.899   1.286  0.00  0.00    +0.199 A 
ATOM      5  O   UNL     1      -6.121  -3.878   2.499  0.00  0.00    -0.287 OA
ATOM      6  C   UNL     1      -7.055  -4.446   0.384  0.00  0.00    +0.066 A 
ATOM      7  C   UNL     1      -8.141  -5.149   0.906  0.00  0.00    +0.035 A 
ATOM      8  C   UNL     1      -9.098  -5.654   0.053  0.00  0.00    +0.042 A 
ATOM      9  C   UNL     1      -8.979  -5.463  -1.318  0.00  0.00    +0.023 A 
ATOM     10  C   UNL     1      -7.913  -4.770  -1.843  0.00  0.00    +0.048 A 
ATOM     11  C   UNL     1      -6.932  -4.247  -1.001  0.00  0.00    +0.140 A 
ATOM     12  O   UNL     1      -5.899  -3.561  -1.543  0.00  0.00    -0.450 OA
ATOM     13  C   UNL     1      -4.833  -3.249  -0.781  0.00  0.00    +0.199 A 
ATOM     14  C   UNL     1      -3.520  -2.722  -1.192  0.00  0.00    +0.283 C 
ATOM     15  O   UNL     1      -3.193  -2.486  -2.338  0.00  0.00    -0.267 OA
ATOM     16 CL   UNL     1     -10.454  -6.529   0.692  0.00  0.00    -0.084 Cl
ENDROOT
BRANCH   2  17
ATOM     17  C   UNL     1      -2.805  -4.075   1.791  0.00  0.00    -0.019 A 
ATOM     18  C   UNL     1      -2.214  -5.088   1.059  0.00  0.00    +0.009 A 
ATOM     19  C   UNL     1      -1.576  -6.130   1.705  0.00  0.00    +0.050 A 
ATOM     20  C   UNL     1      -1.528  -6.161   3.090  0.00  0.00    +0.162 A 
ATOM     21  C   UNL     1      -2.122  -5.141   3.826  0.00  0.00    +0.162 A 
ATOM     22  C   UNL     1      -2.756  -4.097   3.172  0.00  0.00    +0.055 A 
BRANCH  21  23
ATOM     23  O   UNL     1      -2.078  -5.167   5.185  0.00  0.00    -0.491 OA
ATOM     24  C   UNL     1      -2.709  -4.087   5.876  0.00  0.00    +0.277 C 
ENDBRANCH  21  23
BRANCH  20  25
ATOM     25  O   UNL     1      -0.901  -7.186   3.727  0.00  0.00    -0.484 OA
BRANCH  25  26
ATOM     26  C   UNL     1      -0.313  -8.198   2.907  0.00  0.00    +0.264 C 
BRANCH  26  27
ATOM     27  C   UNL     1       0.330  -9.243   3.781  0.00  0.00    -0.010 A 
ATOM     28  C   UNL     1       1.651  -9.105   4.165  0.00  0.00    +0.007 A 
ATOM     29  C   UNL     1       2.242 -10.063   4.967  0.00  0.00    +0.000 A 
ATOM     30  C   UNL     1       1.511 -11.159   5.386  0.00  0.00    +0.000 A 
ATOM     31  C   UNL     1       0.190 -11.297   5.003  0.00  0.00    +0.000 A 
ATOM     32  C   UNL     1      -0.402 -10.336   4.204  0.00  0.00    +0.007 A 
ENDBRANCH  26  27
ENDBRANCH  25  26
ENDBRANCH  20  25
ENDBRANCH   2  17
BRANCH   1  33
ATOM     33  C   UNL     1      -1.358  -2.037  -0.122  0.00  0.00    +0.090 C 
BRANCH  33  34
ATOM     34  C   UNL     1      -1.376  -0.512   0.012  0.00  0.00    -0.060 C 
BRANCH  34  36
ATOM     35  C   UNL     1      -0.018   1.465   0.010  0.00  0.00    -0.097 C 
ATOM     36  N   UNL     1       0.002  -0.004   0.002  0.00  0.00    +0.377 N 
ATOM     37  C   UNL     1       0.713  -0.491   1.192  0.00  0.00    -0.097 C 
ATOM     38  H   UNL     1       0.474  -0.330  -0.828  0.00  0.00    -0.083 HD
ENDBRANCH  34  36
ENDBRANCH  33  34
ENDBRANCH   1  33
TORSDOF 8
