REMARK  Name = ZINC11322017
REMARK  9 active torsions:
REMARK  status: ('A' for Active; 'I' for Inactive)
REMARK    1  A    between atoms: C_1  and  N_2
REMARK    2  A    between atoms: N_2  and  C_3
REMARK    3  A    between atoms: C_6  and  C_11
REMARK    4  A    between atoms: C_11  and  S_12
REMARK    5  A    between atoms: S_12  and  C_13
REMARK    6  A    between atoms: N_23  and  C_24
REMARK    7  A    between atoms: C_24  and  C_25
REMARK    8  A    between atoms: C_25  and  O_26
REMARK    9  A    between atoms: O_26  and  C_27
REMARK                            x       y       z     vdW  Elec       q    Type
REMARK                         _______ _______ _______ _____ _____    ______ ____
ROOT
ATOM      1  C   UNL     1       5.572   3.341  -1.450  0.00  0.00    +0.173 A 
ATOM      2  N   UNL     1       5.950   3.553  -0.213  0.00  0.00    -0.223 NA
ATOM      3  C   UNL     1       7.087   4.229   0.073  0.00  0.00    +0.080 A 
ATOM      4  C   UNL     1       7.492   4.457   1.391  0.00  0.00    +0.048 A 
ATOM      5  C   UNL     1       8.657   5.150   1.634  0.00  0.00    +0.043 A 
ATOM      6  C   UNL     1       9.434   5.625   0.583  0.00  0.00    +0.021 A 
ATOM      7  C   UNL     1       9.059   5.415  -0.714  0.00  0.00    +0.017 A 
ATOM      8  C   UNL     1       7.884   4.716  -0.988  0.00  0.00    +0.065 A 
ATOM      9  C   UNL     1       7.436   4.464  -2.364  0.00  0.00    +0.262 A 
ATOM     10  O   UNL     1       8.079   4.859  -3.320  0.00  0.00    -0.267 OA
ATOM     11  N   UNL     1       6.285   3.772  -2.531  0.00  0.00    -0.285 N 
ATOM     12 CL   UNL     1       9.161   5.434   3.271  0.00  0.00    -0.083 Cl
ENDROOT
BRANCH   1  13
ATOM     13  S   UNL     1       4.077   2.450  -1.730  0.00  0.00    -0.080 S 
BRANCH  13  14
ATOM     14  C   UNL     1       3.575   2.132  -0.021  0.00  0.00    +0.153 C 
BRANCH  14  20
ATOM     15  C   UNL     1      -0.068  -2.783  -0.011  0.00  0.00    +0.132 C 
ATOM     16  N   UNL     1       1.187  -2.029  -0.020  0.00  0.00    -0.306 N 
ATOM     17  C   UNL     1       2.469  -2.739  -0.036  0.00  0.00    +0.132 C 
ATOM     18  C   UNL     1       1.163  -0.649  -0.013  0.00  0.00    +0.222 A 
ATOM     19  N   UNL     1       2.304   0.037  -0.020  0.00  0.00    -0.198 NA
ATOM     20  C   UNL     1       2.282   1.359  -0.012  0.00  0.00    +0.146 A 
ATOM     21  N   UNL     1       1.129   2.004   0.002  0.00  0.00    -0.199 NA
ATOM     22  C   UNL     1      -0.016   1.325   0.009  0.00  0.00    +0.217 A 
ATOM     23  N   UNL     1       0.002  -0.004   0.002  0.00  0.00    -0.181 NA
ATOM     24  N   UNL     1      -1.220   1.999   0.019  0.00  0.00    -0.327 N 
ATOM     25  H   UNL     1      -2.054   1.503   0.020  0.00  0.00    +0.145 HD
ATOM     26  H   UNL     1      -1.232   2.969   0.024  0.00  0.00    +0.145 HD
ENDBRANCH  14  20
ENDBRANCH  13  14
ENDBRANCH   1  13
BRANCH  11  27
ATOM     27  C   UNL     1       5.797   3.489  -3.883  0.00  0.00    +0.155 C 
BRANCH  27  28
ATOM     28  C   UNL     1       4.888   4.629  -4.347  0.00  0.00    +0.181 C 
BRANCH  28  29
ATOM     29  O   UNL     1       5.654   5.830  -4.465  0.00  0.00    -0.381 OA
ATOM     30  C   UNL     1       4.895   6.963  -4.894  0.00  0.00    +0.194 C 
ENDBRANCH  28  29
ENDBRANCH  27  28
ENDBRANCH  11  27
TORSDOF 6
