REMARK  Name = ZINC65292102
REMARK  8 active torsions:
REMARK  status: ('A' for Active; 'I' for Inactive)
REMARK    1  A    between atoms: C_1  and  C_2
REMARK    2  A    between atoms: C_2  and  C_3
REMARK    3  A    between atoms: C_8  and  S_9
REMARK    4  A    between atoms: S_9  and  N_12
REMARK    5  A    between atoms: N_15  and  C_18
REMARK    6  A    between atoms: C_18  and  C_27
REMARK    7  A    between atoms: N_25  and  C_26
REMARK    8  A    between atoms: C_27  and  C_28
REMARK                            x       y       z     vdW  Elec       q    Type
REMARK                         _______ _______ _______ _____ _____    ______ ____
ROOT
ATOM      1  N   UNL     1      -1.238   1.515  -2.297  0.00  0.00    -0.174 NA
ATOM      2  C   UNL     1      -2.212   2.522  -2.744  0.00  0.00    +0.125 C 
ATOM      3  C   UNL     1      -1.481   3.560  -3.602  0.00  0.00    +0.102 C 
ATOM      4  N   UNL     1      -0.337   4.093  -2.850  0.00  0.00    -0.293 NA
ATOM      5  C   UNL     1       0.645   3.041  -2.557  0.00  0.00    +0.102 C 
ATOM      6  C   UNL     1      -0.002   1.981  -1.651  0.00  0.00    +0.125 C 
ENDROOT
BRANCH   4   7
ATOM      7  C   UNL     1       0.289   5.212  -3.567  0.00  0.00    +0.039 C 
ATOM      8  C   UNL     1       1.534   5.714  -2.799  0.00  0.00    +0.043 C 
ATOM      9  C   UNL     1       2.698   4.987  -3.518  0.00  0.00    +0.111 C 
ATOM     10  N   UNL     1       2.277   4.995  -4.938  0.00  0.00    -0.284 N 
ATOM     11  C   UNL     1       0.824   4.741  -4.932  0.00  0.00    +0.131 C 
ATOM     12  C   UNL     1       3.062   5.194  -6.016  0.00  0.00    +0.302 C 
ATOM     13  O   UNL     1       2.578   5.174  -7.132  0.00  0.00    -0.253 OA
ATOM     14  N   UNL     1       4.381   5.416  -5.857  0.00  0.00    -0.302 N 
ATOM     15  C   UNL     1       5.234   5.633  -7.029  0.00  0.00    +0.129 C 
ATOM     16  H   UNL     1       4.767   5.433  -4.967  0.00  0.00    +0.150 HD
BRANCH   7  17
ATOM     17  C   UNL     1      -0.717   6.350  -3.755  0.00  0.00    +0.020 C 
ATOM     18  C   UNL     1      -0.046   7.505  -4.503  0.00  0.00    +0.006 C 
ENDBRANCH   7  17
ENDBRANCH   4   7
BRANCH   1  19
ATOM     19  S   UNL     1      -1.528  -0.102  -2.510  0.00  0.00    +0.061 S 
ATOM     20  O   UNL     1      -0.275  -0.759  -2.385  0.00  0.00    -0.153 OA
ATOM     21  O   UNL     1      -2.338  -0.220  -3.671  0.00  0.00    -0.153 OA
BRANCH  19  27
ATOM     22  C   UNL     1      -3.156  -1.860  -1.202  0.00  0.00    -0.021 A 
ATOM     23  C   UNL     1      -3.925  -2.283  -0.134  0.00  0.00    +0.005 A 
ATOM     24  C   UNL     1      -4.057  -1.479   0.983  0.00  0.00    +0.000 A 
ATOM     25  C   UNL     1      -3.420  -0.253   1.032  0.00  0.00    +0.002 A 
ATOM     26  C   UNL     1      -2.650   0.169  -0.036  0.00  0.00    +0.029 A 
ATOM     27  C   UNL     1      -2.514  -0.637  -1.151  0.00  0.00    +0.109 A 
BRANCH  22  29
ATOM     28  C   UNL     1      -1.749  -3.590  -2.287  0.00  0.00    +0.009 C 
ATOM     29  C   UNL     1      -3.011  -2.736  -2.420  0.00  0.00    +0.034 C 
ENDBRANCH  22  29
ENDBRANCH  19  27
ENDBRANCH   1  19
TORSDOF 5
