REMARK  Name = ZINC22065365
REMARK  10 active torsions:
REMARK  status: ('A' for Active; 'I' for Inactive)
REMARK    1  A    between atoms: C_1  and  C_2
REMARK    2  A    between atoms: C_2  and  C_3
REMARK    3  A    between atoms: C_2  and  C_4
REMARK    4  A    between atoms: C_2  and  C_5
REMARK    5  A    between atoms: C_5  and  C_6
REMARK    6  A    between atoms: C_5  and  C_7
REMARK    7  A    between atoms: C_5  and  O_33
REMARK    8  A    between atoms: C_13  and  O_31
REMARK    9  A    between atoms: C_26  and  O_29
REMARK   10  A    between atoms: O_31  and  C_32
REMARK                            x       y       z     vdW  Elec       q    Type
REMARK                         _______ _______ _______ _____ _____    ______ ____
ROOT
ATOM      1  C   UNL     1      -1.595   0.044  -0.803  0.00  0.00    +0.057 C 
ATOM      2  C   UNL     1      -0.352   0.860  -1.155  0.00  0.00    +0.015 C 
ATOM      3  C   UNL     1      -0.763   2.114  -1.940  0.00  0.00    -0.028 C 
ATOM      4  C   UNL     1      -1.654   2.978  -1.062  0.00  0.00    +0.009 C 
ATOM      5  C   UNL     1      -2.897   2.171  -0.667  0.00  0.00    +0.039 C 
ATOM      6  C   UNL     1      -2.853   0.768  -1.282  0.00  0.00    +0.112 C 
ATOM      7  C   UNL     1      -2.824   0.886  -2.808  0.00  0.00    +0.217 C 
ATOM      8  C   UNL     1      -1.561   1.669  -3.174  0.00  0.00    +0.042 C 
ATOM      9  C   UNL     1      -1.845   2.804  -4.123  0.00  0.00    -0.003 C 
ATOM     10  C   UNL     1      -0.584   3.610  -4.437  0.00  0.00    -0.081 C 
ATOM     11  N   UNL     1       0.052   4.032  -3.178  0.00  0.00    +0.382 N 
ATOM     12  C   UNL     1       0.490   2.823  -2.440  0.00  0.00    -0.060 C 
ATOM     13  C   UNL     1       1.348   1.956  -3.419  0.00  0.00    +0.020 C 
ATOM     14  C   UNL     1       0.693   0.710  -3.909  0.00  0.00    -0.041 A 
ATOM     15  C   UNL     1      -0.669   0.576  -3.730  0.00  0.00    +0.011 A 
ATOM     16  C   UNL     1      -1.425  -0.559  -3.935  0.00  0.00    +0.166 A 
ATOM     17  C   UNL     1      -0.791  -1.634  -4.575  0.00  0.00    +0.159 A 
ATOM     18  C   UNL     1       0.569  -1.493  -4.844  0.00  0.00    +0.049 A 
ATOM     19  C   UNL     1       1.312  -0.373  -4.501  0.00  0.00    +0.007 A 
ATOM     20  O   UNL     1      -2.667  -0.397  -3.442  0.00  0.00    -0.481 OA
ATOM     21  H   UNL     1       0.920   4.670  -3.401  0.00  0.00    -0.085 HD
ATOM     22  H   UNL     1      -0.672   4.598  -2.573  0.00  0.00    -0.085 HD
ENDROOT
BRANCH   1  23
ATOM     23  C   UNL     1      -1.511  -1.325  -1.481  0.00  0.00    +0.074 C 
ATOM     24  C   UNL     1      -2.910  -1.764  -1.919  0.00  0.00    +0.042 C 
BRANCH  23  26
ATOM     25  C   UNL     1      -1.823  -2.400   0.753  0.00  0.00    +0.013 C 
ATOM     26  C   UNL     1      -0.942  -2.348  -0.496  0.00  0.00    -0.009 C 
ATOM     27  C   UNL     1      -0.911  -3.728  -1.156  0.00  0.00    +0.013 C 
ATOM     28  C   UNL     1       0.479  -1.940  -0.101  0.00  0.00    +0.013 C 
ENDBRANCH  23  26
BRANCH  23  29
ATOM     29  O   UNL     1      -0.659  -1.239  -2.625  0.00  0.00    -0.388 OA
ATOM     30  H   UNL     1      -0.908  -0.550  -3.446  0.00  0.00    +0.210 HD
ENDBRANCH  23  29
ENDBRANCH   1  23
BRANCH  17  31
ATOM     31  O   UNL     1      -1.472  -2.760  -4.917  0.00  0.00    -0.503 OA
ATOM     32  H   UNL     1      -0.948  -3.588  -5.418  0.00  0.00    +0.292 HD
ENDBRANCH  17  31
BRANCH   6  33
ATOM     33  O   UNL     1      -4.011   0.030  -0.883  0.00  0.00    -0.373 OA
ATOM     34  C   UNL     1      -5.246   0.625  -1.284  0.00  0.00    +0.194 C 
ENDBRANCH   6  33
TORSDOF 5
