REMARK  Name = ZINC07475597
REMARK  6 active torsions:
REMARK  status: ('A' for Active; 'I' for Inactive)
REMARK    1  A    between atoms: C_1  and  C_2
REMARK    2  A    between atoms: C_7  and  C_8
REMARK    3  A    between atoms: C_8  and  C_9
REMARK    4  A    between atoms: N_11  and  N_12
REMARK    5  A    between atoms: C_13  and  C_15
REMARK    6  A    between atoms: C_19  and  N_21
REMARK                            x       y       z     vdW  Elec       q    Type
REMARK                         _______ _______ _______ _____ _____    ______ ____
ROOT
ATOM      1  N   UNL     1       1.088   6.013   0.024  0.00  0.00    -0.230 N 
ATOM      2  C   UNL     1      -0.070   5.323   0.030  0.00  0.00    +0.260 C 
ATOM      3  O   UNL     1      -1.131   5.916   0.043  0.00  0.00    -0.269 OA
ATOM      4  H   UNL     1       1.934   5.539   0.013  0.00  0.00    +0.173 HD
ENDROOT
BRANCH   2   5
ATOM      5  C   UNL     1      -0.050   3.845   0.022  0.00  0.00    +0.040 A 
ATOM      6  C   UNL     1       1.166   3.160   0.007  0.00  0.00    +0.013 A 
ATOM      7  C   UNL     1       1.178   1.781   0.000  0.00  0.00    +0.003 A 
ATOM      8  C   UNL     1      -0.013   1.076   0.008  0.00  0.00    +0.033 A 
ATOM      9  C   UNL     1      -1.222   1.748   0.017  0.00  0.00    +0.127 A 
ATOM     10  C   UNL     1      -1.247   3.128   0.030  0.00  0.00    +0.045 A 
BRANCH   9  11
ATOM     11  N   UNL     1      -2.490   0.986   0.019  0.00  0.00    +0.056 N 
ATOM     12  O   UNL     1      -2.469  -0.232   0.013  0.00  0.00    -0.126 OA
ATOM     13  O   UNL     1      -3.556   1.576   0.028  0.00  0.00    -0.126 OA
ENDBRANCH   9  11
ENDBRANCH   2   5
BRANCH   1  16
ATOM     14  C   UNL     1       2.227   8.103   0.024  0.00  0.00    +0.233 C 
ATOM     15  O   UNL     1       3.285   7.511   0.011  0.00  0.00    -0.274 OA
ATOM     16  N   UNL     1       1.069   7.414   0.031  0.00  0.00    -0.234 N 
ATOM     17  H   UNL     1       0.222   7.887   0.042  0.00  0.00    +0.173 HD
BRANCH  14  18
ATOM     18  C   UNL     1       2.206   9.610   0.033  0.00  0.00    +0.132 C 
BRANCH  18  25
ATOM     19  C   UNL     1       3.614   9.919  -2.471  0.00  0.00    +0.044 C 
ATOM     20  C   UNL     1       4.294  10.279  -1.175  0.00  0.00    -0.047 A 
ATOM     21  C   UNL     1       5.590  10.758  -1.185  0.00  0.00    +0.003 A 
ATOM     22  C   UNL     1       6.213  11.089   0.004  0.00  0.00    +0.000 A 
ATOM     23  C   UNL     1       5.540  10.942   1.202  0.00  0.00    +0.000 A 
ATOM     24  C   UNL     1       4.241  10.468   1.211  0.00  0.00    +0.004 A 
ATOM     25  C   UNL     1       3.620  10.132   0.022  0.00  0.00    -0.036 A 
ENDBRANCH  18  25
ENDBRANCH  14  18
ENDBRANCH   1  16
TORSDOF 5
