REMARK  Name = ZINC44158422
REMARK  4 active torsions:
REMARK  status: ('A' for Active; 'I' for Inactive)
REMARK    1  A    between atoms: C_8  and  C_12
REMARK    2  A    between atoms: N_14  and  C_15
REMARK    3  A    between atoms: C_15  and  C_16
REMARK    4  A    between atoms: C_16  and  O_21
REMARK                            x       y       z     vdW  Elec       q    Type
REMARK                         _______ _______ _______ _____ _____    ______ ____
ROOT
ATOM      1  C   UNL     1       2.620  -4.182   0.288  0.00  0.00    +0.251 C 
ATOM      2  O   UNL     1       1.637  -4.881   0.132  0.00  0.00    -0.270 OA
ATOM      3  N   UNL     1       3.825  -4.750   0.492  0.00  0.00    -0.308 N 
ATOM      4  H   UNL     1       4.609  -4.193   0.617  0.00  0.00    +0.149 HD
ENDROOT
BRANCH   1  12
ATOM      5  C   UNL     1      -0.016   1.361   0.009  0.00  0.00    +0.001 A 
ATOM      6  C   UNL     1       1.169   2.083   0.002  0.00  0.00    +0.004 A 
ATOM      7  C   UNL     1       2.386   1.435  -0.026  0.00  0.00    +0.047 A 
ATOM      8  C   UNL     1       2.430   0.048  -0.040  0.00  0.00    +0.139 A 
ATOM      9  C   UNL     1       1.229  -0.684  -0.003  0.00  0.00    +0.018 A 
ATOM     10  C   UNL     1       0.002  -0.004   0.002  0.00  0.00    +0.011 A 
ATOM     11  C   UNL     1       1.266  -2.102   0.048  0.00  0.00    +0.031 A 
ATOM     12  C   UNL     1       2.494  -2.716   0.256  0.00  0.00    +0.122 A 
ATOM     13  C   UNL     1       3.666  -1.841   0.442  0.00  0.00    +0.350 A 
ATOM     14  O   UNL     1       4.642  -2.222   1.060  0.00  0.00    -0.244 OA
ATOM     15  O   UNL     1       3.619  -0.600  -0.096  0.00  0.00    -0.422 OA
ENDBRANCH   1  12
BRANCH   3  16
ATOM     16  C   UNL     1       3.951  -6.210   0.525  0.00  0.00    +0.139 C 
BRANCH  16  17
ATOM     17  C   UNL     1       5.413  -6.590   0.769  0.00  0.00    +0.081 C 
ATOM     18  C   UNL     1       6.308  -5.984  -0.331  0.00  0.00    +0.036 C 
ATOM     19  C   UNL     1       7.382  -7.070  -0.588  0.00  0.00    +0.003 C 
ATOM     20  C   UNL     1       6.573  -8.386  -0.468  0.00  0.00    +0.003 C 
ATOM     21  C   UNL     1       5.581  -8.117   0.682  0.00  0.00    +0.036 C 
BRANCH  17  22
ATOM     22  O   UNL     1       5.831  -6.124   2.054  0.00  0.00    -0.387 OA
ATOM     23  H   UNL     1       5.759  -5.167   2.167  0.00  0.00    +0.210 HD
ENDBRANCH  17  22
ENDBRANCH  16  17
ENDBRANCH   3  16
TORSDOF 4
