REMARK  Name = ZINC23359157
REMARK  13 active torsions:
REMARK  status: ('A' for Active; 'I' for Inactive)
REMARK    1  A    between atoms: C_1  and  C_2
REMARK    2  A    between atoms: C_2  and  N_3
REMARK    3  A    between atoms: C_7  and  C_9
REMARK    4  A    between atoms: C_9  and  N_10
REMARK    5  A    between atoms: N_10  and  C_11
REMARK    6  A    between atoms: N_10  and  C_20
REMARK    7  A    between atoms: C_11  and  C_12
REMARK    8  A    between atoms: C_13  and  C_14
REMARK    9  A    between atoms: C_20  and  C_21
REMARK   10  A    between atoms: N_24  and  C_27
REMARK   11  A    between atoms: C_27  and  C_28
REMARK   12  A    between atoms: C_28  and  O_29
REMARK   13  A    between atoms: O_29  and  C_30
REMARK                            x       y       z     vdW  Elec       q    Type
REMARK                         _______ _______ _______ _____ _____    ______ ____
ROOT
ATOM      1  N   UNL     1      -1.001  -1.692   3.351  0.00  0.00    -0.300 NA
ENDROOT
BRANCH   1   2
ATOM      2  C   UNL     1      -1.844  -1.891   2.165  0.00  0.00    +0.069 C 
BRANCH   2   7
ATOM      3  N   UNL     1      -1.413  -4.303   1.953  0.00  0.00    +0.382 N 
ATOM      4  C   UNL     1      -1.761  -5.045   0.722  0.00  0.00    -0.078 C 
ATOM      5  C   UNL     1      -3.296  -4.891   0.589  0.00  0.00    -0.020 C 
ATOM      6  C   UNL     1      -3.510  -3.437   1.085  0.00  0.00    -0.016 C 
ATOM      7  C   UNL     1      -2.457  -3.293   2.204  0.00  0.00    -0.054 C 
ATOM      8  H   UNL     1      -0.521  -3.847   1.831  0.00  0.00    -0.081 HD
BRANCH   3  10
ATOM      9  C   UNL     1      -0.157  -6.182   2.897  0.00  0.00    -0.017 C 
ATOM     10  C   UNL     1      -1.343  -5.234   3.087  0.00  0.00    -0.082 C 
ENDBRANCH   3  10
ENDBRANCH   2   7
ENDBRANCH   1   2
BRANCH   1  11
ATOM     11  C   UNL     1      -1.725  -2.052   4.578  0.00  0.00    +0.111 C 
BRANCH  11  12
ATOM     12  C   UNL     1      -2.868  -1.093   4.786  0.00  0.00    -0.011 C 
ATOM     13  C   UNL     1      -4.102  -1.554   4.931  0.00  0.00    +0.005 C 
BRANCH  13  14
ATOM     14  C   UNL     1      -5.224  -0.613   5.135  0.00  0.00    -0.025 A 
ATOM     15  C   UNL     1      -4.988   0.762   5.170  0.00  0.00    +0.008 A 
ATOM     16  C   UNL     1      -6.039   1.635   5.361  0.00  0.00    +0.001 A 
ATOM     17  C   UNL     1      -7.325   1.149   5.518  0.00  0.00    +0.000 A 
ATOM     18  C   UNL     1      -7.566  -0.212   5.484  0.00  0.00    +0.001 A 
ATOM     19  C   UNL     1      -6.524  -1.096   5.287  0.00  0.00    +0.008 A 
ENDBRANCH  13  14
ENDBRANCH  11  12
ENDBRANCH   1  11
BRANCH   1  20
ATOM     20  C   UNL     1       0.253  -2.449   3.238  0.00  0.00    +0.088 C 
BRANCH  20  21
ATOM     21  C   UNL     1       1.085  -1.889   2.083  0.00  0.00    -0.000 C 
ATOM     22  C   UNL     1       1.498  -0.449   2.401  0.00  0.00    -0.014 C 
ATOM     23  C   UNL     1       2.396   0.078   1.280  0.00  0.00    -0.078 C 
ATOM     24  N   UNL     1       3.593  -0.763   1.170  0.00  0.00    +0.381 N 
ATOM     25  C   UNL     1       3.210  -2.130   0.795  0.00  0.00    -0.078 C 
ATOM     26  C   UNL     1       2.344  -2.741   1.898  0.00  0.00    -0.014 C 
ATOM     27  H   UNL     1       4.073  -0.782   2.058  0.00  0.00    -0.082 HD
BRANCH  24  28
ATOM     28  C   UNL     1       4.488  -0.209   0.145  0.00  0.00    -0.050 C 
BRANCH  28  29
ATOM     29  C   UNL     1       5.021   1.147   0.614  0.00  0.00    +0.141 C 
BRANCH  29  30
ATOM     30  O   UNL     1       5.839   0.963   1.771  0.00  0.00    -0.385 OA
ATOM     31  C   UNL     1       6.390   2.174   2.292  0.00  0.00    +0.193 C 
ENDBRANCH  29  30
ENDBRANCH  28  29
ENDBRANCH  24  28
ENDBRANCH  20  21
ENDBRANCH   1  20
TORSDOF 11
