REMARK  Name = ZINC10457570
REMARK  6 active torsions:
REMARK  status: ('A' for Active; 'I' for Inactive)
REMARK    1  A    between atoms: C_1  and  C_2
REMARK    2  A    between atoms: C_4  and  C_26
REMARK    3  A    between atoms: C_9  and  C_10
REMARK    4  A    between atoms: C_10  and  N_11
REMARK    5  A    between atoms: C_12  and  C_14
REMARK    6  A    between atoms: C_14  and  N_15
REMARK                            x       y       z     vdW  Elec       q    Type
REMARK                         _______ _______ _______ _____ _____    ______ ____
ROOT
ATOM      1  N   UNL     1      -0.242   1.246   2.466  0.00  0.00    -0.310 N 
ATOM      2  C   UNL     1      -0.718   1.572   1.248  0.00  0.00    +0.231 C 
ATOM      3  O   UNL     1      -1.714   2.256   1.150  0.00  0.00    -0.274 OA
ATOM      4  H   UNL     1       0.555   0.699   2.544  0.00  0.00    +0.149 HD
ENDROOT
BRANCH   1   5
ATOM      5  C   UNL     1      -0.927   1.718   3.671  0.00  0.00    +0.145 C 
BRANCH   5  14
ATOM      6  C   UNL     1       1.047   3.376   4.971  0.00  0.00    +0.044 C 
ATOM      7  C   UNL     1       0.734   2.002   5.506  0.00  0.00    -0.039 A 
ATOM      8  C   UNL     1       1.396   1.517   6.643  0.00  0.00    +0.024 A 
ATOM      9  C   UNL     1       1.112   0.280   7.113  0.00  0.00    +0.016 A 
ATOM     10  N   UNL     1       0.187  -0.500   6.497  0.00  0.00    -0.326 N 
ATOM     11  H   UNL     1      -0.004  -1.384   6.848  0.00  0.00    +0.169 HD
ATOM     12  C   UNL     1      -0.469  -0.060   5.407  0.00  0.00    +0.254 A 
ATOM     13  O   UNL     1      -1.298  -0.773   4.864  0.00  0.00    -0.268 OA
ATOM     14  C   UNL     1      -0.198   1.219   4.892  0.00  0.00    +0.037 A 
ATOM     15  C   UNL     1       1.831  -0.237   8.332  0.00  0.00    +0.063 C 
ENDBRANCH   5  14
ENDBRANCH   1   5
BRANCH   2  16
ATOM     16  C   UNL     1      -0.013   1.086   0.008  0.00  0.00    +0.213 C 
BRANCH  16  17
ATOM     17  N   UNL     1      -0.721   1.571  -1.179  0.00  0.00    -0.215 N 
ATOM     18  C   UNL     1      -0.456   2.743  -1.795  0.00  0.00    +0.247 C 
ATOM     19  O   UNL     1       0.381   3.564  -1.486  0.00  0.00    -0.273 OA
ATOM     20  C   UNL     1      -1.422   2.813  -2.950  0.00  0.00    +0.113 C 
ATOM     21  C   UNL     1      -0.677   2.903  -4.288  0.00  0.00    +0.035 C 
ATOM     22  C   UNL     1      -1.577   3.818  -5.158  0.00  0.00    +0.003 C 
ATOM     23  C   UNL     1      -2.099   4.860  -4.136  0.00  0.00    +0.003 C 
ATOM     24  C   UNL     1      -2.327   4.043  -2.845  0.00  0.00    +0.035 C 
ATOM     25  N   UNL     1      -2.195   1.572  -2.857  0.00  0.00    -0.285 N 
ATOM     26  C   UNL     1      -1.709   0.905  -1.791  0.00  0.00    +0.310 C 
ATOM     27  O   UNL     1      -2.123  -0.178  -1.425  0.00  0.00    -0.252 OA
ATOM     28  H   UNL     1      -2.909   1.286  -3.447  0.00  0.00    +0.151 HD
ENDBRANCH  16  17
ENDBRANCH   2  16
TORSDOF 4
