REMARK  Name = ZINC66012849
REMARK  9 active torsions:
REMARK  status: ('A' for Active; 'I' for Inactive)
REMARK    1  A    between atoms: C_1  and  C_2
REMARK    2  A    between atoms: C_2  and  C_3
REMARK    3  A    between atoms: C_2  and  O_4
REMARK    4  A    between atoms: O_4  and  C_5
REMARK    5  A    between atoms: C_9  and  C_11
REMARK    6  A    between atoms: C_11  and  C_12
REMARK    7  A    between atoms: N_14  and  N_15
REMARK    8  A    between atoms: C_16  and  C_18
REMARK    9  A    between atoms: C_22  and  N_24
REMARK                            x       y       z     vdW  Elec       q    Type
REMARK                         _______ _______ _______ _____ _____    ______ ____
ROOT
ATOM      1  C   UNL     1      -4.664  -4.891   0.162  0.00  0.00    +0.233 C 
ATOM      2  O   UNL     1      -3.808  -4.953   1.018  0.00  0.00    -0.274 OA
ATOM      3  N   UNL     1      -5.849  -5.506   0.348  0.00  0.00    -0.234 N 
ATOM      4  H   UNL     1      -6.535  -5.456  -0.337  0.00  0.00    +0.173 HD
ENDROOT
BRANCH   3   5
ATOM      5  N   UNL     1      -6.092  -6.216   1.531  0.00  0.00    -0.230 N 
ATOM      6  C   UNL     1      -7.277  -6.830   1.718  0.00  0.00    +0.260 C 
ATOM      7  O   UNL     1      -8.135  -6.768   0.859  0.00  0.00    -0.269 OA
ATOM      8  H   UNL     1      -5.407  -6.266   2.216  0.00  0.00    +0.173 HD
BRANCH   6   9
ATOM      9  C   UNL     1      -7.532  -7.580   2.966  0.00  0.00    +0.040 A 
ATOM     10  C   UNL     1      -6.551  -7.649   3.956  0.00  0.00    +0.013 A 
ATOM     11  C   UNL     1      -6.796  -8.349   5.119  0.00  0.00    +0.003 A 
ATOM     12  C   UNL     1      -8.011  -8.983   5.305  0.00  0.00    +0.033 A 
ATOM     13  C   UNL     1      -8.989  -8.919   4.328  0.00  0.00    +0.127 A 
ATOM     14  C   UNL     1      -8.758  -8.217   3.162  0.00  0.00    +0.045 A 
BRANCH  13  15
ATOM     15  N   UNL     1     -10.286  -9.601   4.535  0.00  0.00    +0.056 N 
ATOM     16  O   UNL     1     -10.491 -10.213   5.557  0.00  0.00    -0.126 OA
ATOM     17  O   UNL     1     -11.141  -9.546   3.682  0.00  0.00    -0.126 OA
ENDBRANCH  13  15
ENDBRANCH   6   9
ENDBRANCH   3   5
BRANCH   1  18
ATOM     18  C   UNL     1      -4.404  -4.127  -1.111  0.00  0.00    +0.132 C 
BRANCH  18  23
ATOM     19  C   UNL     1      -1.538  -1.739  -0.505  0.00  0.00    +0.121 A 
ATOM     20  C   UNL     1      -0.465  -2.469  -0.997  0.00  0.00    +0.045 A 
ATOM     21  C   UNL     1      -0.671  -3.729  -1.522  0.00  0.00    +0.004 A 
ATOM     22  C   UNL     1      -1.945  -4.265  -1.558  0.00  0.00    +0.004 A 
ATOM     23  C   UNL     1      -3.016  -3.541  -1.069  0.00  0.00    -0.035 A 
ATOM     24  C   UNL     1      -2.815  -2.281  -0.538  0.00  0.00    +0.049 A 
BRANCH  19  25
ATOM     25  O   UNL     1      -1.339  -0.499   0.012  0.00  0.00    -0.489 OA
BRANCH  25  27
ATOM     26  C   UNL     1      -1.982   1.168   1.640  0.00  0.00    +0.051 C 
ATOM     27  C   UNL     1      -2.466   0.143   0.612  0.00  0.00    +0.167 C 
ATOM     28  C   UNL     1      -3.283   0.853  -0.469  0.00  0.00    +0.051 C 
ENDBRANCH  25  27
ENDBRANCH  19  25
ENDBRANCH  18  23
ENDBRANCH   1  18
TORSDOF 7
