REMARK  Name = ZINC07990253
REMARK  3 active torsions:
REMARK  status: ('A' for Active; 'I' for Inactive)
REMARK    1  A    between atoms: C_8  and  C_22
REMARK    2  A    between atoms: C_12  and  C_14
REMARK    3  A    between atoms: C_19  and  O_20
REMARK                            x       y       z     vdW  Elec       q    Type
REMARK                         _______ _______ _______ _____ _____    ______ ____
ROOT
ATOM      1  C   UNL     1      -1.736  -6.508   0.369  0.00  0.00    +0.000 A 
ATOM      2  C   UNL     1      -0.463  -6.382  -0.157  0.00  0.00    +0.000 A 
ATOM      3  C   UNL     1      -0.083  -5.196  -0.750  0.00  0.00    +0.005 A 
ATOM      4  C   UNL     1      -0.968  -4.130  -0.824  0.00  0.00    -0.027 A 
ATOM      5  C   UNL     1      -2.232  -4.250  -0.292  0.00  0.00    -0.040 A 
ATOM      6  C   UNL     1      -2.614  -5.447   0.301  0.00  0.00    +0.004 A 
ATOM      7  C   UNL     1      -3.240  -3.131  -0.320  0.00  0.00    +0.067 C 
ATOM      8  C   UNL     1      -2.886  -2.105  -1.395  0.00  0.00    +0.167 C 
ATOM      9  N   UNL     1      -1.454  -1.787  -1.262  0.00  0.00    -0.281 N 
ATOM     10  C   UNL     1      -0.497  -2.870  -1.516  0.00  0.00    +0.144 C 
ATOM     11  C   UNL     1      -1.040  -0.549  -0.927  0.00  0.00    +0.251 C 
ATOM     12  O   UNL     1      -1.852   0.302  -0.621  0.00  0.00    -0.270 OA
ENDROOT
BRANCH  11  13
ATOM     13  C   UNL     1       0.400  -0.228  -0.927  0.00  0.00    +0.079 A 
ATOM     14  C   UNL     1       1.128  -0.265  -2.119  0.00  0.00    +0.032 A 
ATOM     15  C   UNL     1       2.472   0.042  -2.113  0.00  0.00    +0.019 A 
ATOM     16  C   UNL     1       3.108   0.375  -0.927  0.00  0.00    +0.019 A 
ATOM     17  C   UNL     1       2.401   0.409   0.258  0.00  0.00    +0.047 A 
ATOM     18  C   UNL     1       1.047   0.109   0.269  0.00  0.00    +0.129 A 
ATOM     19 BR   UNL     1       3.455   0.001  -3.728  0.00  0.00    -0.050 Br
BRANCH  18  20
ATOM     20  O   UNL     1       0.351   0.142   1.434  0.00  0.00    -0.506 OA
ATOM     21  H   UNL     1       0.340  -0.700   1.909  0.00  0.00    +0.292 HD
ENDBRANCH  18  20
ENDBRANCH  11  13
BRANCH   8  22
ATOM     22  C   UNL     1      -3.706  -0.856  -1.199  0.00  0.00    +0.231 C 
ATOM     23  O   UNL     1      -4.205  -0.303  -2.156  0.00  0.00    -0.274 OA
ATOM     24  N   UNL     1      -3.885  -0.354   0.038  0.00  0.00    -0.328 N 
ATOM     25  H   UNL     1      -3.485  -0.797   0.804  0.00  0.00    +0.145 HD
ATOM     26  H   UNL     1      -4.413   0.450   0.164  0.00  0.00    +0.145 HD
ENDBRANCH   8  22
TORSDOF 3
