REMARK  Name = ZINC09466142
REMARK  6 active torsions:
REMARK  status: ('A' for Active; 'I' for Inactive)
REMARK    1  A    between atoms: C_6  and  C_7
REMARK    2  A    between atoms: N_11  and  C_15
REMARK    3  A    between atoms: C_15  and  C_16
REMARK    4  A    between atoms: C_16  and  N_17
REMARK    5  A    between atoms: C_18  and  C_20
REMARK    6  A    between atoms: C_20  and  N_21
REMARK                            x       y       z     vdW  Elec       q    Type
REMARK                         _______ _______ _______ _____ _____    ______ ____
ROOT
ATOM      1  N   UNL     1       0.456  -0.093  -0.041  0.00  0.00    -0.312 N 
ATOM      2  C   UNL     1      -0.764   0.422  -0.292  0.00  0.00    +0.231 C 
ATOM      3  O   UNL     1      -0.881   1.597  -0.567  0.00  0.00    -0.274 OA
ATOM      4  H   UNL     1       0.550  -1.033   0.179  0.00  0.00    +0.149 HD
ENDROOT
BRANCH   1   5
ATOM      5  C   UNL     1       1.641   0.766  -0.104  0.00  0.00    +0.123 C 
BRANCH   5   6
ATOM      6  C   UNL     1       2.888  -0.061   0.214  0.00  0.00    +0.136 C 
BRANCH   6  11
ATOM      7  C   UNL     1       6.309   3.028   2.048  0.00  0.00    +0.028 C 
ATOM      8  C   UNL     1       5.676   2.276   1.113  0.00  0.00    +0.080 C 
ATOM      9  C   UNL     1       4.475   1.426   1.243  0.00  0.00    +0.260 C 
ATOM     10  O   UNL     1       3.886   1.310   2.301  0.00  0.00    -0.269 OA
ATOM     11  N   UNL     1       4.073   0.798   0.151  0.00  0.00    -0.227 N 
ATOM     12  C   UNL     1       4.732   0.925  -1.019  0.00  0.00    +0.286 C 
ATOM     13  O   UNL     1       4.479   0.406  -2.089  0.00  0.00    -0.262 OA
ATOM     14  S   UNL     1       6.066   2.043  -0.616  0.00  0.00    -0.026 S 
BRANCH   7  20
ATOM     15  C   UNL     1       8.256   3.359   0.536  0.00  0.00    +0.011 A 
ATOM     16  C   UNL     1       9.457   3.967   0.243  0.00  0.00    +0.039 A 
ATOM     17  C   UNL     1      10.016   4.873   1.132  0.00  0.00    +0.123 A 
ATOM     18  C   UNL     1       9.367   5.178   2.319  0.00  0.00    +0.039 A 
ATOM     19  C   UNL     1       8.163   4.583   2.623  0.00  0.00    +0.011 A 
ATOM     20  C   UNL     1       7.593   3.667   1.730  0.00  0.00    -0.024 A 
ATOM     21  F   UNL     1      11.197   5.461   0.840  0.00  0.00    -0.205 F 
ENDBRANCH   7  20
ENDBRANCH   6  11
ENDBRANCH   5   6
ENDBRANCH   1   5
BRANCH   2  22
ATOM     22  C   UNL     1      -1.982  -0.463  -0.233  0.00  0.00    +0.213 C 
BRANCH  22  23
ATOM     23  N   UNL     1      -3.176   0.328  -0.543  0.00  0.00    -0.215 N 
ATOM     24  C   UNL     1      -3.918   0.973   0.380  0.00  0.00    +0.247 C 
ATOM     25  O   UNL     1      -3.733   1.008   1.577  0.00  0.00    -0.273 OA
ATOM     26  C   UNL     1      -5.029   1.646  -0.394  0.00  0.00    +0.113 C 
ATOM     27  C   UNL     1      -6.385   1.119   0.062  0.00  0.00    +0.035 C 
ATOM     28  C   UNL     1      -7.494   1.783  -0.758  0.00  0.00    +0.003 C 
ATOM     29  C   UNL     1      -7.427   3.300  -0.570  0.00  0.00    +0.000 C 
ATOM     30  C   UNL     1      -6.070   3.817  -1.051  0.00  0.00    +0.003 C 
ATOM     31  C   UNL     1      -4.956   3.160  -0.232  0.00  0.00    +0.035 C 
ATOM     32  N   UNL     1      -4.772   1.266  -1.789  0.00  0.00    -0.285 N 
ATOM     33  C   UNL     1      -3.668   0.495  -1.777  0.00  0.00    +0.310 C 
ATOM     34  O   UNL     1      -3.174   0.006  -2.774  0.00  0.00    -0.252 OA
ATOM     35  H   UNL     1      -5.295   1.520  -2.566  0.00  0.00    +0.151 HD
ENDBRANCH  22  23
ENDBRANCH   2  22
TORSDOF 6
