REMARK  Name = ZINC63490818
REMARK  8 active torsions:
REMARK  status: ('A' for Active; 'I' for Inactive)
REMARK    1  A    between atoms: C_1  and  C_2
REMARK    2  A    between atoms: C_5  and  O_32
REMARK    3  A    between atoms: C_7  and  O_31
REMARK    4  A    between atoms: C_13  and  C_15
REMARK    5  A    between atoms: C_15  and  C_16
REMARK    6  A    between atoms: N_18  and  C_19
REMARK    7  A    between atoms: C_19  and  C_20
REMARK    8  A    between atoms: C_20  and  C_21
REMARK                            x       y       z     vdW  Elec       q    Type
REMARK                         _______ _______ _______ _____ _____    ______ ____
ROOT
ATOM      1  C   UNL     1       0.505   0.274   2.441  0.00  0.00    +0.111 C 
ENDROOT
BRANCH   1  13
ATOM      2  C   UNL     1      -0.019   1.526   0.010  0.00  0.00    +0.013 C 
ATOM      3  C   UNL     1       0.002  -0.004   0.002  0.00  0.00    +0.037 C 
ATOM      4  C   UNL     1      -1.407  -0.525   0.133  0.00  0.00    +0.040 A 
ATOM      5  C   UNL     1      -2.423   0.134  -0.553  0.00  0.00    +0.127 A 
ATOM      6  C   UNL     1      -3.730  -0.315  -0.467  0.00  0.00    +0.091 A 
ATOM      7  C   UNL     1      -4.030  -1.426   0.306  0.00  0.00    +0.124 A 
ATOM      8  C   UNL     1      -3.021  -2.082   0.992  0.00  0.00    +0.092 A 
ATOM      9  C   UNL     1      -1.708  -1.629   0.909  0.00  0.00    +0.142 A 
ATOM     10  O   UNL     1      -0.752  -2.293   1.615  0.00  0.00    -0.425 OA
ATOM     11  C   UNL     1       0.535  -1.977   1.370  0.00  0.00    +0.317 C 
ATOM     12  O   UNL     1       1.395  -2.824   1.311  0.00  0.00    -0.250 OA
ATOM     13  C   UNL     1       0.852  -0.508   1.172  0.00  0.00    +0.114 C 
BRANCH   7  14
ATOM     14  O   UNL     1      -5.311  -1.871   0.391  0.00  0.00    -0.507 OA
ATOM     15  H   UNL     1      -5.547  -2.523  -0.283  0.00  0.00    +0.292 HD
ENDBRANCH   7  14
BRANCH   5  16
ATOM     16  O   UNL     1      -2.130   1.222  -1.312  0.00  0.00    -0.506 OA
ATOM     17  H   UNL     1      -1.912   1.015  -2.231  0.00  0.00    +0.292 HD
ENDBRANCH   5  16
ENDBRANCH   1  13
BRANCH   1  18
ATOM     18  C   UNL     1       1.429  -0.142   3.556  0.00  0.00    +0.214 C 
ATOM     19  O   UNL     1       2.281  -0.981   3.356  0.00  0.00    -0.276 OA
ATOM     20  N   UNL     1       1.308   0.419   4.776  0.00  0.00    -0.315 N 
ATOM     21  H   UNL     1       0.626   1.090   4.936  0.00  0.00    +0.149 HD
BRANCH  20  22
ATOM     22  C   UNL     1       2.207   0.015   5.860  0.00  0.00    +0.108 C 
BRANCH  22  23
ATOM     23  C   UNL     1       1.859   0.797   7.128  0.00  0.00    +0.052 C 
BRANCH  23  24
ATOM     24  C   UNL     1       2.784   0.381   8.244  0.00  0.00    -0.040 C 
ATOM     25  C   UNL     1       3.929   0.992   8.621  0.00  0.00    +0.002 A 
ATOM     26  C   UNL     1       4.631   2.181   8.124  0.00  0.00    +0.048 A 
ATOM     27  C   UNL     1       5.788   2.558   8.719  0.00  0.00    +0.124 A 
ATOM     28  C   UNL     1       6.330   1.839   9.796  0.00  0.00    +0.040 A 
ATOM     29  C   UNL     1       5.743   0.737  10.307  0.00  0.00    +0.029 A 
ATOM     30  C   UNL     1       4.523   0.253   9.758  0.00  0.00    +0.043 A 
ATOM     31  N   UNL     1       3.772  -0.775  10.072  0.00  0.00    -0.380 N 
ATOM     32  C   UNL     1       2.614  -0.801   9.172  0.00  0.00    +0.144 C 
ATOM     33  F   UNL     1       6.437   3.651   8.263  0.00  0.00    -0.205 F 
ATOM     34  H   UNL     1       3.952  -1.411  10.783  0.00  0.00    +0.160 HD
ENDBRANCH  23  24
ENDBRANCH  22  23
ENDBRANCH  20  22
ENDBRANCH   1  18
TORSDOF 7
