REMARK  Name = ZINC14879424
REMARK  7 active torsions:
REMARK  status: ('A' for Active; 'I' for Inactive)
REMARK    1  A    between atoms: C_1  and  C_2
REMARK    2  A    between atoms: C_2  and  C_32
REMARK    3  A    between atoms: C_7  and  C_11
REMARK    4  A    between atoms: C_11  and  N_63
REMARK    5  A    between atoms: C_14  and  C_17
REMARK    6  A    between atoms: C_17  and  C_24
REMARK    7  A    between atoms: C_24  and  C_25
REMARK                            x       y       z     vdW  Elec       q    Type
REMARK                         _______ _______ _______ _____ _____    ______ ____
ROOT
ATOM      1  C   UNL     1      -2.087  -1.801   0.975  0.00  0.00    -0.078 C 
ATOM      2  C   UNL     1      -3.423  -1.839   1.719  0.00  0.00    -0.013 C 
ATOM      3  C   UNL     1      -4.501  -2.410   0.793  0.00  0.00    +0.018 C 
ATOM      4  C   UNL     1      -4.583  -1.551  -0.472  0.00  0.00    -0.013 C 
ATOM      5  C   UNL     1      -3.213  -1.522  -1.152  0.00  0.00    -0.078 C 
ATOM      6  N   UNL     1      -2.226  -0.939  -0.218  0.00  0.00    +0.382 N 
ATOM      7  H   UNL     1      -2.554  -0.012   0.077  0.00  0.00    -0.081 HD
ENDROOT
BRANCH   3   8
ATOM      8  C   UNL     1      -5.852  -2.394   1.511  0.00  0.00    +0.119 C 
ATOM      9  C   UNL     1      -6.349  -0.972   1.681  0.00  0.00    +0.245 C 
ATOM     10  O   UNL     1      -5.813  -0.078   2.300  0.00  0.00    -0.273 OA
ATOM     11  N   UNL     1      -7.511  -0.908   1.002  0.00  0.00    -0.238 N 
ATOM     12  C   UNL     1      -7.814  -2.080   0.432  0.00  0.00    +0.307 C 
ATOM     13  O   UNL     1      -8.814  -2.269  -0.234  0.00  0.00    -0.252 OA
ATOM     14  N   UNL     1      -6.890  -3.026   0.677  0.00  0.00    -0.284 N 
ATOM     15  H   UNL     1      -8.060  -0.112   0.934  0.00  0.00    +0.159 HD
ATOM     16  H   UNL     1      -6.903  -3.944   0.365  0.00  0.00    +0.151 HD
BRANCH   8  17
ATOM     17  C   UNL     1      -5.749  -3.098   2.866  0.00  0.00    +0.073 C 
BRANCH  17  18
ATOM     18  C   UNL     1      -7.115  -3.177   3.496  0.00  0.00    -0.010 A 
ATOM     19  C   UNL     1      -7.843  -4.349   3.425  0.00  0.00    +0.006 A 
ATOM     20  C   UNL     1      -9.096  -4.423   4.003  0.00  0.00    +0.000 A 
ATOM     21  C   UNL     1      -9.623  -3.323   4.655  0.00  0.00    +0.003 A 
ATOM     22  C   UNL     1      -8.897  -2.149   4.728  0.00  0.00    +0.038 A 
ATOM     23  C   UNL     1      -7.640  -2.076   4.153  0.00  0.00    +0.127 A 
ATOM     24  F   UNL     1      -6.927  -0.931   4.228  0.00  0.00    -0.205 F 
ENDBRANCH  17  18
ENDBRANCH   8  17
ENDBRANCH   3   8
BRANCH   6  25
ATOM     25  C   UNL     1      -0.919  -0.794  -0.891  0.00  0.00    -0.047 C 
BRANCH  25  31
ATOM     26  C   UNL     1      -0.425   3.482   1.630  0.00  0.00    +0.012 C 
ATOM     27  C   UNL     1      -0.071   2.001   1.480  0.00  0.00    -0.025 C 
ATOM     28  C   UNL     1       1.440   1.716   1.495  0.00  0.00    -0.000 C 
ATOM     29  C   UNL     1       1.764   0.227   1.677  0.00  0.00    +0.031 C 
ATOM     30  C   UNL     1       0.853  -0.602   0.804  0.00  0.00    -0.029 C 
ATOM     31  C   UNL     1       0.002  -0.004   0.002  0.00  0.00    -0.086 C 
ATOM     32  C   UNL     1      -0.018   1.515   0.010  0.00  0.00    +0.019 C 
ATOM     33  C   UNL     1       1.409   2.092  -0.000  0.00  0.00    +0.012 C 
ATOM     34  C   UNL     1      -0.883   1.092   2.405  0.00  0.00    +0.012 C 
ENDBRANCH  25  31
ENDBRANCH   6  25
TORSDOF 5
