REMARK  Name = ZINC36647562
REMARK  7 active torsions:
REMARK  status: ('A' for Active; 'I' for Inactive)
REMARK    1  A    between atoms: C_3  and  C_11
REMARK    2  A    between atoms: C_5  and  C_7
REMARK    3  A    between atoms: C_13  and  C_16
REMARK    4  A    between atoms: C_16  and  S_17
REMARK    5  A    between atoms: S_17  and  C_18
REMARK    6  A    between atoms: C_21  and  C_24
REMARK    7  A    between atoms: N_22  and  N_23
REMARK                            x       y       z     vdW  Elec       q    Type
REMARK                         _______ _______ _______ _____ _____    ______ ____
ROOT
ATOM      1  C   UNL     1       3.660   2.164  -0.022  0.00  0.00    +0.202 A 
ATOM      2  N   UNL     1       3.778   3.504  -0.011  0.00  0.00    -0.191 NA
ATOM      3  C   UNL     1       5.036   3.841  -0.023  0.00  0.00    +0.238 A 
ATOM      4  O   UNL     1       5.775   2.724  -0.043  0.00  0.00    -0.337 OA
ATOM      5  N   UNL     1       4.860   1.639  -0.036  0.00  0.00    -0.056 NA
ENDROOT
BRANCH   1   8
ATOM      6  C   UNL     1      -0.017   1.379   0.010  0.00  0.00    +0.001 A 
ATOM      7  C   UNL     1       1.168   2.088   0.002  0.00  0.00    +0.012 A 
ATOM      8  C   UNL     1       2.384   1.408  -0.013  0.00  0.00    +0.023 A 
ATOM      9  C   UNL     1       2.397   0.014  -0.021  0.00  0.00    +0.024 A 
ATOM     10  C   UNL     1       1.206  -0.684  -0.013  0.00  0.00    +0.055 A 
ATOM     11  C   UNL     1       0.002  -0.004   0.002  0.00  0.00    +0.012 A 
BRANCH  10  12
ATOM     12  C   UNL     1       1.219  -2.191  -0.022  0.00  0.00    +0.417 C 
ATOM     13  F   UNL     1       1.236  -2.665   1.294  0.00  0.00    -0.166 F 
ATOM     14  F   UNL     1       0.074  -2.663  -0.673  0.00  0.00    -0.166 F 
ATOM     15  F   UNL     1       2.359  -2.644  -0.695  0.00  0.00    -0.166 F 
ENDBRANCH  10  12
ENDBRANCH   1   8
BRANCH   3  16
ATOM     16  C   UNL     1       5.570   5.250  -0.017  0.00  0.00    +0.176 C 
BRANCH  16  17
ATOM     17  S   UNL     1       5.806   5.801   1.696  0.00  0.00    -0.075 S 
BRANCH  17  18
ATOM     18  C   UNL     1       6.425   7.442   1.535  0.00  0.00    +0.209 A 
ATOM     19  N   UNL     1       6.646   8.087   0.412  0.00  0.00    -0.121 NA
ATOM     20  N   UNL     1       7.098   9.263   0.666  0.00  0.00    -0.123 NA
ATOM     21  C   UNL     1       7.192   9.438   1.954  0.00  0.00    +0.255 A 
ATOM     22  N   UNL     1       6.761   8.287   2.554  0.00  0.00    -0.220 N 
BRANCH  21  23
ATOM     23  C   UNL     1       7.678  10.681   2.653  0.00  0.00    +0.454 C 
ATOM     24  F   UNL     1       7.698  11.748   1.748  0.00  0.00    -0.163 F 
ATOM     25  F   UNL     1       6.819  10.986   3.714  0.00  0.00    -0.163 F 
ATOM     26  F   UNL     1       8.970  10.463   3.146  0.00  0.00    -0.163 F 
ENDBRANCH  21  23
BRANCH  22  27
ATOM     27  N   UNL     1       6.686   8.033   3.894  0.00  0.00    -0.295 N 
ATOM     28  H   UNL     1       7.547   7.633   4.235  0.00  0.00    +0.163 HD
ATOM     29  H   UNL     1       6.447   8.868   4.407  0.00  0.00    +0.163 HD
ENDBRANCH  22  27
ENDBRANCH  17  18
ENDBRANCH  16  17
ENDBRANCH   3  16
TORSDOF 7
