REMARK  Name = ZINC10256259
REMARK  3 active torsions:
REMARK  status: ('A' for Active; 'I' for Inactive)
REMARK    1  A    between atoms: C_10  and  C_11
REMARK    2  A    between atoms: C_11  and  N_12
REMARK    3  A    between atoms: C_23  and  C_25
REMARK                            x       y       z     vdW  Elec       q    Type
REMARK                         _______ _______ _______ _____ _____    ______ ____
ROOT
ATOM      1  N   UNL     1      -2.721   0.738   0.134  0.00  0.00    -0.295 N 
ATOM      2  C   UNL     1      -2.370  -0.559   0.023  0.00  0.00    +0.307 C 
ATOM      3  O   UNL     1      -3.228  -1.415  -0.065  0.00  0.00    -0.252 OA
ATOM      4  N   UNL     1      -1.067  -0.905   0.007  0.00  0.00    -0.243 N 
ATOM      5  C   UNL     1      -0.587  -2.219   0.000  0.00  0.00    +0.042 A 
ATOM      6  C   UNL     1      -1.298  -3.421   0.006  0.00  0.00    +0.024 A 
ATOM      7  C   UNL     1      -0.627  -4.625  -0.004  0.00  0.00    +0.002 A 
ATOM      8  C   UNL     1       0.756  -4.651  -0.020  0.00  0.00    +0.000 A 
ATOM      9  C   UNL     1       1.466  -3.465  -0.026  0.00  0.00    +0.005 A 
ATOM     10  C   UNL     1       0.798  -2.256  -0.016  0.00  0.00    -0.024 A 
ATOM     11  C   UNL     1       1.317  -0.836  -0.020  0.00  0.00    +0.069 C 
ATOM     12  C   UNL     1       0.053   0.039  -0.004  0.00  0.00    +0.173 C 
ATOM     13  H   UNL     1      -2.038   1.427   0.131  0.00  0.00    +0.151 HD
ENDROOT
BRANCH  12  14
ATOM     14  C   UNL     1      -0.003   0.902  -1.238  0.00  0.00    +0.232 C 
ATOM     15  O   UNL     1      -0.665   0.553  -2.192  0.00  0.00    -0.274 OA
ATOM     16  N   UNL     1       0.682   2.062  -1.281  0.00  0.00    -0.328 N 
ATOM     17  H   UNL     1       1.212   2.341  -0.517  0.00  0.00    +0.145 HD
ATOM     18  H   UNL     1       0.646   2.618  -2.075  0.00  0.00    +0.145 HD
ENDBRANCH  12  14
BRANCH   1  19
ATOM     19  C   UNL     1      -4.133   1.106   0.261  0.00  0.00    +0.141 C 
BRANCH  19  29
ATOM     20  C   UNL     1      -4.043   5.026  -3.030  0.00  0.00    +0.001 A 
ATOM     21  C   UNL     1      -3.929   3.642  -3.150  0.00  0.00    +0.001 A 
ATOM     22  C   UNL     1      -3.995   2.836  -2.056  0.00  0.00    +0.009 A 
ATOM     23  C   UNL     1      -4.181   3.404  -0.784  0.00  0.00    -0.013 A 
ATOM     24  C   UNL     1      -4.302   4.811  -0.662  0.00  0.00    -0.018 A 
ATOM     25  C   UNL     1      -4.233   5.611  -1.816  0.00  0.00    +0.008 A 
ATOM     26  C   UNL     1      -4.481   5.380   0.610  0.00  0.00    +0.008 A 
ATOM     27  C   UNL     1      -4.542   4.574   1.705  0.00  0.00    +0.001 A 
ATOM     28  C   UNL     1      -4.429   3.190   1.585  0.00  0.00    +0.006 A 
ATOM     29  C   UNL     1      -4.254   2.604   0.369  0.00  0.00    -0.023 A 
ENDBRANCH  19  29
ENDBRANCH   1  19
TORSDOF 3
