REMARK  Name = ZINC04168562
REMARK  3 active torsions:
REMARK  status: ('A' for Active; 'I' for Inactive)
REMARK    1  A    between atoms: C_1  and  C_2
REMARK    2  A    between atoms: C_8  and  C_20
REMARK    3  A    between atoms: C_11  and  C_13
REMARK                            x       y       z     vdW  Elec       q    Type
REMARK                         _______ _______ _______ _____ _____    ______ ____
ROOT
ATOM      1  C   UNL     1       1.256   3.174   5.877  0.00  0.00    +0.044 C 
ATOM      2  C   UNL     1       0.538   2.979   4.566  0.00  0.00    -0.050 A 
ATOM      3  C   UNL     1      -0.843   2.932   4.536  0.00  0.00    +0.005 A 
ATOM      4  C   UNL     1      -1.504   2.757   3.336  0.00  0.00    +0.029 A 
ATOM      5  C   UNL     1      -0.787   2.624   2.141  0.00  0.00    +0.075 A 
ATOM      6  C   UNL     1       0.611   2.666   2.175  0.00  0.00    +0.029 A 
ATOM      7  C   UNL     1       1.261   2.846   3.396  0.00  0.00    +0.015 A 
ATOM      8  C   UNL     1       1.454   2.526   0.964  0.00  0.00    +0.105 C 
ATOM      9  N   UNL     1       1.179   1.707   0.000  0.00  0.00    -0.180 NA
ATOM     10  N   UNL     1      -0.011   0.966   0.007  0.00  0.00    -0.220 N 
ATOM     11  C   UNL     1      -1.204   1.665   0.017  0.00  0.00    +0.146 C 
ATOM     12  N   UNL     1      -1.513   2.465   0.995  0.00  0.00    -0.230 NA
ATOM     13  H   UNL     1       0.002  -0.004   0.002  0.00  0.00    +0.176 HD
ENDROOT
BRANCH  11  14
ATOM     14  C   UNL     1      -2.145   1.495  -1.108  0.00  0.00    +0.016 A 
ATOM     15  C   UNL     1      -3.359   2.187  -1.117  0.00  0.00    +0.012 A 
ATOM     16  C   UNL     1      -4.231   2.028  -2.173  0.00  0.00    +0.016 A 
ATOM     17  C   UNL     1      -3.911   1.177  -3.218  0.00  0.00    +0.018 A 
ATOM     18  C   UNL     1      -2.712   0.485  -3.212  0.00  0.00    +0.016 A 
ATOM     19  C   UNL     1      -1.829   0.638  -2.165  0.00  0.00    +0.012 A 
ATOM     20 BR   UNL     1      -5.117   0.961  -4.658  0.00  0.00    -0.050 Br
ENDBRANCH  11  14
BRANCH   8  21
ATOM     21  C   UNL     1       2.663   3.358   0.853  0.00  0.00    +0.040 A 
ATOM     22  C   UNL     1       3.600   3.403  -0.163  0.00  0.00    +0.018 A 
ATOM     23  C   UNL     1       4.657   4.276  -0.041  0.00  0.00    +0.008 A 
ATOM     24  C   UNL     1       4.752   5.053   1.069  0.00  0.00    +0.046 A 
ATOM     25  S   UNL     1       3.308   4.567   1.998  0.00  0.00    -0.095 S 
ENDBRANCH   8  21
TORSDOF 2
