REMARK  Name = ZINC30553619
REMARK  12 active torsions:
REMARK  status: ('A' for Active; 'I' for Inactive)
REMARK    1  A    between atoms: C_1  and  C_2
REMARK    2  A    between atoms: C_6  and  N_8
REMARK    3  A    between atoms: C_9  and  C_33
REMARK    4  A    between atoms: C_11  and  C_14
REMARK    5  A    between atoms: C_12  and  C_13
REMARK    6  A    between atoms: N_16  and  C_17
REMARK    7  A    between atoms: C_17  and  C_18
REMARK    8  A    between atoms: C_18  and  N_19
REMARK    9  A    between atoms: N_19  and  C_20
REMARK   10  A    between atoms: C_23  and  S_29
REMARK   11  A    between atoms: C_25  and  N_26
REMARK   12  A    between atoms: S_29  and  C_32
REMARK                            x       y       z     vdW  Elec       q    Type
REMARK                         _______ _______ _______ _____ _____    ______ ____
ROOT
ATOM      1  C   UNL     1      -2.241   8.659  -0.868  0.00  0.00    +0.246 C 
ATOM      2  O   UNL     1      -2.773   8.543  -1.956  0.00  0.00    -0.270 OA
ATOM      3  N   UNL     1      -1.792   9.864  -0.463  0.00  0.00    -0.310 N 
ATOM      4  H   UNL     1      -1.311   9.970   0.520  0.00  0.00    +0.149 HD
ENDROOT
BRANCH   1   8
ATOM      5  N   UNL     1      -2.166   5.429   0.796  0.00  0.00    -0.317 N 
ATOM      6  C   UNL     1      -1.558   6.179   1.764  0.00  0.00    +0.022 A 
ATOM      7  C   UNL     1      -1.475   7.452   1.339  0.00  0.00    +0.036 A 
ATOM      8  C   UNL     1      -2.088   7.485   0.007  0.00  0.00    +0.058 A 
ATOM      9  C   UNL     1      -2.490   6.204  -0.260  0.00  0.00    +0.033 A 
ATOM     10  C   UNL     1      -3.176   5.739  -1.518  0.00  0.00    +0.064 C 
ATOM     11  C   UNL     1      -1.061   5.662   3.089  0.00  0.00    +0.064 C 
BRANCH   5  17
ATOM     12  C   UNL     1      -0.475   0.820   1.096  0.00  0.00    +0.044 C 
ATOM     13  C   UNL     1      -1.620   1.799   1.036  0.00  0.00    -0.048 A 
ATOM     14  C   UNL     1      -2.924   1.340   1.072  0.00  0.00    +0.003 A 
ATOM     15  C   UNL     1      -3.977   2.234   1.012  0.00  0.00    +0.002 A 
ATOM     16  C   UNL     1      -3.728   3.590   0.926  0.00  0.00    +0.026 A 
ATOM     17  C   UNL     1      -2.421   4.054   0.888  0.00  0.00    +0.047 A 
ATOM     18  C   UNL     1      -1.365   3.153   0.944  0.00  0.00    +0.029 A 
ENDBRANCH   5  17
ENDBRANCH   1   8
BRANCH   3  19
ATOM     19  C   UNL     1      -1.944  11.033  -1.333  0.00  0.00    +0.123 C 
BRANCH  19  20
ATOM     20  C   UNL     1      -1.355  12.264  -0.642  0.00  0.00    +0.120 C 
BRANCH  20  21
ATOM     21  N   UNL     1      -1.508  13.432  -1.512  0.00  0.00    -0.341 N 
ATOM     22  H   UNL     1      -1.989  13.327  -2.495  0.00  0.00    +0.146 HD
BRANCH  21  23
ATOM     23  C   UNL     1      -1.042  14.681  -1.092  0.00  0.00    +0.058 A 
ATOM     24  C   UNL     1      -0.546  14.842   0.195  0.00  0.00    +0.027 A 
ATOM     25  C   UNL     1      -0.086  16.077   0.607  0.00  0.00    +0.029 A 
ATOM     26  C   UNL     1      -0.120  17.154  -0.262  0.00  0.00    +0.090 A 
ATOM     27  C   UNL     1      -0.613  16.997  -1.544  0.00  0.00    +0.061 A 
ATOM     28  C   UNL     1      -1.069  15.762  -1.964  0.00  0.00    +0.149 A 
BRANCH  26  29
ATOM     29  S   UNL     1       0.467  18.728   0.268  0.00  0.00    -0.006 S 
ATOM     30  O   UNL     1      -0.236  19.666  -0.536  0.00  0.00    -0.170 OA
ATOM     31  O   UNL     1       0.306  18.720   1.679  0.00  0.00    -0.170 OA
ATOM     32  C   UNL     1       2.230  18.737  -0.160  0.00  0.00    +0.200 C 
ENDBRANCH  26  29
BRANCH  28  33
ATOM     33  N   UNL     1      -1.591  15.593  -3.338  0.00  0.00    +0.058 N 
ATOM     34  O   UNL     1      -1.365  14.567  -3.954  0.00  0.00    -0.126 OA
ATOM     35  O   UNL     1      -2.246  16.481  -3.854  0.00  0.00    -0.126 OA
ENDBRANCH  28  33
ENDBRANCH  21  23
ENDBRANCH  20  21
ENDBRANCH  19  20
ENDBRANCH   3  19
TORSDOF 8
