REMARK  Name = ZINC09018072
REMARK  5 active torsions:
REMARK  status: ('A' for Active; 'I' for Inactive)
REMARK    1  A    between atoms: C_1  and  C_2
REMARK    2  A    between atoms: C_7  and  C_8
REMARK    3  A    between atoms: C_8  and  C_9
REMARK    4  A    between atoms: N_11  and  C_12
REMARK    5  A    between atoms: C_14  and  C_29
REMARK                            x       y       z     vdW  Elec       q    Type
REMARK                         _______ _______ _______ _____ _____    ______ ____
ROOT
ATOM      1  C   UNL     1       2.930   3.835  -0.005  0.00  0.00    +0.132 A 
ATOM      2  C   UNL     1       4.065   3.085  -0.021  0.00  0.00    +0.068 A 
ATOM      3  C   UNL     1       5.158   3.959  -0.026  0.00  0.00    +0.062 A 
ATOM      4  N   UNL     1       4.708   5.187  -0.015  0.00  0.00    -0.167 NA
ATOM      5  N   UNL     1       3.308   5.146  -0.007  0.00  0.00    -0.185 N 
ATOM      6  C   UNL     1       2.460   6.239  -0.001  0.00  0.00    +0.234 A 
ATOM      7  N   UNL     1       2.985   7.492  -0.004  0.00  0.00    -0.291 N 
ATOM      8  H   UNL     1       3.947   7.620  -0.013  0.00  0.00    +0.172 HD
ATOM      9  C   UNL     1       2.159   8.558   0.006  0.00  0.00    +0.256 A 
ATOM     10  O   UNL     1       2.611   9.691   0.002  0.00  0.00    -0.267 OA
ATOM     11  C   UNL     1       0.763   8.344   0.021  0.00  0.00    +0.038 A 
ATOM     12  C   UNL     1       0.296   7.070   0.017  0.00  0.00    +0.053 A 
ATOM     13  N   UNL     1       1.162   6.048   0.003  0.00  0.00    -0.217 NA
ATOM     14  C   UNL     1      -1.174   6.744   0.019  0.00  0.00    +0.056 C 
ATOM     15  C   UNL     1      -1.992   7.952   0.470  0.00  0.00    +0.006 C 
ATOM     16  C   UNL     1      -1.559   9.166  -0.361  0.00  0.00    +0.005 C 
ATOM     17  C   UNL     1      -0.139   9.548   0.051  0.00  0.00    +0.042 C 
ATOM     18  C   UNL     1       6.609   3.554  -0.043  0.00  0.00    +0.067 C 
ENDROOT
BRANCH   1  21
ATOM     19  C   UNL     1       1.395   2.024  -0.000  0.00  0.00    +0.223 C 
ATOM     20  O   UNL     1       2.328   1.249  -0.013  0.00  0.00    -0.275 OA
ATOM     21  N   UNL     1       1.624   3.353   0.005  0.00  0.00    -0.270 N 
ATOM     22  H   UNL     1       0.878   3.973   0.015  0.00  0.00    +0.156 HD
BRANCH  19  23
ATOM     23  C   UNL     1      -0.018   1.503   0.010  0.00  0.00    +0.131 C 
BRANCH  23  30
ATOM     24  C   UNL     1       0.243   0.048   2.493  0.00  0.00    +0.044 C 
ATOM     25  C   UNL     1       0.127  -0.700   1.190  0.00  0.00    -0.047 A 
ATOM     26  C   UNL     1       0.145  -2.083   1.182  0.00  0.00    +0.003 A 
ATOM     27  C   UNL     1       0.039  -2.768  -0.013  0.00  0.00    +0.000 A 
ATOM     28  C   UNL     1      -0.086  -2.072  -1.201  0.00  0.00    +0.000 A 
ATOM     29  C   UNL     1      -0.110  -0.690  -1.193  0.00  0.00    +0.004 A 
ATOM     30  C   UNL     1       0.002  -0.004   0.002  0.00  0.00    -0.036 A 
ENDBRANCH  23  30
ENDBRANCH  19  23
ENDBRANCH   1  21
TORSDOF 3
