REMARK  Name = ZINC09124439
REMARK  10 active torsions:
REMARK  status: ('A' for Active; 'I' for Inactive)
REMARK    1  A    between atoms: C_1  and  C_2
REMARK    2  A    between atoms: C_2  and  O_3
REMARK    3  A    between atoms: O_3  and  C_4
REMARK    4  A    between atoms: C_7  and  C_10
REMARK    5  A    between atoms: C_13  and  C_28
REMARK    6  A    between atoms: N_20  and  C_21
REMARK    7  A    between atoms: C_21  and  C_22
REMARK    8  A    between atoms: C_30  and  C_36
REMARK    9  A    between atoms: C_32  and  C_35
REMARK   10  A    between atoms: C_33  and  O_34
REMARK                            x       y       z     vdW  Elec       q    Type
REMARK                         _______ _______ _______ _____ _____    ______ ____
ROOT
ATOM      1  C   UNL     1      -2.221  -5.666   0.164  0.00  0.00    +0.142 C 
ATOM      2  C   UNL     1      -2.294  -6.413   1.467  0.00  0.00    +0.035 A 
ATOM      3  C   UNL     1      -1.679  -6.725   2.684  0.00  0.00    +0.102 A 
ATOM      4  N   UNL     1      -2.488  -7.535   3.339  0.00  0.00    -0.173 NA
ATOM      5  N   UNL     1      -3.552  -7.764   2.656  0.00  0.00    -0.272 N 
ATOM      6  H   UNL     1      -4.286  -8.331   2.942  0.00  0.00    +0.189 HD
ATOM      7  C   UNL     1      -3.498  -7.091   1.469  0.00  0.00    +0.126 A 
ATOM      8  C   UNL     1      -4.197  -6.804   0.212  0.00  0.00    +0.266 C 
ATOM      9  O   UNL     1      -5.286  -7.251  -0.095  0.00  0.00    -0.268 OA
ATOM     10  N   UNL     1      -3.463  -5.977  -0.556  0.00  0.00    -0.281 N 
ENDROOT
BRANCH   3  11
ATOM     11  C   UNL     1      -0.358  -6.235   3.152  0.00  0.00    +0.044 A 
ATOM     12  C   UNL     1       0.448  -5.480   2.304  0.00  0.00    +0.017 A 
ATOM     13  C   UNL     1       1.675  -5.027   2.743  0.00  0.00    -0.049 A 
ATOM     14  C   UNL     1       2.109  -5.320   4.024  0.00  0.00    +0.010 A 
ATOM     15  C   UNL     1       1.317  -6.070   4.873  0.00  0.00    -0.008 A 
ATOM     16  C   UNL     1       0.080  -6.526   4.447  0.00  0.00    +0.129 A 
ATOM     17  C   UNL     1       1.796  -6.386   6.266  0.00  0.00    +0.047 C 
ATOM     18  C   UNL     1       2.547  -4.209   1.825  0.00  0.00    +0.044 C 
BRANCH  16  19
ATOM     19  O   UNL     1      -0.703  -7.257   5.283  0.00  0.00    -0.506 OA
ATOM     20  H   UNL     1      -0.550  -8.211   5.231  0.00  0.00    +0.292 HD
ENDBRANCH  16  19
ENDBRANCH   3  11
BRANCH   1  24
ATOM     21  C   UNL     1      -1.954  -1.463   0.890  0.00  0.00    +0.121 A 
ATOM     22  C   UNL     1      -3.126  -2.145   1.181  0.00  0.00    +0.046 A 
ATOM     23  C   UNL     1      -3.210  -3.504   0.945  0.00  0.00    +0.009 A 
ATOM     24  C   UNL     1      -2.127  -4.184   0.420  0.00  0.00    -0.022 A 
ATOM     25  C   UNL     1      -0.957  -3.506   0.130  0.00  0.00    +0.009 A 
ATOM     26  C   UNL     1      -0.870  -2.147   0.358  0.00  0.00    +0.046 A 
BRANCH  21  27
ATOM     27  O   UNL     1      -1.869  -0.127   1.121  0.00  0.00    -0.492 OA
BRANCH  27  29
ATOM     28  C   UNL     1      -2.741   2.003   1.859  0.00  0.00    +0.048 C 
ATOM     29  C   UNL     1      -3.024   0.511   1.671  0.00  0.00    +0.225 C 
ENDBRANCH  27  29
ENDBRANCH  21  27
ENDBRANCH   1  24
BRANCH  10  30
ATOM     30  C   UNL     1      -3.837  -5.472  -1.879  0.00  0.00    +0.145 C 
BRANCH  30  31
ATOM     31  C   UNL     1      -3.335  -6.419  -2.938  0.00  0.00    -0.012 A 
ATOM     32  C   UNL     1      -2.072  -6.253  -3.486  0.00  0.00    +0.008 A 
ATOM     33  C   UNL     1      -1.651  -7.148  -4.458  0.00  0.00    +0.020 A 
ATOM     34  C   UNL     1      -2.499  -8.168  -4.846  0.00  0.00    +0.111 A 
ATOM     35  N   UNL     1      -3.694  -8.295  -4.304  0.00  0.00    -0.263 NA
ATOM     36  C   UNL     1      -4.125  -7.466  -3.372  0.00  0.00    +0.115 A 
ENDBRANCH  30  31
ENDBRANCH  10  30
TORSDOF 7
