REMARK  Name = ZINC67513590
REMARK  6 active torsions:
REMARK  status: ('A' for Active; 'I' for Inactive)
REMARK    1  A    between atoms: C_3  and  O_8
REMARK    2  A    between atoms: O_8  and  C_9
REMARK    3  A    between atoms: C_9  and  C_10
REMARK    4  A    between atoms: C_12  and  C_16
REMARK    5  A    between atoms: N_18  and  C_19
REMARK    6  A    between atoms: C_24  and  N_26
REMARK                            x       y       z     vdW  Elec       q    Type
REMARK                         _______ _______ _______ _____ _____    ______ ____
ROOT
ATOM      1  C   UNL     1       5.939   2.281  -0.043  0.00  0.00    +0.074 A 
ATOM      2  C   UNL     1       5.893   3.634  -0.031  0.00  0.00    +0.061 A 
ATOM      3  C   UNL     1       7.243   4.058  -0.043  0.00  0.00    +0.147 A 
ATOM      4  N   UNL     1       7.988   2.971  -0.062  0.00  0.00    -0.169 NA
ATOM      5  N   UNL     1       7.242   1.925  -0.057  0.00  0.00    -0.278 N 
ATOM      6  H   UNL     1       7.567   1.011  -0.065  0.00  0.00    +0.189 HD
ENDROOT
BRANCH   3   7
ATOM      7  C   UNL     1       7.726   5.454  -0.037  0.00  0.00    +0.264 C 
ATOM      8  O   UNL     1       6.929   6.372  -0.020  0.00  0.00    -0.268 OA
ATOM      9  N   UNL     1       9.049   5.710  -0.051  0.00  0.00    -0.306 N 
ATOM     10  H   UNL     1       9.684   4.977  -0.065  0.00  0.00    +0.149 HD
BRANCH   9  11
ATOM     11  C   UNL     1       9.527   7.095  -0.045  0.00  0.00    +0.088 C 
ATOM     12  C   UNL     1       9.681   7.608   1.404  0.00  0.00    +0.180 C 
ATOM     13  O   UNL     1      11.068   7.377   1.732  0.00  0.00    -0.380 OA
ATOM     14  C   UNL     1      11.805   7.729   0.541  0.00  0.00    +0.146 C 
ATOM     15  C   UNL     1      10.955   7.176  -0.629  0.00  0.00    -0.020 C 
BRANCH  15  16
ATOM     16  N   UNL     1      10.991   8.097  -1.774  0.00  0.00    +0.384 N 
ATOM     17  C   UNL     1      12.346   8.103  -2.384  0.00  0.00    -0.078 C 
ATOM     18  C   UNL     1      12.085   8.621  -3.821  0.00  0.00    -0.020 C 
ATOM     19  C   UNL     1      10.734   7.965  -4.185  0.00  0.00    -0.020 C 
ATOM     20  C   UNL     1      10.074   7.627  -2.835  0.00  0.00    -0.078 C 
ATOM     21  H   UNL     1      10.736   9.028  -1.481  0.00  0.00    -0.081 HD
ENDBRANCH  15  16
ENDBRANCH   9  11
ENDBRANCH   3   7
BRANCH   1  22
ATOM     22  C   UNL     1       4.757   1.346  -0.037  0.00  0.00    +0.283 C 
BRANCH  22  23
ATOM     23  O   UNL     1       3.548   2.107  -0.021  0.00  0.00    -0.486 OA
BRANCH  23  26
ATOM     24  C   UNL     1      -0.017   1.378   0.010  0.00  0.00    +0.006 A 
ATOM     25  C   UNL     1       1.169   2.087   0.002  0.00  0.00    +0.046 A 
ATOM     26  C   UNL     1       2.381   1.411  -0.013  0.00  0.00    +0.124 A 
ATOM     27  C   UNL     1       2.400   0.024  -0.021  0.00  0.00    +0.084 A 
ATOM     28  C   UNL     1       1.210  -0.682  -0.013  0.00  0.00    +0.127 A 
ATOM     29  C   UNL     1       0.002  -0.004   0.002  0.00  0.00    +0.038 A 
ATOM     30  F   UNL     1       1.226  -2.033  -0.021  0.00  0.00    -0.205 F 
ENDBRANCH  23  26
ENDBRANCH  22  23
ENDBRANCH   1  22
TORSDOF 6
