REMARK  Name = ZINC04885321
REMARK  7 active torsions:
REMARK  status: ('A' for Active; 'I' for Inactive)
REMARK    1  A    between atoms: C_1  and  C_2
REMARK    2  A    between atoms: C_2  and  O_3
REMARK    3  A    between atoms: O_3  and  C_4
REMARK    4  A    between atoms: C_4  and  C_6
REMARK    5  A    between atoms: C_6  and  C_30
REMARK    6  A    between atoms: C_11  and  C_13
REMARK    7  A    between atoms: N_20  and  C_23
REMARK                            x       y       z     vdW  Elec       q    Type
REMARK                         _______ _______ _______ _____ _____    ______ ____
ROOT
ATOM      1  C   UNL     1      -1.984   1.863   1.340  0.00  0.00    +0.041 C 
ATOM      2  C   UNL     1      -1.260   2.066  -0.012  0.00  0.00    +0.086 C 
ATOM      3  C   UNL     1      -0.699   3.512   0.057  0.00  0.00    +0.080 C 
ATOM      4  C   UNL     1      -1.137   4.046   1.437  0.00  0.00    +0.010 C 
ATOM      5  C   UNL     1       0.799   3.306   0.056  0.00  0.00    +0.229 C 
ATOM      6  O   UNL     1       1.628   4.190   0.097  0.00  0.00    -0.275 OA
ATOM      7  N   UNL     1       1.067   1.996   0.003  0.00  0.00    -0.210 N 
ATOM      8  C   UNL     1      -0.015   1.209  -0.036  0.00  0.00    +0.229 C 
ATOM      9  O   UNL     1       0.002  -0.002  -0.087  0.00  0.00    -0.275 OA
ATOM     10  C   UNL     1      -1.787   0.431   1.844  0.00  0.00    +0.002 C 
ATOM     11  N   UNL     1      -1.349   2.835   2.230  0.00  0.00    +0.397 N 
ATOM     12  H   UNL     1      -0.451   2.471   2.569  0.00  0.00    -0.083 HD
ATOM     13  H   UNL     1      -1.960   3.037   3.030  0.00  0.00    -0.083 HD
ENDROOT
BRANCH   7  14
ATOM     14  C   UNL     1       2.375   1.490  -0.012  0.00  0.00    +0.044 A 
ATOM     15  C   UNL     1       2.852   0.765   1.072  0.00  0.00    +0.027 A 
ATOM     16  C   UNL     1       4.138   0.263   1.054  0.00  0.00    +0.040 A 
ATOM     17  C   UNL     1       4.956   0.491  -0.040  0.00  0.00    +0.124 A 
ATOM     18  C   UNL     1       4.484   1.218  -1.120  0.00  0.00    +0.040 A 
ATOM     19  C   UNL     1       3.196   1.718  -1.108  0.00  0.00    +0.027 A 
ATOM     20  F   UNL     1       6.216   0.003  -0.054  0.00  0.00    -0.205 F 
ENDBRANCH   7  14
BRANCH   4  21
ATOM     21  C   UNL     1      -0.057   4.912   2.032  0.00  0.00    +0.092 A 
ATOM     22  C   UNL     1      -0.034   6.257   2.024  0.00  0.00    +0.043 A 
ATOM     23  C   UNL     1       1.152   6.650   2.686  0.00  0.00    +0.041 A 
ATOM     24  C   UNL     1       1.782   5.522   3.058  0.00  0.00    +0.195 A 
ATOM     25  O   UNL     1       1.042   4.473   2.665  0.00  0.00    -0.469 OA
ENDBRANCH   4  21
BRANCH   1  26
ATOM     26  C   UNL     1      -3.453   2.170   1.199  0.00  0.00    +0.297 C 
ATOM     27  O   UNL     1      -4.001   2.020   0.133  0.00  0.00    -0.252 OA
BRANCH  26  28
ATOM     28  O   UNL     1      -4.152   2.611   2.257  0.00  0.00    -0.466 OA
BRANCH  28  30
ATOM     29  C   UNL     1      -6.186   3.376   3.356  0.00  0.00    +0.048 C 
ATOM     30  C   UNL     1      -5.562   2.887   2.047  0.00  0.00    +0.228 C 
ENDBRANCH  28  30
ENDBRANCH  26  28
ENDBRANCH   1  26
TORSDOF 5
