REMARK  Name = ZINC67443283
REMARK  5 active torsions:
REMARK  status: ('A' for Active; 'I' for Inactive)
REMARK    1  A    between atoms: C_1  and  C_2
REMARK    2  A    between atoms: C_2  and  C_4
REMARK    3  A    between atoms: C_2  and  N_16
REMARK    4  A    between atoms: N_9  and  C_10
REMARK    5  A    between atoms: C_19  and  C_22
REMARK                            x       y       z     vdW  Elec       q    Type
REMARK                         _______ _______ _______ _____ _____    ______ ____
ROOT
ATOM      1  C   UNL     1      -0.692   1.314  -0.348  0.00  0.00    -0.004 C 
ATOM      2  C   UNL     1       0.002  -0.004   0.002  0.00  0.00    +0.017 C 
ENDROOT
BRANCH   2   3
ATOM      3  C   UNL     1       0.605  -0.601  -1.244  0.00  0.00    +0.207 C 
ATOM      4  O   UNL     1      -0.028  -1.398  -1.901  0.00  0.00    -0.277 OA
ATOM      5  N   UNL     1       1.848  -0.247  -1.626  0.00  0.00    -0.242 N 
ATOM      6  C   UNL     1       2.388  -0.781  -2.740  0.00  0.00    +0.306 C 
ATOM      7  O   UNL     1       1.753  -1.581  -3.400  0.00  0.00    -0.252 OA
ATOM      8  N   UNL     1       3.631  -0.427  -3.123  0.00  0.00    -0.296 N 
ATOM      9  H   UNL     1       2.355   0.391  -1.100  0.00  0.00    +0.159 HD
ATOM     10  H   UNL     1       4.137   0.211  -2.597  0.00  0.00    +0.151 HD
BRANCH   8  11
ATOM     11  C   UNL     1       4.217  -1.007  -4.334  0.00  0.00    +0.074 C 
ATOM     12  C   UNL     1       3.770  -0.200  -5.554  0.00  0.00    +0.022 C 
ATOM     13  C   UNL     1       4.382  -0.805  -6.819  0.00  0.00    +0.002 C 
ATOM     14  C   UNL     1       5.908  -0.769  -6.714  0.00  0.00    +0.000 C 
ATOM     15  C   UNL     1       6.355  -1.577  -5.494  0.00  0.00    +0.002 C 
ATOM     16  C   UNL     1       5.743  -0.971  -4.229  0.00  0.00    +0.022 C 
ENDBRANCH   8  11
ENDBRANCH   2   3
BRANCH   2  17
ATOM     17  N   UNL     1      -0.980  -0.939   0.567  0.00  0.00    +0.387 N 
ATOM     18  C   UNL     1      -1.598  -0.339   1.755  0.00  0.00    -0.077 C 
ATOM     19  C   UNL     1      -2.679  -1.274   2.301  0.00  0.00    -0.007 C 
ATOM     20  C   UNL     1      -2.043  -2.616   2.676  0.00  0.00    +0.054 C 
ATOM     21  C   UNL     1      -1.338  -3.198   1.448  0.00  0.00    -0.007 C 
ATOM     22  C   UNL     1      -0.307  -2.191   0.934  0.00  0.00    -0.077 C 
ATOM     23  H   UNL     1      -1.694  -1.131  -0.120  0.00  0.00    -0.081 HD
BRANCH  20  24
ATOM     24  C   UNL     1      -3.114  -3.569   3.141  0.00  0.00    +0.141 A 
ATOM     25  N   UNL     1      -4.138  -3.983   2.439  0.00  0.00    -0.133 NA
ATOM     26  N   UNL     1      -4.858  -4.791   3.135  0.00  0.00    -0.129 NA
ATOM     27  C   UNL     1      -4.323  -4.936   4.337  0.00  0.00    +0.161 A 
ATOM     28  N   UNL     1      -3.190  -4.160   4.364  0.00  0.00    -0.286 N 
ATOM     29  C   UNL     1      -2.414  -4.109   5.484  0.00  0.00    +0.094 A 
ATOM     30  C   UNL     1      -2.746  -4.822   6.581  0.00  0.00    +0.018 A 
ATOM     31  C   UNL     1      -3.897  -5.628   6.582  0.00  0.00    +0.005 A 
ATOM     32  C   UNL     1      -4.685  -5.682   5.475  0.00  0.00    +0.048 A 
ENDBRANCH  20  24
ENDBRANCH   2  17
TORSDOF 4
