REMARK  Name = ZINC12145889
REMARK  9 active torsions:
REMARK  status: ('A' for Active; 'I' for Inactive)
REMARK    1  A    between atoms: C_1  and  C_2
REMARK    2  A    between atoms: C_2  and  C_4
REMARK    3  A    between atoms: C_2  and  N_10
REMARK    4  A    between atoms: C_11  and  C_13
REMARK    5  A    between atoms: C_13  and  N_14
REMARK    6  A    between atoms: C_23  and  C_25
REMARK    7  A    between atoms: C_25  and  C_26
REMARK    8  A    between atoms: C_25  and  C_27
REMARK    9  A    between atoms: C_25  and  C_28
REMARK                            x       y       z     vdW  Elec       q    Type
REMARK                         _______ _______ _______ _____ _____    ______ ____
ROOT
ATOM      1  N   UNL     1       4.303  -0.157   0.540  0.00  0.00    -0.179 N 
ATOM      2  C   UNL     1       3.583   0.786  -0.077  0.00  0.00    +0.283 C 
ATOM      3  O   UNL     1       4.156   1.663  -0.698  0.00  0.00    -0.267 OA
ATOM      4  C   UNL     1       2.121   0.786  -0.021  0.00  0.00    +0.108 A 
ATOM      5  C   UNL     1       1.285   1.876  -0.000  0.00  0.00    +0.048 A 
ATOM      6  C   UNL     1      -0.017   1.397   0.010  0.00  0.00    +0.038 A 
ATOM      7  C   UNL     1       0.002  -0.004   0.002  0.00  0.00    +0.057 A 
ATOM      8  N   UNL     1       1.344  -0.358  -0.002  0.00  0.00    -0.330 N 
ATOM      9  C   UNL     1       1.887  -1.721   0.034  0.00  0.00    +0.175 C 
ATOM     10  C   UNL     1       2.777  -1.834   1.248  0.00  0.00    +0.062 C 
ATOM     11  N   UNL     1       3.811  -1.120   1.394  0.00  0.00    -0.183 NA
ATOM     12  C   UNL     1      -1.252  -0.630   0.004  0.00  0.00    +0.034 A 
ATOM     13  C   UNL     1      -2.380   0.112   0.018  0.00  0.00    +0.048 A 
ATOM     14  S   UNL     1      -1.749   1.781   0.022  0.00  0.00    -0.095 S 
ENDROOT
BRANCH  10  15
ATOM     15  C   UNL     1       2.421  -2.830   2.322  0.00  0.00    +0.004 C 
ATOM     16  C   UNL     1       3.460  -2.764   3.443  0.00  0.00    +0.017 C 
ATOM     17  C   UNL     1       1.039  -2.499   2.888  0.00  0.00    +0.017 C 
ATOM     18  C   UNL     1       2.404  -4.239   1.725  0.00  0.00    +0.017 C 
ENDBRANCH  10  15
BRANCH   1  19
ATOM     19  C   UNL     1       5.745  -0.167   0.284  0.00  0.00    +0.231 C 
BRANCH  19  21
ATOM     20  N   UNL     1       7.782   0.845   1.258  0.00  0.00    -0.306 N 
ATOM     21  C   UNL     1       6.442   0.703   1.298  0.00  0.00    +0.233 C 
ATOM     22  O   UNL     1       5.797   1.276   2.150  0.00  0.00    -0.274 OA
ATOM     23  H   UNL     1       8.297   0.387   0.576  0.00  0.00    +0.149 HD
BRANCH  20  25
ATOM     24  C   UNL     1       8.437   3.145   1.768  0.00  0.00    +0.034 C 
ATOM     25  C   UNL     1       8.459   1.692   2.243  0.00  0.00    +0.119 C 
BRANCH  25  26
ATOM     26  C   UNL     1       9.886   1.235   2.401  0.00  0.00    +0.061 A 
ATOM     27  C   UNL     1      10.560   1.495   3.579  0.00  0.00    +0.025 A 
ATOM     28  C   UNL     1      11.873   1.071   3.714  0.00  0.00    +0.003 A 
ATOM     29  C   UNL     1      12.461   0.398   2.654  0.00  0.00    +0.020 A 
ATOM     30  C   UNL     1      11.725   0.175   1.506  0.00  0.00    +0.111 A 
ATOM     31  N   UNL     1      10.476   0.588   1.415  0.00  0.00    -0.258 NA
ENDBRANCH  25  26
ENDBRANCH  20  25
ENDBRANCH  19  21
ENDBRANCH   1  19
TORSDOF 5
