REMARK  Name = ZINC62779631
REMARK  2 active torsions:
REMARK  status: ('A' for Active; 'I' for Inactive)
REMARK    1  A    between atoms: C_6  and  C_7
REMARK    2  A    between atoms: C_7  and  C_9
REMARK                            x       y       z     vdW  Elec       q    Type
REMARK                         _______ _______ _______ _____ _____    ______ ____
ROOT
ATOM      1  C   UNL     1      -1.231  -1.698   1.293  0.00  0.00    -0.012 A 
ATOM      2  C   UNL     1      -1.896  -1.195   2.395  0.00  0.00    +0.034 A 
ATOM      3  C   UNL     1      -1.922  -1.920   3.575  0.00  0.00    +0.067 A 
ATOM      4  C   UNL     1      -1.276  -3.157   3.647  0.00  0.00    +0.068 A 
ATOM      5  C   UNL     1      -0.612  -3.654   2.537  0.00  0.00    +0.043 A 
ATOM      6  C   UNL     1      -0.596  -2.926   1.362  0.00  0.00    +0.025 A 
ATOM      7 BR   UNL     1       0.304  -3.607  -0.156  0.00  0.00    -0.050 Br
ATOM      8  N   UNL     1      -1.473  -3.640   4.939  0.00  0.00    -0.306 N 
ATOM      9  H   UNL     1      -1.140  -4.481   5.287  0.00  0.00    +0.170 HD
ATOM     10  C   UNL     1      -2.205  -2.739   5.621  0.00  0.00    +0.325 A 
ATOM     11  O   UNL     1      -2.554  -2.854   6.781  0.00  0.00    -0.247 OA
ATOM     12  N   UNL     1      -2.491  -1.691   4.826  0.00  0.00    -0.306 N 
ATOM     13  H   UNL     1      -3.006  -0.909   5.081  0.00  0.00    +0.170 HD
ENDROOT
BRANCH   1  14
ATOM     14  C   UNL     1      -1.203  -0.909   0.009  0.00  0.00    +0.135 C 
ATOM     15 BR   UNL     1      -1.403   1.005   0.411  0.00  0.00    -0.076 Br
BRANCH  14  21
ATOM     16  C   UNL     1      -2.211  -1.972  -2.079  0.00  0.00    +0.045 A 
ATOM     17  C   UNL     1      -3.497  -2.215  -2.572  0.00  0.00    +0.134 A 
ATOM     18  N   UNL     1      -4.361  -1.762  -1.701  0.00  0.00    -0.182 NA
ATOM     19  N   UNL     1      -3.651  -1.215  -0.624  0.00  0.00    -0.280 N 
ATOM     20  H   UNL     1      -4.038  -0.807   0.166  0.00  0.00    +0.189 HD
ATOM     21  C   UNL     1      -2.334  -1.356  -0.880  0.00  0.00    +0.054 A 
ENDBRANCH  14  21
ENDBRANCH   1  14
TORSDOF 2
