REMARK  Name = ZINC09443365
REMARK  6 active torsions:
REMARK  status: ('A' for Active; 'I' for Inactive)
REMARK    1  A    between atoms: C_6  and  C_7
REMARK    2  A    between atoms: C_17  and  C_19
REMARK    3  A    between atoms: C_26  and  C_28
REMARK    4  A    between atoms: C_28  and  O_29
REMARK    5  A    between atoms: O_29  and  C_30
REMARK    6  A    between atoms: C_30  and  C_32
REMARK                            x       y       z     vdW  Elec       q    Type
REMARK                         _______ _______ _______ _____ _____    ______ ____
ROOT
ATOM      1  C   UNL     1      -0.074   5.589   0.032  0.00  0.00    +0.013 C 
ATOM      2  C   UNL     1      -1.247   6.248  -0.056  0.00  0.00    -0.024 C 
ATOM      3  C   UNL     1      -2.531   5.474  -0.053  0.00  0.00    +0.037 C 
ATOM      4  C   UNL     1      -3.774   6.335   0.032  0.00  0.00    +0.005 C 
ATOM      5  C   UNL     1      -3.626   7.667  -0.701  0.00  0.00    +0.012 C 
ATOM      6  C   UNL     1      -2.530   8.475  -0.004  0.00  0.00    +0.066 C 
ATOM      7  C   UNL     1      -1.249   7.659  -0.154  0.00  0.00    +0.068 C 
ATOM      8  N   UNL     1      -0.281   8.475  -0.392  0.00  0.00    -0.181 NA
ATOM      9  N   UNL     1      -0.704   9.784  -0.653  0.00  0.00    -0.182 N 
ATOM     10  C   UNL     1      -2.181   9.766  -0.764  0.00  0.00    +0.140 C 
ATOM     11  C   UNL     1       0.090  10.865  -0.780  0.00  0.00    +0.273 C 
ATOM     12  O   UNL     1      -0.398  11.952  -1.008  0.00  0.00    -0.270 OA
ENDROOT
BRANCH   1  18
ATOM     13  C   UNL     1      -0.810   3.446  -0.996  0.00  0.00    +0.011 A 
ATOM     14  C   UNL     1      -0.782   2.069  -1.053  0.00  0.00    +0.039 A 
ATOM     15  C   UNL     1      -0.000   1.351  -0.161  0.00  0.00    +0.123 A 
ATOM     16  C   UNL     1       0.753   2.012   0.797  0.00  0.00    +0.039 A 
ATOM     17  C   UNL     1       0.738   3.389   0.862  0.00  0.00    +0.011 A 
ATOM     18  C   UNL     1      -0.049   4.119  -0.035  0.00  0.00    -0.025 A 
ATOM     19  F   UNL     1       0.023   0.002  -0.222  0.00  0.00    -0.205 F 
ENDBRANCH   1  18
BRANCH  10  20
ATOM     20  C   UNL     1      -2.614   9.679  -2.204  0.00  0.00    -0.024 A 
ATOM     21  C   UNL     1      -1.833   8.999  -3.121  0.00  0.00    +0.008 A 
ATOM     22  C   UNL     1      -2.231   8.915  -4.441  0.00  0.00    +0.038 A 
ATOM     23  C   UNL     1      -3.408   9.521  -4.849  0.00  0.00    +0.123 A 
ATOM     24  C   UNL     1      -4.186  10.206  -3.931  0.00  0.00    +0.038 A 
ATOM     25  C   UNL     1      -3.788  10.284  -2.610  0.00  0.00    +0.008 A 
ATOM     26  F   UNL     1      -3.796   9.443  -6.140  0.00  0.00    -0.205 F 
ENDBRANCH  10  20
BRANCH  11  27
ATOM     27  C   UNL     1       1.584  10.724  -0.640  0.00  0.00    +0.330 C 
BRANCH  27  28
ATOM     28  O   UNL     1       2.212  12.021  -0.818  0.00  0.00    -0.451 OA
BRANCH  28  29
ATOM     29  C   UNL     1       3.554  12.069  -0.723  0.00  0.00    +0.360 C 
ATOM     30  O   UNL     1       4.184  11.055  -0.498  0.00  0.00    -0.243 OA
BRANCH  29  31
ATOM     31  C   UNL     1       4.263  13.358  -0.893  0.00  0.00    +0.166 A 
ATOM     32  C   UNL     1       5.653  13.411  -0.789  0.00  0.00    +0.145 A 
ATOM     33  N   UNL     1       6.281  14.562  -0.948  0.00  0.00    -0.259 NA
ATOM     34  C   UNL     1       5.593  15.663  -1.193  0.00  0.00    +0.130 A 
ATOM     35  C   UNL     1       4.210  15.615  -1.291  0.00  0.00    +0.131 A 
ATOM     36  N   UNL     1       3.575  14.470  -1.140  0.00  0.00    -0.245 NA
ENDBRANCH  29  31
ENDBRANCH  28  29
ENDBRANCH  27  28
ENDBRANCH  11  27
TORSDOF 6
