REMARK  Name = ZINC12219209
REMARK  13 active torsions:
REMARK  status: ('A' for Active; 'I' for Inactive)
REMARK    1  A    between atoms: C_1  and  C_2
REMARK    2  A    between atoms: C_3  and  C_9
REMARK    3  A    between atoms: C_4  and  C_8
REMARK    4  A    between atoms: C_9  and  N_61
REMARK    5  A    between atoms: C_10  and  N_61
REMARK    6  A    between atoms: C_11  and  C_12
REMARK    7  A    between atoms: C_11  and  N_61
REMARK    8  A    between atoms: C_16  and  N_25
REMARK    9  A    between atoms: C_17  and  C_21
REMARK   10  A    between atoms: C_21  and  O_23
REMARK   11  A    between atoms: O_23  and  C_24
REMARK   12  A    between atoms: C_26  and  C_28
REMARK   13  A    between atoms: C_28  and  C_29
REMARK                            x       y       z     vdW  Elec       q    Type
REMARK                         _______ _______ _______ _____ _____    ______ ____
ROOT
ATOM      1  C   UNL     1       3.206  -5.397   0.457  0.00  0.00    +0.026 A 
ATOM      2  C   UNL     1       3.913  -4.938  -0.645  0.00  0.00    +0.022 A 
ATOM      3  C   UNL     1       3.318  -4.088  -1.547  0.00  0.00    +0.014 A 
ATOM      4  C   UNL     1       1.975  -3.688  -1.333  0.00  0.00    +0.030 A 
ATOM      5  C   UNL     1       1.150  -2.806  -2.143  0.00  0.00    +0.064 A 
ATOM      6  C   UNL     1      -0.141  -2.560  -1.733  0.00  0.00    +0.120 A 
ATOM      7  S   UNL     1      -0.285  -3.508  -0.231  0.00  0.00    -0.060 S 
ATOM      8  C   UNL     1       1.344  -4.212  -0.181  0.00  0.00    +0.111 A 
ATOM      9  N   UNL     1       1.957  -5.024   0.653  0.00  0.00    -0.246 NA
ENDROOT
BRANCH   5  10
ATOM     10  N   UNL     1       1.653  -2.226  -3.303  0.00  0.00    -0.284 N 
ATOM     11  C   UNL     1       1.741  -2.951  -4.435  0.00  0.00    +0.222 C 
ATOM     12  O   UNL     1       1.288  -4.075  -4.472  0.00  0.00    -0.275 OA
ATOM     13  H   UNL     1       1.940  -1.299  -3.296  0.00  0.00    +0.155 HD
BRANCH  11  14
ATOM     14  C   UNL     1       2.403  -2.365  -5.656  0.00  0.00    +0.134 C 
BRANCH  14  15
ATOM     15  C   UNL     1       2.371  -3.371  -6.777  0.00  0.00    -0.003 A 
ATOM     16  C   UNL     1       3.458  -4.196  -6.997  0.00  0.00    +0.007 A 
ATOM     17  C   UNL     1       3.427  -5.124  -8.021  0.00  0.00    +0.000 A 
ATOM     18  C   UNL     1       2.313  -5.219  -8.835  0.00  0.00    +0.003 A 
ATOM     19  C   UNL     1       1.227  -4.391  -8.621  0.00  0.00    +0.038 A 
ATOM     20  C   UNL     1       1.256  -3.466  -7.591  0.00  0.00    +0.127 A 
ATOM     21  F   UNL     1       0.195  -2.655  -7.381  0.00  0.00    -0.205 F 
ENDBRANCH  14  15
ENDBRANCH  11  14
ENDBRANCH   5  10
BRANCH   6  22
ATOM     22  C   UNL     1      -1.120  -1.743  -2.354  0.00  0.00    +0.348 C 
ATOM     23  O   UNL     1      -0.873  -1.196  -3.412  0.00  0.00    -0.244 OA
BRANCH  22  24
ATOM     24  O   UNL     1      -2.325  -1.572  -1.771  0.00  0.00    -0.464 OA
ATOM     25  C   UNL     1      -3.262  -0.736  -2.452  0.00  0.00    +0.280 C 
ENDBRANCH  22  24
ENDBRANCH   6  22
BRANCH   1  26
ATOM     26  C   UNL     1       3.871  -6.329   1.437  0.00  0.00    -0.022 C 
BRANCH  26  28
ATOM     27  C   UNL     1       5.519  -4.683   2.099  0.00  0.00    -0.095 C 
ATOM     28  N   UNL     1       4.404  -5.534   2.564  0.00  0.00    +0.384 N 
ATOM     29  H   UNL     1       3.656  -4.934   2.931  0.00  0.00    -0.081 HD
BRANCH  28  30
ATOM     30  C   UNL     1       4.869  -6.434   3.641  0.00  0.00    -0.039 C 
BRANCH  30  33
ATOM     31  C   UNL     1       2.883  -5.644   5.925  0.00  0.00    +0.065 C 
ATOM     32  C   UNL     1       4.340  -5.265   5.844  0.00  0.00    +0.035 A 
ATOM     33  C   UNL     1       5.199  -5.606   4.856  0.00  0.00    -0.021 A 
ATOM     34  C   UNL     1       6.449  -5.061   5.166  0.00  0.00    +0.061 A 
ATOM     35  N   UNL     1       6.342  -4.407   6.294  0.00  0.00    -0.179 NA
ATOM     36  N   UNL     1       5.020  -4.525   6.744  0.00  0.00    -0.281 N 
ATOM     37  H   UNL     1       4.647  -4.130   7.583  0.00  0.00    +0.189 HD
ATOM     38  C   UNL     1       7.702  -5.198   4.341  0.00  0.00    +0.068 C 
ENDBRANCH  30  33
ENDBRANCH  28  30
ENDBRANCH  26  28
ENDBRANCH   1  26
TORSDOF 9
