REMARK  Name = ZINC16945575
REMARK  4 active torsions:
REMARK  status: ('A' for Active; 'I' for Inactive)
REMARK    1  A    between atoms: C_1  and  C_2
REMARK    2  A    between atoms: C_2  and  C_3
REMARK    3  A    between atoms: C_2  and  C_4
REMARK    4  A    between atoms: C_7  and  C_12
REMARK                            x       y       z     vdW  Elec       q    Type
REMARK                         _______ _______ _______ _____ _____    ______ ____
ROOT
ATOM      1  C   UNL     1      -0.024   4.178   0.025  0.00  0.00    +0.025 A 
ATOM      2  C   UNL     1      -1.210   3.515   0.032  0.00  0.00    -0.023 A 
ATOM      3  C   UNL     1      -1.226   2.119   0.019  0.00  0.00    -0.020 A 
ATOM      4  C   UNL     1      -0.017   1.428   0.010  0.00  0.00    +0.119 A 
ATOM      5  C   UNL     1       1.195   2.166   0.002  0.00  0.00    +0.267 A 
ATOM      6  O   UNL     1       2.266   1.584  -0.011  0.00  0.00    -0.266 OA
ATOM      7  N   UNL     1       1.156   3.512   0.010  0.00  0.00    -0.325 N 
ATOM      8  H   UNL     1       2.103   4.071   0.004  0.00  0.00    +0.169 HD
ATOM      9  C   UNL     1      -2.654   1.625   0.037  0.00  0.00    +0.037 C 
ATOM     10  C   UNL     1      -3.497   2.836   0.491  0.00  0.00    +0.009 C 
ATOM     11  C   UNL     1      -2.632   4.034   0.048  0.00  0.00    +0.037 C 
ENDROOT
BRANCH   1  13
ATOM     12  C   UNL     1       0.714   6.186   1.279  0.00  0.00    +0.013 C 
ATOM     13  C   UNL     1      -0.020   5.684   0.033  0.00  0.00    +0.030 C 
ATOM     14  C   UNL     1       0.691   6.200  -1.220  0.00  0.00    +0.013 C 
ENDBRANCH   1  13
BRANCH   4  15
ATOM     15  C   UNL     1       0.002  -0.004   0.002  0.00  0.00    +0.105 C 
ATOM     16  N   UNL     1       0.018  -1.140  -0.004  0.00  0.00    -0.191 NA
ENDBRANCH   4  15
TORSDOF 2
