REMARK  Name = ZINC36011811
REMARK  15 active torsions:
REMARK  status: ('A' for Active; 'I' for Inactive)
REMARK    1  A    between atoms: C_1  and  O_2
REMARK    2  A    between atoms: O_2  and  C_3
REMARK    3  A    between atoms: C_6  and  C_11
REMARK    4  A    between atoms: C_8  and  O_9
REMARK    5  A    between atoms: O_9  and  C_10
REMARK    6  A    between atoms: N_12  and  N_13
REMARK    7  A    between atoms: C_14  and  C_16
REMARK    8  A    between atoms: C_16  and  N_17
REMARK    9  A    between atoms: C_20  and  C_23
REMARK   10  A    between atoms: N_25  and  N_26
REMARK   11  A    between atoms: C_27  and  C_28
REMARK   12  A    between atoms: C_31  and  O_36
REMARK   13  A    between atoms: C_32  and  O_34
REMARK   14  A    between atoms: O_34  and  C_35
REMARK   15  A    between atoms: O_36  and  C_37
REMARK                            x       y       z     vdW  Elec       q    Type
REMARK                         _______ _______ _______ _____ _____    ______ ____
ROOT
ATOM      1  N   UNL     1       3.644   2.449  -7.538  0.00  0.00    +0.385 N 
ATOM      2  C   UNL     1       2.700   2.074  -8.597  0.00  0.00    -0.077 C 
ATOM      3  C   UNL     1       3.201   2.600  -9.944  0.00  0.00    -0.006 C 
ATOM      4  C   UNL     1       3.317   4.126  -9.878  0.00  0.00    +0.073 C 
ATOM      5  C   UNL     1       4.246   4.508  -8.723  0.00  0.00    -0.006 C 
ATOM      6  C   UNL     1       3.706   3.911  -7.422  0.00  0.00    -0.077 C 
ATOM      7  H   UNL     1       4.561   2.092  -7.765  0.00  0.00    -0.081 HD
ENDROOT
BRANCH   4   8
ATOM      8  C   UNL     1       3.884   4.644 -11.174  0.00  0.00    +0.235 C 
ATOM      9  O   UNL     1       4.169   3.871 -12.065  0.00  0.00    -0.274 OA
ATOM     10  N   UNL     1       4.075   5.968 -11.345  0.00  0.00    -0.207 N 
ATOM     11  H   UNL     1       3.847   6.586 -10.633  0.00  0.00    +0.177 HD
BRANCH  10  12
ATOM     12  N   UNL     1       4.602   6.450 -12.550  0.00  0.00    -0.188 NA
ATOM     13  C   UNL     1       4.786   7.724 -12.714  0.00  0.00    +0.138 C 
BRANCH  13  14
ATOM     14  C   UNL     1       5.341   8.231 -13.982  0.00  0.00    -0.002 A 
ATOM     15  C   UNL     1       5.664   7.342 -15.011  0.00  0.00    +0.013 A 
ATOM     16  C   UNL     1       6.184   7.819 -16.196  0.00  0.00    +0.050 A 
ATOM     17  C   UNL     1       6.386   9.180 -16.370  0.00  0.00    +0.162 A 
ATOM     18  C   UNL     1       6.066  10.072 -15.349  0.00  0.00    +0.162 A 
ATOM     19  C   UNL     1       5.540   9.603 -14.161  0.00  0.00    +0.059 A 
BRANCH  18  20
ATOM     20  O   UNL     1       6.267  11.406 -15.524  0.00  0.00    -0.491 OA
ATOM     21  C   UNL     1       5.917  12.263 -14.436  0.00  0.00    +0.277 C 
ENDBRANCH  18  20
BRANCH  17  22
ATOM     22  O   UNL     1       6.899   9.645 -17.541  0.00  0.00    -0.491 OA
ATOM     23  C   UNL     1       7.205   8.675 -18.545  0.00  0.00    +0.277 C 
ENDBRANCH  17  22
ENDBRANCH  13  14
ENDBRANCH  10  12
ENDBRANCH   4   8
BRANCH   1  24
ATOM     24  C   UNL     1       3.200   1.876  -6.261  0.00  0.00    +0.020 C 
BRANCH  24  26
ATOM     25  N   UNL     1       2.888  -0.372  -5.277  0.00  0.00    -0.209 N 
ATOM     26  C   UNL     1       3.253   0.372  -6.340  0.00  0.00    +0.216 C 
ATOM     27  O   UNL     1       3.626  -0.169  -7.360  0.00  0.00    -0.276 OA
ATOM     28  H   UNL     1       2.590   0.060  -4.462  0.00  0.00    +0.177 HD
BRANCH  25  30
ATOM     29  C   UNL     1       2.468  -2.488  -4.377  0.00  0.00    +0.138 C 
ATOM     30  N   UNL     1       2.938  -1.770  -5.351  0.00  0.00    -0.188 NA
BRANCH  29  34
ATOM     31  C   UNL     1      -0.564  -0.912  -1.853  0.00  0.00    +0.162 A 
ATOM     32  C   UNL     1      -0.276  -0.293  -3.060  0.00  0.00    +0.050 A 
ATOM     33  C   UNL     1       0.707  -0.801  -3.882  0.00  0.00    +0.013 A 
ATOM     34  C   UNL     1       1.417  -1.943  -3.499  0.00  0.00    -0.002 A 
ATOM     35  C   UNL     1       1.126  -2.566  -2.283  0.00  0.00    +0.059 A 
ATOM     36  C   UNL     1       0.143  -2.047  -1.462  0.00  0.00    +0.162 A 
BRANCH  31  38
ATOM     37  C   UNL     1      -2.220   0.760  -1.508  0.00  0.00    +0.277 C 
ATOM     38  O   UNL     1      -1.534  -0.406  -1.046  0.00  0.00    -0.491 OA
ENDBRANCH  31  38
BRANCH  36  39
ATOM     39  O   UNL     1      -0.139  -2.648  -0.275  0.00  0.00    -0.491 OA
ATOM     40  C   UNL     1       0.625  -3.808   0.062  0.00  0.00    +0.277 C 
ENDBRANCH  36  39
ENDBRANCH  29  34
ENDBRANCH  25  30
ENDBRANCH  24  26
ENDBRANCH   1  24
TORSDOF 11
