REMARK  Name = ZINC04531396
REMARK  2 active torsions:
REMARK  status: ('A' for Active; 'I' for Inactive)
REMARK    1  A    between atoms: C_4  and  N_7
REMARK    2  A    between atoms: C_13  and  C_14
REMARK                            x       y       z     vdW  Elec       q    Type
REMARK                         _______ _______ _______ _____ _____    ______ ____
ROOT
ATOM      1  N   UNL     1       1.375  -1.907   0.935  0.00  0.00    -0.226 NA
ATOM      2  C   UNL     1       1.190  -0.618   0.762  0.00  0.00    +0.166 C 
ATOM      3  N   UNL     1       0.030   0.109   0.915  0.00  0.00    -0.260 N 
ATOM      4  C   UNL     1       0.018   1.413   0.698  0.00  0.00    +0.256 C 
ATOM      5  O   UNL     1      -0.999   2.070   0.824  0.00  0.00    -0.269 OA
ATOM      6  C   UNL     1       1.294   2.035   0.289  0.00  0.00    +0.078 C 
ATOM      7  C   UNL     1       1.566   3.333   0.005  0.00  0.00    +0.028 C 
ATOM      8  S   UNL     1       2.381   0.618   0.269  0.00  0.00    -0.049 S 
ATOM      9  H   UNL     1      -0.786  -0.340   1.186  0.00  0.00    +0.157 HD
ENDROOT
BRANCH   7  10
ATOM     10  C   UNL     1       0.472   4.310  -0.090  0.00  0.00    -0.024 A 
ATOM     11  C   UNL     1      -0.738   3.954  -0.696  0.00  0.00    +0.009 A 
ATOM     12  C   UNL     1      -1.761   4.874  -0.777  0.00  0.00    +0.016 A 
ATOM     13  C   UNL     1      -1.590   6.152  -0.270  0.00  0.00    +0.018 A 
ATOM     14  C   UNL     1      -0.393   6.513   0.326  0.00  0.00    +0.016 A 
ATOM     15  C   UNL     1       0.637   5.603   0.419  0.00  0.00    +0.009 A 
ATOM     16 BR   UNL     1      -2.998   7.409  -0.393  0.00  0.00    -0.050 Br
ENDBRANCH   7  10
BRANCH   1  20
ATOM     17  C   UNL     1      -1.785  -4.314   2.094  0.00  0.00    +0.000 A 
ATOM     18  C   UNL     1      -0.941  -4.728   1.078  0.00  0.00    +0.002 A 
ATOM     19  C   UNL     1       0.114  -3.930   0.687  0.00  0.00    +0.028 A 
ATOM     20  C   UNL     1       0.330  -2.703   1.318  0.00  0.00    +0.067 A 
ATOM     21  C   UNL     1      -0.523  -2.295   2.346  0.00  0.00    +0.028 A 
ATOM     22  C   UNL     1      -1.577  -3.100   2.724  0.00  0.00    +0.002 A 
ENDBRANCH   1  20
TORSDOF 2
