REMARK  Name = ZINC39590602
REMARK  5 active torsions:
REMARK  status: ('A' for Active; 'I' for Inactive)
REMARK    1  A    between atoms: C_4  and  C_7
REMARK    2  A    between atoms: C_9  and  C_13
REMARK    3  A    between atoms: C_17  and  S_31
REMARK    4  A    between atoms: N_19  and  N_20
REMARK    5  A    between atoms: C_21  and  C_22
REMARK                            x       y       z     vdW  Elec       q    Type
REMARK                         _______ _______ _______ _____ _____    ______ ____
ROOT
ATOM      1  C   UNL     1       5.763  -2.987  -1.332  0.00  0.00    +0.263 C 
ATOM      2  N   UNL     1       5.054  -4.265  -1.430  0.00  0.00    -0.163 NA
ATOM      3  N   UNL     1       5.830  -5.219  -1.430  0.00  0.00    -0.155 NA
ATOM      4  C   UNL     1       7.225  -4.786  -1.333  0.00  0.00    +0.288 C 
ATOM      5  N   UNL     1       7.199  -3.313  -1.268  0.00  0.00    -0.192 N 
ENDROOT
BRANCH   1   8
ATOM      6  C   UNL     1       3.699  -0.689  -0.037  0.00  0.00    +0.091 C 
ATOM      7  C   UNL     1       3.832  -2.029  -0.051  0.00  0.00    +0.035 C 
ATOM      8  C   UNL     1       5.335  -2.245  -0.065  0.00  0.00    +0.198 C 
ATOM      9  N   UNL     1       5.871  -0.874  -0.056  0.00  0.00    -0.176 NA
ATOM     10  N   UNL     1       4.919  -0.090  -0.047  0.00  0.00    -0.154 NA
BRANCH   6  14
ATOM     11  C   UNL     1      -0.017   1.379   0.010  0.00  0.00    +0.000 A 
ATOM     12  C   UNL     1       1.169   2.092   0.002  0.00  0.00    +0.001 A 
ATOM     13  C   UNL     1       2.377   1.426  -0.013  0.00  0.00    +0.010 A 
ATOM     14  C   UNL     1       2.402   0.033  -0.021  0.00  0.00    +0.002 A 
ATOM     15  C   UNL     1       1.205  -0.680  -0.013  0.00  0.00    +0.010 A 
ATOM     16  C   UNL     1       0.002  -0.004   0.002  0.00  0.00    +0.001 A 
ENDBRANCH   6  14
ENDBRANCH   1   8
BRANCH   5  17
ATOM     17  N   UNL     1       8.196  -2.500  -1.176  0.00  0.00    -0.188 NA
ATOM     18  C   UNL     1       9.421  -2.968  -1.130  0.00  0.00    +0.136 C 
BRANCH  18  19
ATOM     19  C   UNL     1      10.502  -2.087  -1.030  0.00  0.00    +0.000 C 
ATOM     20  C   UNL     1      11.858  -2.418  -0.977  0.00  0.00    +0.004 A 
ATOM     21  C   UNL     1      12.540  -3.653  -1.002  0.00  0.00    +0.010 A 
ATOM     22  C   UNL     1      13.896  -3.675  -0.933  0.00  0.00    +0.001 A 
ATOM     23  C   UNL     1      14.642  -2.499  -0.837  0.00  0.00    +0.002 A 
ATOM     24  C   UNL     1      14.053  -1.278  -0.808  0.00  0.00    +0.026 A 
ATOM     25  C   UNL     1      12.640  -1.175  -0.876  0.00  0.00    +0.043 A 
ATOM     26  N   UNL     1      11.840  -0.127  -0.866  0.00  0.00    -0.380 N 
ATOM     27  C   UNL     1      10.449  -0.577  -0.965  0.00  0.00    +0.150 C 
ATOM     28  H   UNL     1      12.128   0.798  -0.805  0.00  0.00    +0.160 HD
ENDBRANCH  18  19
ENDBRANCH   5  17
BRANCH   4  29
ATOM     29  S   UNL     1       7.984  -5.464   0.169  0.00  0.00    -0.130 S 
ATOM     30  H   UNL     1       7.912  -6.796  -0.004  0.00  0.00    +0.105 HD
ENDBRANCH   4  29
TORSDOF 5
