REMARK  Name = ZINC39358548
REMARK  7 active torsions:
REMARK  status: ('A' for Active; 'I' for Inactive)
REMARK    1  A    between atoms: C_1  and  O_2
REMARK    2  A    between atoms: O_2  and  C_3
REMARK    3  A    between atoms: C_6  and  C_17
REMARK    4  A    between atoms: C_8  and  O_9
REMARK    5  A    between atoms: O_9  and  C_10
REMARK    6  A    between atoms: C_10  and  C_11
REMARK    7  A    between atoms: C_20  and  O_33
REMARK                            x       y       z     vdW  Elec       q    Type
REMARK                         _______ _______ _______ _____ _____    ______ ____
ROOT
ATOM      1  C   UNL     1       2.507  -2.501  -4.386  0.00  0.00    +0.089 C 
ATOM      2  C   UNL     1       3.940  -2.066  -4.472  0.00  0.00    +0.048 C 
ATOM      3  C   UNL     1       5.090  -2.606  -4.133  0.00  0.00    +0.235 C 
ATOM      4  N   UNL     1       6.120  -1.824  -4.557  0.00  0.00    -0.114 NA
ATOM      5  N   UNL     1       5.770  -0.776  -5.115  0.00  0.00    -0.157 NA
ATOM      6  C   UNL     1       4.308  -0.710  -5.083  0.00  0.00    +0.245 C 
ATOM      7  N   UNL     1       3.707  -0.751  -6.418  0.00  0.00    -0.321 N 
ATOM      8  C   UNL     1       2.443  -1.262  -6.576  0.00  0.00    +0.013 C 
ATOM      9  C   UNL     1       1.833  -2.071  -5.681  0.00  0.00    +0.023 C 
ATOM     10  C   UNL     1       0.533  -2.559  -5.899  0.00  0.00    +0.162 C 
ATOM     11  O   UNL     1       0.028  -3.293  -5.073  0.00  0.00    -0.292 OA
ATOM     12  C   UNL     1      -0.246  -2.194  -7.132  0.00  0.00    +0.080 C 
ATOM     13  C   UNL     1       0.221  -0.817  -7.616  0.00  0.00    +0.014 C 
ATOM     14  C   UNL     1       1.734  -0.876  -7.858  0.00  0.00    +0.051 C 
ATOM     15  H   UNL     1       4.199  -0.418  -7.186  0.00  0.00    +0.148 HD
ENDROOT
BRANCH   1  19
ATOM     16  C   UNL     1       0.606  -0.608  -1.056  0.00  0.00    +0.162 A 
ATOM     17  C   UNL     1       1.173   0.159  -2.062  0.00  0.00    +0.050 A 
ATOM     18  C   UNL     1       1.787  -0.456  -3.137  0.00  0.00    +0.008 A 
ATOM     19  C   UNL     1       1.837  -1.836  -3.212  0.00  0.00    -0.032 A 
ATOM     20  C   UNL     1       1.273  -2.606  -2.212  0.00  0.00    +0.054 A 
ATOM     21  C   UNL     1       0.662  -1.996  -1.129  0.00  0.00    +0.163 A 
BRANCH  16  23
ATOM     22  C   UNL     1      -0.017   1.425   0.010  0.00  0.00    +0.277 C 
ATOM     23  O   UNL     1       0.002  -0.004   0.002  0.00  0.00    -0.491 OA
ENDBRANCH  16  23
BRANCH  21  24
ATOM     24  O   UNL     1       0.112  -2.753  -0.142  0.00  0.00    -0.484 OA
BRANCH  24  25
ATOM     25  C   UNL     1       0.206  -4.171  -0.283  0.00  0.00    +0.264 C 
BRANCH  25  26
ATOM     26  C   UNL     1      -0.453  -4.838   0.897  0.00  0.00    -0.010 A 
ATOM     27  C   UNL     1       0.286  -5.128   2.029  0.00  0.00    +0.007 A 
ATOM     28  C   UNL     1      -0.319  -5.740   3.111  0.00  0.00    +0.000 A 
ATOM     29  C   UNL     1      -1.663  -6.062   3.061  0.00  0.00    +0.000 A 
ATOM     30  C   UNL     1      -2.401  -5.771   1.929  0.00  0.00    +0.000 A 
ATOM     31  C   UNL     1      -1.798  -5.155   0.849  0.00  0.00    +0.007 A 
ENDBRANCH  25  26
ENDBRANCH  24  25
ENDBRANCH  21  24
ENDBRANCH   1  19
BRANCH   3  32
ATOM     32  O   UNL     1       5.230  -3.777  -3.457  0.00  0.00    -0.491 OA
ATOM     33  H   UNL     1       6.149  -4.027  -3.290  0.00  0.00    +0.294 HD
ENDBRANCH   3  32
TORSDOF 6
