REMARK  Name = ZINC31741098
REMARK  8 active torsions:
REMARK  status: ('A' for Active; 'I' for Inactive)
REMARK    1  A    between atoms: C_1  and  C_2
REMARK    2  A    between atoms: C_2  and  O_3
REMARK    3  A    between atoms: O_3  and  C_4
REMARK    4  A    between atoms: C_4  and  C_6
REMARK    5  A    between atoms: C_7  and  C_20
REMARK    6  A    between atoms: C_12  and  C_14
REMARK    7  A    between atoms: C_17  and  C_19
REMARK    8  A    between atoms: C_20  and  N_21
REMARK                            x       y       z     vdW  Elec       q    Type
REMARK                         _______ _______ _______ _____ _____    ______ ____
ROOT
ATOM      1  C   UNL     1      -4.267   3.371   1.976  0.00  0.00    +0.083 C 
ATOM      2  C   UNL     1      -4.168   2.117   1.485  0.00  0.00    +0.044 C 
ATOM      3  N   UNL     1      -4.487   1.033   2.252  0.00  0.00    -0.271 N 
ATOM      4  C   UNL     1      -4.918   1.119   3.517  0.00  0.00    +0.304 C 
ATOM      5  O   UNL     1      -5.177   0.096   4.120  0.00  0.00    -0.252 OA
ATOM      6  N   UNL     1      -5.072   2.302   4.143  0.00  0.00    -0.285 N 
ATOM      7  C   UNL     1      -4.754   3.534   3.402  0.00  0.00    +0.179 C 
ATOM      8  H   UNL     1      -4.395   0.019   1.836  0.00  0.00    +0.156 HD
ATOM      9  H   UNL     1      -5.426   2.362   5.183  0.00  0.00    +0.151 HD
ENDROOT
BRANCH   7  10
ATOM     10  C   UNL     1      -5.991   4.395   3.379  0.00  0.00    +0.130 A 
ATOM     11  C   UNL     1      -6.022   5.732   3.526  0.00  0.00    +0.047 A 
ATOM     12  C   UNL     1      -7.378   6.122   3.439  0.00  0.00    +0.045 A 
ATOM     13  C   UNL     1      -8.095   5.000   3.244  0.00  0.00    +0.102 A 
ATOM     14  O   UNL     1      -7.249   3.958   3.203  0.00  0.00    -0.463 OA
ATOM     15  C   UNL     1      -9.592   4.927   3.091  0.00  0.00    +0.086 C 
ENDBRANCH   7  10
BRANCH   1  16
ATOM     16  C   UNL     1      -3.932   4.495   1.185  0.00  0.00    +0.339 C 
ATOM     17  O   UNL     1      -3.662   4.351   0.007  0.00  0.00    -0.245 OA
BRANCH  16  18
ATOM     18  O   UNL     1      -3.911   5.726   1.736  0.00  0.00    -0.462 OA
BRANCH  18  20
ATOM     19  C   UNL     1      -3.594   8.121   1.675  0.00  0.00    +0.048 C 
ATOM     20  C   UNL     1      -3.564   6.816   0.879  0.00  0.00    +0.229 C 
ENDBRANCH  18  20
ENDBRANCH  16  18
ENDBRANCH   1  16
BRANCH   2  21
ATOM     21  C   UNL     1      -3.692   1.911   0.070  0.00  0.00    +0.177 C 
BRANCH  21  22
ATOM     22  N   UNL     1      -3.137   0.561  -0.066  0.00  0.00    -0.293 N 
ATOM     23  C   UNL     1      -3.949  -0.467  -0.428  0.00  0.00    +0.203 A 
ATOM     24  N   UNL     1      -3.533  -1.688  -0.570  0.00  0.00    -0.237 NA
ATOM     25  C   UNL     1      -2.236  -2.027  -0.362  0.00  0.00    +0.078 A 
ATOM     26  C   UNL     1      -1.788  -3.341  -0.514  0.00  0.00    +0.030 A 
ATOM     27  C   UNL     1      -0.463  -3.640  -0.293  0.00  0.00    +0.022 A 
ATOM     28  C   UNL     1       0.438  -2.650   0.080  0.00  0.00    +0.042 A 
ATOM     29  C   UNL     1       0.019  -1.346   0.237  0.00  0.00    +0.035 A 
ATOM     30  C   UNL     1      -1.318  -1.023   0.018  0.00  0.00    +0.066 A 
ATOM     31  C   UNL     1      -1.823   0.350   0.175  0.00  0.00    +0.262 A 
ATOM     32  O   UNL     1      -1.085   1.261   0.501  0.00  0.00    -0.267 OA
ATOM     33 CL   UNL     1       2.103  -3.059   0.351  0.00  0.00    -0.084 Cl
ENDBRANCH  21  22
ENDBRANCH   2  21
TORSDOF 6
