REMARK  Name = ZINC24522231
REMARK  10 active torsions:
REMARK  status: ('A' for Active; 'I' for Inactive)
REMARK    1  A    between atoms: C_1  and  S_2
REMARK    2  A    between atoms: S_2  and  C_5
REMARK    3  A    between atoms: C_5  and  C_6
REMARK    4  A    between atoms: C_6  and  C_7
REMARK    5  A    between atoms: C_7  and  C_9
REMARK    6  A    between atoms: C_7  and  N_22
REMARK    7  A    between atoms: C_9  and  O_11
REMARK    8  A    between atoms: O_11  and  C_12
REMARK    9  A    between atoms: C_12  and  C_13
REMARK   10  A    between atoms: C_17  and  N_19
REMARK                            x       y       z     vdW  Elec       q    Type
REMARK                         _______ _______ _______ _____ _____    ______ ____
ROOT
ATOM      1  C   UNL     1      -0.131   7.752  -2.896  0.00  0.00    +0.195 C 
ENDROOT
BRANCH   1   2
ATOM      2  N   UNL     1      -0.150   9.214  -2.812  0.00  0.00    -0.220 N 
ATOM      3  C   UNL     1      -1.118   9.929  -2.211  0.00  0.00    +0.255 C 
ATOM      4  O   UNL     1      -2.099   9.472  -1.660  0.00  0.00    -0.270 OA
ATOM      5  C   UNL     1      -0.786  11.364  -2.331  0.00  0.00    +0.051 A 
ATOM      6  C   UNL     1      -1.396  12.536  -1.913  0.00  0.00    +0.035 A 
ATOM      7  C   UNL     1      -0.807  13.758  -2.201  0.00  0.00    +0.060 A 
ATOM      8  C   UNL     1       0.385  13.814  -2.903  0.00  0.00    +0.060 A 
ATOM      9  C   UNL     1       1.006  12.649  -3.327  0.00  0.00    +0.035 A 
ATOM     10  C   UNL     1       0.428  11.421  -3.046  0.00  0.00    +0.051 A 
ATOM     11  C   UNL     1       0.795  10.018  -3.331  0.00  0.00    +0.255 C 
ATOM     12  O   UNL     1       1.784   9.653  -3.934  0.00  0.00    -0.270 OA
ATOM     13 CL   UNL     1       1.108  15.353  -3.255  0.00  0.00    -0.082 Cl
ATOM     14 CL   UNL     1      -1.570  15.228  -1.679  0.00  0.00    -0.082 Cl
ENDBRANCH   1   2
BRANCH   1  15
ATOM     15  C   UNL     1      -0.110   7.169  -1.506  0.00  0.00    +0.329 C 
ATOM     16  O   UNL     1      -0.111   7.900  -0.544  0.00  0.00    -0.249 OA
BRANCH  15  17
ATOM     17  O   UNL     1      -0.090   5.838  -1.337  0.00  0.00    -0.459 OA
BRANCH  17  18
ATOM     18  C   UNL     1      -0.070   5.347   0.030  0.00  0.00    +0.267 C 
BRANCH  18  19
ATOM     19  C   UNL     1      -0.050   3.840   0.022  0.00  0.00    -0.008 A 
ATOM     20  C   UNL     1       1.157   3.165   0.008  0.00  0.00    +0.007 A 
ATOM     21  C   UNL     1       1.175   1.783   0.000  0.00  0.00    +0.003 A 
ATOM     22  C   UNL     1      -0.013   1.076   0.008  0.00  0.00    +0.033 A 
ATOM     23  C   UNL     1      -1.219   1.750   0.017  0.00  0.00    +0.127 A 
ATOM     24  C   UNL     1      -1.238   3.133   0.030  0.00  0.00    +0.039 A 
BRANCH  23  25
ATOM     25  N   UNL     1      -2.490   0.993   0.019  0.00  0.00    +0.056 N 
ATOM     26  O   UNL     1      -2.474  -0.225   0.013  0.00  0.00    -0.126 OA
ATOM     27  O   UNL     1      -3.554   1.588   0.028  0.00  0.00    -0.126 OA
ENDBRANCH  23  25
ENDBRANCH  18  19
ENDBRANCH  17  18
ENDBRANCH  15  17
ENDBRANCH   1  15
BRANCH   1  28
ATOM     28  C   UNL     1      -1.381   7.266  -3.633  0.00  0.00    +0.057 C 
BRANCH  28  29
ATOM     29  C   UNL     1      -1.340   7.755  -5.082  0.00  0.00    +0.168 C 
BRANCH  29  31
ATOM     30  C   UNL     1      -2.588   7.851  -7.626  0.00  0.00    +0.194 C 
ATOM     31  S   UNL     1      -2.822   7.181  -5.957  0.00  0.00    -0.034 S 
ATOM     32  O   UNL     1      -2.777   5.762  -6.032  0.00  0.00    -0.175 OA
ATOM     33  O   UNL     1      -3.958   7.806  -5.376  0.00  0.00    -0.175 OA
ENDBRANCH  29  31
ENDBRANCH  28  29
ENDBRANCH   1  28
TORSDOF 9
