REMARK  Name = ZINC39980729
REMARK  6 active torsions:
REMARK  status: ('A' for Active; 'I' for Inactive)
REMARK    1  A    between atoms: C_1  and  O_2
REMARK    2  A    between atoms: O_2  and  C_3
REMARK    3  A    between atoms: C_8  and  C_15
REMARK    4  A    between atoms: C_17  and  N_27
REMARK    5  A    between atoms: N_27  and  C_28
REMARK    6  A    between atoms: C_28  and  C_29
REMARK                            x       y       z     vdW  Elec       q    Type
REMARK                         _______ _______ _______ _____ _____    ______ ____
ROOT
ATOM      1  C   UNL     1      -5.534  -4.534   1.357  0.00  0.00    +0.158 C 
ATOM      2  C   UNL     1      -5.870  -6.032   1.244  0.00  0.00    +0.173 C 
ATOM      3  N   UNL     1      -7.340  -6.050   1.153  0.00  0.00    -0.272 N 
ATOM      4  C   UNL     1      -8.204  -7.101   1.036  0.00  0.00    +0.098 C 
ATOM      5  C   UNL     1      -9.537  -6.899   0.968  0.00  0.00    +0.055 C 
ATOM      6  C   UNL     1     -10.053  -5.592   1.016  0.00  0.00    +0.024 C 
ATOM      7  C   UNL     1      -9.208  -4.538   1.133  0.00  0.00    +0.045 C 
ATOM      8  C   UNL     1      -7.804  -4.762   1.205  0.00  0.00    +0.122 C 
ATOM      9  N   UNL     1      -6.840  -3.868   1.320  0.00  0.00    -0.261 NA
ATOM     10 CL   UNL     1     -10.613  -8.252   0.819  0.00  0.00    -0.082 Cl
ENDROOT
BRANCH   1  16
ATOM     11  C   UNL     1      -6.150  -0.968  -3.494  0.00  0.00    +0.122 A 
ATOM     12  C   UNL     1      -6.665  -2.216  -3.877  0.00  0.00    +0.046 A 
ATOM     13  C   UNL     1      -6.466  -3.321  -3.120  0.00  0.00    +0.013 A 
ATOM     14  C   UNL     1      -5.697  -3.205  -1.879  0.00  0.00    -0.007 A 
ATOM     15  C   UNL     1      -5.477  -4.294  -1.093  0.00  0.00    -0.003 C 
ATOM     16  C   UNL     1      -4.672  -4.087   0.174  0.00  0.00    +0.126 C 
ATOM     17  C   UNL     1      -4.177  -2.688   0.464  0.00  0.00    +0.226 C 
ATOM     18  O   UNL     1      -3.525  -2.467   1.468  0.00  0.00    -0.275 OA
ATOM     19  N   UNL     1      -4.455  -1.708  -0.376  0.00  0.00    -0.284 N 
ATOM     20  C   UNL     1      -5.164  -1.885  -1.494  0.00  0.00    +0.044 A 
ATOM     21  C   UNL     1      -5.415  -0.798  -2.341  0.00  0.00    +0.069 A 
ATOM     22  H   UNL     1      -4.128  -0.817  -0.172  0.00  0.00    +0.155 HD
BRANCH  11  24
ATOM     23  C   UNL     1      -7.145  -0.116  -5.473  0.00  0.00    +0.277 C 
ATOM     24  O   UNL     1      -6.378   0.105  -4.288  0.00  0.00    -0.495 OA
ENDBRANCH  11  24
ENDBRANCH   1  16
BRANCH   2  25
ATOM     25  N   UNL     1      -5.267  -6.607   0.034  0.00  0.00    -0.289 NA
ATOM     26  H   UNL     1      -5.958  -6.726  -0.692  0.00  0.00    +0.124 HD
BRANCH  25  27
ATOM     27  C   UNL     1      -4.595  -7.878   0.335  0.00  0.00    +0.157 C 
BRANCH  27  28
ATOM     28  C   UNL     1      -3.990  -8.437  -0.927  0.00  0.00    +0.119 A 
ATOM     29  C   UNL     1      -2.746  -8.194  -1.378  0.00  0.00    +0.046 A 
ATOM     30  C   UNL     1      -2.600  -8.915  -2.586  0.00  0.00    +0.041 A 
ATOM     31  C   UNL     1      -3.763  -9.555  -2.800  0.00  0.00    +0.195 A 
ATOM     32  O   UNL     1      -4.599  -9.267  -1.790  0.00  0.00    -0.467 OA
ENDBRANCH  27  28
ENDBRANCH  25  27
ENDBRANCH   2  25
TORSDOF 5
