REMARK  Name = ZINC36765912
REMARK  6 active torsions:
REMARK  status: ('A' for Active; 'I' for Inactive)
REMARK    1  A    between atoms: C_1  and  C_2
REMARK    2  A    between atoms: C_4  and  C_8
REMARK    3  A    between atoms: C_5  and  C_7
REMARK    4  A    between atoms: C_9  and  C_15
REMARK    5  A    between atoms: C_10  and  N_14
REMARK    6  A    between atoms: N_11  and  C_13
REMARK                            x       y       z     vdW  Elec       q    Type
REMARK                         _______ _______ _______ _____ _____    ______ ____
ROOT
ATOM      1  C   UNL     1      -1.374  -3.425  -0.010  0.00  0.00    +0.106 A 
ATOM      2  C   UNL     1      -2.789  -3.508  -0.009  0.00  0.00    +0.049 A 
ATOM      3  C   UNL     1      -3.119  -4.851  -0.012  0.00  0.00    +0.122 A 
ATOM      4  N   UNL     1      -1.963  -5.553  -0.015  0.00  0.00    -0.253 N 
ATOM      5  N   UNL     1      -0.895  -4.649  -0.019  0.00  0.00    -0.169 NA
ATOM      6  C   UNL     1      -1.849  -7.013  -0.017  0.00  0.00    +0.174 C 
ENDROOT
BRANCH   1  10
ATOM      7  C   UNL     1      -0.018   1.503   0.010  0.00  0.00    +0.086 C 
ATOM      8  C   UNL     1       0.002  -0.004   0.002  0.00  0.00    +0.103 A 
ATOM      9  C   UNL     1      -1.081  -0.799   0.003  0.00  0.00    +0.054 A 
ATOM     10  C   UNL     1      -0.573  -2.176  -0.007  0.00  0.00    +0.044 A 
ATOM     11  C   UNL     1       0.780  -2.070  -0.013  0.00  0.00    +0.111 A 
ATOM     12  O   UNL     1       1.105  -0.768  -0.013  0.00  0.00    -0.464 OA
ATOM     13  C   UNL     1       1.754  -3.220  -0.024  0.00  0.00    +0.087 C 
ENDBRANCH   1  10
BRANCH   2  14
ATOM     14  C   UNL     1      -3.736  -2.369  -0.005  0.00  0.00    -0.011 A 
ATOM     15  C   UNL     1      -3.788  -1.505   1.088  0.00  0.00    +0.009 A 
ATOM     16  C   UNL     1      -4.672  -0.446   1.086  0.00  0.00    +0.002 A 
ATOM     17  C   UNL     1      -5.507  -0.240   0.003  0.00  0.00    +0.015 A 
ATOM     18  C   UNL     1      -5.461  -1.094  -1.085  0.00  0.00    +0.018 A 
ATOM     19  C   UNL     1      -4.576  -2.154  -1.097  0.00  0.00    +0.024 A 
ATOM     20 BR   UNL     1      -6.608  -0.805  -2.561  0.00  0.00    -0.050 Br
ENDBRANCH   2  14
BRANCH   3  21
ATOM     21  N   UNL     1      -4.402  -5.381  -0.013  0.00  0.00    -0.343 N 
ATOM     22  H   UNL     1      -5.171  -4.790  -0.011  0.00  0.00    +0.144 HD
ATOM     23  H   UNL     1      -4.529  -6.343  -0.015  0.00  0.00    +0.144 HD
ENDBRANCH   3  21
TORSDOF 3
