REMARK  Name = ZINC15933752
REMARK  6 active torsions:
REMARK  status: ('A' for Active; 'I' for Inactive)
REMARK    1  A    between atoms: C_1  and  C_2
REMARK    2  A    between atoms: C_2  and  C_3
REMARK    3  A    between atoms: C_8  and  N_9
REMARK    4  A    between atoms: N_12  and  N_13
REMARK    5  A    between atoms: C_14  and  C_16
REMARK    6  A    between atoms: C_25  and  O_26
REMARK                            x       y       z     vdW  Elec       q    Type
REMARK                         _______ _______ _______ _____ _____    ______ ____
ROOT
ATOM      1  N   UNL     1      -0.210   0.186  -4.734  0.00  0.00    -0.229 N 
ATOM      2  C   UNL     1       0.412   0.427  -5.904  0.00  0.00    +0.264 C 
ATOM      3  O   UNL     1      -0.167   0.222  -6.954  0.00  0.00    -0.269 OA
ATOM      4  H   UNL     1       0.252   0.349  -3.896  0.00  0.00    +0.173 HD
ENDROOT
BRANCH   2   5
ATOM      5  C   UNL     1       1.794   0.937  -5.913  0.00  0.00    +0.080 A 
ATOM      6  C   UNL     1       2.463   1.167  -4.696  0.00  0.00    +0.017 A 
ATOM      7  C   UNL     1       3.734   1.636  -4.677  0.00  0.00    +0.009 A 
ATOM      8  C   UNL     1       4.410   1.902  -5.884  0.00  0.00    -0.014 A 
ATOM      9  C   UNL     1       5.727   2.388  -5.884  0.00  0.00    +0.008 A 
ATOM     10  C   UNL     1       6.356   2.637  -7.066  0.00  0.00    +0.001 A 
ATOM     11  C   UNL     1       5.711   2.416  -8.281  0.00  0.00    +0.001 A 
ATOM     12  C   UNL     1       4.434   1.946  -8.319  0.00  0.00    +0.012 A 
ATOM     13  C   UNL     1       3.755   1.678  -7.120  0.00  0.00    +0.024 A 
ATOM     14  C   UNL     1       2.434   1.184  -7.125  0.00  0.00    +0.137 A 
BRANCH  14  15
ATOM     15  O   UNL     1       1.792   0.958  -8.296  0.00  0.00    -0.505 OA
ATOM     16  H   UNL     1       1.300   1.721  -8.629  0.00  0.00    +0.292 HD
ENDBRANCH  14  15
ENDBRANCH   2   5
BRANCH   1  20
ATOM     17  N   UNL     1      -1.505  -0.314  -2.391  0.00  0.00    -0.268 N 
ATOM     18  C   UNL     1      -2.147  -0.540  -3.555  0.00  0.00    +0.320 C 
ATOM     19  O   UNL     1      -3.288  -0.962  -3.548  0.00  0.00    -0.251 OA
ATOM     20  N   UNL     1      -1.525  -0.299  -4.726  0.00  0.00    -0.218 N 
ATOM     21  H   UNL     1      -0.620   0.083  -2.395  0.00  0.00    +0.156 HD
ATOM     22  H   UNL     1      -1.986  -0.462  -5.563  0.00  0.00    +0.174 HD
BRANCH  17  28
ATOM     23  C   UNL     1      -1.348  -1.119  -0.120  0.00  0.00    -0.026 A 
ATOM     24  C   UNL     1      -1.953  -1.446   1.078  0.00  0.00    +0.005 A 
ATOM     25  C   UNL     1      -3.322  -1.315   1.222  0.00  0.00    +0.000 A 
ATOM     26  C   UNL     1      -4.090  -0.855   0.168  0.00  0.00    +0.002 A 
ATOM     27  C   UNL     1      -3.491  -0.526  -1.032  0.00  0.00    +0.023 A 
ATOM     28  C   UNL     1      -2.116  -0.652  -1.178  0.00  0.00    +0.038 A 
BRANCH  23  30
ATOM     29  C   UNL     1       0.819   0.078   0.018  0.00  0.00    +0.009 C 
ATOM     30  C   UNL     1       0.144  -1.263  -0.276  0.00  0.00    +0.033 C 
ENDBRANCH  23  30
ENDBRANCH  17  28
ENDBRANCH   1  20
TORSDOF 5
