REMARK  Name = ZINC00919809
REMARK  8 active torsions:
REMARK  status: ('A' for Active; 'I' for Inactive)
REMARK    1  A    between atoms: C_1  and  C_2
REMARK    2  A    between atoms: C_2  and  N_3
REMARK    3  A    between atoms: C_4  and  C_32
REMARK    4  A    between atoms: C_5  and  N_9
REMARK    5  A    between atoms: C_6  and  C_8
REMARK    6  A    between atoms: C_10  and  C_12
REMARK    7  A    between atoms: C_17  and  C_28
REMARK    8  A    between atoms: C_20  and  C_23
REMARK                            x       y       z     vdW  Elec       q    Type
REMARK                         _______ _______ _______ _____ _____    ______ ____
ROOT
ATOM      1  C   UNL     1       5.359  -1.841   4.567  0.00  0.00    +0.149 A 
ATOM      2  C   UNL     1       5.828  -1.909   5.898  0.00  0.00    +0.078 A 
ATOM      3  C   UNL     1       7.148  -2.178   5.851  0.00  0.00    +0.119 A 
ATOM      4  N   UNL     1       7.515  -2.282   4.539  0.00  0.00    -0.238 N 
ATOM      5  N   UNL     1       6.379  -2.071   3.758  0.00  0.00    -0.164 NA
ATOM      6  C   UNL     1       8.881  -2.573   4.098  0.00  0.00    +0.215 C 
ATOM      7  C   UNL     1       9.656  -3.199   5.263  0.00  0.00    +0.066 C 
ATOM      8  C   UNL     1       9.486  -2.342   6.522  0.00  0.00    +0.140 C 
ATOM      9  N   UNL     1       8.059  -2.340   6.899  0.00  0.00    -0.319 N 
ATOM     10  H   UNL     1       7.770  -2.442   7.819  0.00  0.00    +0.148 HD
ENDROOT
BRANCH   8  11
ATOM     11  C   UNL     1      10.308  -2.923   7.644  0.00  0.00    +0.125 A 
ATOM     12  C   UNL     1      11.512  -2.479   8.049  0.00  0.00    +0.046 A 
ATOM     13  C   UNL     1      11.915  -3.309   9.120  0.00  0.00    +0.041 A 
ATOM     14  C   UNL     1      10.934  -4.210   9.306  0.00  0.00    +0.195 A 
ATOM     15  O   UNL     1       9.961  -3.968   8.413  0.00  0.00    -0.466 OA
ENDBRANCH   8  11
BRANCH   1  17
ATOM     16  N   UNL     1       3.650  -1.534   2.842  0.00  0.00    -0.277 N 
ATOM     17  C   UNL     1       3.968  -1.567   4.151  0.00  0.00    +0.268 C 
ATOM     18  O   UNL     1       3.110  -1.370   4.990  0.00  0.00    -0.268 OA
ATOM     19  H   UNL     1       4.316  -1.764   2.175  0.00  0.00    +0.155 HD
BRANCH  16  22
ATOM     20  N   UNL     1       0.654  -0.028   1.654  0.00  0.00    -0.267 N 
ATOM     21  C   UNL     1       1.990   0.021   1.895  0.00  0.00    +0.058 A 
ATOM     22  C   UNL     1       2.352  -1.167   2.442  0.00  0.00    +0.077 A 
ATOM     23  C   UNL     1       1.202  -1.965   2.537  0.00  0.00    +0.081 A 
ATOM     24  N   UNL     1       0.188  -1.281   2.072  0.00  0.00    -0.174 NA
ATOM     25  C   UNL     1       1.143  -3.367   3.086  0.00  0.00    +0.069 C 
ATOM     26  C   UNL     1       2.904   1.185   1.608  0.00  0.00    +0.067 C 
BRANCH  20  28
ATOM     27  C   UNL     1      -0.690   1.946   2.181  0.00  0.00    +0.029 C 
ATOM     28  C   UNL     1      -0.157   1.042   1.068  0.00  0.00    +0.140 C 
ENDBRANCH  20  28
ENDBRANCH  16  22
ENDBRANCH   1  17
BRANCH   6  29
ATOM     29  C   UNL     1       8.842  -3.551   2.921  0.00  0.00    +0.412 C 
ATOM     30  F   UNL     1       8.124  -2.981   1.865  0.00  0.00    -0.168 F 
ATOM     31  F   UNL     1      10.148  -3.828   2.502  0.00  0.00    -0.168 F 
ATOM     32  F   UNL     1       8.219  -4.738   3.322  0.00  0.00    -0.168 F 
ENDBRANCH   6  29
TORSDOF 5
