REMARK  Name = ZINC63221388
REMARK  10 active torsions:
REMARK  status: ('A' for Active; 'I' for Inactive)
REMARK    1  A    between atoms: C_1  and  C_2
REMARK    2  A    between atoms: C_2  and  O_3
REMARK    3  A    between atoms: O_3  and  C_4
REMARK    4  A    between atoms: C_9  and  S_14
REMARK    5  A    between atoms: S_14  and  C_15
REMARK    6  A    between atoms: C_15  and  C_16
REMARK    7  A    between atoms: N_18  and  C_19
REMARK    8  A    between atoms: C_19  and  C_20
REMARK    9  A    between atoms: C_23  and  S_26
REMARK   10  A    between atoms: S_26  and  N_29
REMARK                            x       y       z     vdW  Elec       q    Type
REMARK                         _______ _______ _______ _____ _____    ______ ____
ROOT
ATOM      1  C   UNL     1       5.684  -6.303  -1.447  0.00  0.00    +0.223 C 
ATOM      2  O   UNL     1       6.063  -7.270  -2.072  0.00  0.00    -0.275 OA
ATOM      3  N   UNL     1       6.484  -5.747  -0.516  0.00  0.00    -0.311 N 
ATOM      4  H   UNL     1       6.181  -4.973  -0.015  0.00  0.00    +0.149 HD
ENDROOT
BRANCH   1   5
ATOM      5  C   UNL     1       4.319  -5.723  -1.711  0.00  0.00    +0.168 C 
BRANCH   5   6
ATOM      6  S   UNL     1       3.493  -6.685  -3.009  0.00  0.00    -0.106 S 
BRANCH   6  12
ATOM      7  C   UNL     1       0.776  -1.807  -1.336  0.00  0.00    +0.123 A 
ATOM      8  C   UNL     1       0.208  -2.690  -0.325  0.00  0.00    +0.048 A 
ATOM      9  C   UNL     1       0.281  -4.030  -0.429  0.00  0.00    +0.031 A 
ATOM     10  C   UNL     1       0.949  -4.637  -1.589  0.00  0.00    +0.061 A 
ATOM     11  N   UNL     1       1.157  -5.877  -1.931  0.00  0.00    -0.355 N 
ATOM     12  C   UNL     1       1.885  -5.869  -3.205  0.00  0.00    +0.236 C 
ATOM     13  N   UNL     1       2.076  -4.458  -3.565  0.00  0.00    -0.355 N 
ATOM     14  C   UNL     1       1.530  -3.738  -2.623  0.00  0.00    +0.064 A 
ATOM     15  C   UNL     1       1.403  -2.291  -2.436  0.00  0.00    +0.073 A 
ATOM     16  H   UNL     1       0.882  -6.662  -1.433  0.00  0.00    +0.162 HD
ATOM     17  H   UNL     1       2.524  -4.123  -4.357  0.00  0.00    +0.162 HD
BRANCH   7  18
ATOM     18  O   UNL     1       0.671  -0.465  -1.174  0.00  0.00    -0.492 OA
BRANCH  18  20
ATOM     19  C   UNL     1      -0.019   1.526   0.010  0.00  0.00    +0.048 C 
ATOM     20  C   UNL     1       0.002  -0.004   0.002  0.00  0.00    +0.225 C 
ENDBRANCH  18  20
ENDBRANCH   7  18
ENDBRANCH   6  12
ENDBRANCH   5   6
ENDBRANCH   1   5
BRANCH   3  21
ATOM     21  C   UNL     1       7.811  -6.311  -0.259  0.00  0.00    +0.139 C 
BRANCH  21  22
ATOM     22  C   UNL     1       8.497  -5.511   0.819  0.00  0.00    -0.030 A 
ATOM     23  C   UNL     1       9.274  -4.420   0.481  0.00  0.00    +0.007 A 
ATOM     24  C   UNL     1       9.903  -3.687   1.470  0.00  0.00    +0.029 A 
ATOM     25  C   UNL     1       9.754  -4.045   2.797  0.00  0.00    +0.105 A 
ATOM     26  C   UNL     1       8.976  -5.136   3.135  0.00  0.00    +0.029 A 
ATOM     27  C   UNL     1       8.343  -5.866   2.146  0.00  0.00    +0.007 A 
BRANCH  25  28
ATOM     28  S   UNL     1      10.557  -3.111   4.057  0.00  0.00    +0.056 S 
ATOM     29  O   UNL     1      10.700  -3.976   5.175  0.00  0.00    -0.153 OA
ATOM     30  O   UNL     1      11.666  -2.469   3.443  0.00  0.00    -0.153 OA
BRANCH  28  31
ATOM     31  N   UNL     1       9.512  -1.911   4.518  0.00  0.00    -0.204 NA
ATOM     32  H   UNL     1       9.532  -1.574   5.427  0.00  0.00    +0.144 HD
ATOM     33  H   UNL     1       8.880  -1.547   3.879  0.00  0.00    +0.144 HD
ENDBRANCH  28  31
ENDBRANCH  25  28
ENDBRANCH  21  22
ENDBRANCH   3  21
TORSDOF 9
