REMARK  Name = ZINC36544372
REMARK  11 active torsions:
REMARK  status: ('A' for Active; 'I' for Inactive)
REMARK    1  A    between atoms: C_1  and  C_2
REMARK    2  A    between atoms: C_2  and  C_3
REMARK    3  A    between atoms: C_2  and  C_4
REMARK    4  A    between atoms: C_2  and  N_5
REMARK    5  A    between atoms: C_6  and  C_8
REMARK    6  A    between atoms: C_8  and  C_10
REMARK    7  A    between atoms: C_8  and  N_19
REMARK    8  A    between atoms: C_11  and  O_18
REMARK    9  A    between atoms: C_13  and  O_17
REMARK   10  A    between atoms: C_15  and  O_16
REMARK   11  A    between atoms: N_19  and  C_22
REMARK                            x       y       z     vdW  Elec       q    Type
REMARK                         _______ _______ _______ _____ _____    ______ ____
ROOT
ATOM      1  C   UNL     1       2.689  -0.569  -2.688  0.00  0.00    +0.204 C 
ENDROOT
BRANCH   1   2
ATOM      2  C   UNL     1       1.740  -0.132  -3.774  0.00  0.00    +0.065 A 
ATOM      3  C   UNL     1       1.997  -0.469  -5.095  0.00  0.00    +0.129 A 
ATOM      4  C   UNL     1       1.124  -0.067  -6.095  0.00  0.00    +0.091 A 
ATOM      5  C   UNL     1      -0.005   0.672  -5.774  0.00  0.00    +0.124 A 
ATOM      6  C   UNL     1      -0.262   1.008  -4.454  0.00  0.00    +0.091 A 
ATOM      7  C   UNL     1       0.609   0.602  -3.453  0.00  0.00    +0.129 A 
BRANCH   7   8
ATOM      8  O   UNL     1       0.355   0.928  -2.159  0.00  0.00    -0.506 OA
ATOM      9  H   UNL     1       0.739   1.771  -1.882  0.00  0.00    +0.292 HD
ENDBRANCH   7   8
BRANCH   5  10
ATOM     10  O   UNL     1      -0.860   1.066  -6.755  0.00  0.00    -0.507 OA
ATOM     11  H   UNL     1      -1.567   0.433  -6.938  0.00  0.00    +0.292 HD
ENDBRANCH   5  10
BRANCH   3  12
ATOM     12  O   UNL     1       3.103  -1.192  -5.409  0.00  0.00    -0.506 OA
ATOM     13  H   UNL     1       2.985  -2.148  -5.325  0.00  0.00    +0.292 HD
ENDBRANCH   3  12
ENDBRANCH   1   2
BRANCH   1  15
ATOM     14  N   UNL     1       1.130  -1.828  -1.238  0.00  0.00    -0.309 N 
ATOM     15  C   UNL     1       1.927  -0.753  -1.401  0.00  0.00    +0.239 C 
ATOM     16  O   UNL     1       2.031   0.065  -0.511  0.00  0.00    -0.273 OA
ATOM     17  H   UNL     1       1.046  -2.482  -1.949  0.00  0.00    +0.149 HD
BRANCH  14  19
ATOM     18  C   UNL     1      -0.547  -0.817   0.227  0.00  0.00    +0.031 C 
ATOM     19  C   UNL     1       0.389  -2.007   0.013  0.00  0.00    +0.026 C 
ATOM     20  C   UNL     1       1.374  -2.098   1.181  0.00  0.00    +0.031 C 
ATOM     21  C   UNL     1      -0.433  -3.296  -0.061  0.00  0.00    +0.031 C 
ENDBRANCH  14  19
ENDBRANCH   1  15
BRANCH   1  22
ATOM     22  N   UNL     1       3.722   0.453  -2.501  0.00  0.00    -0.256 N 
ATOM     23  C   UNL     1       3.377   1.697  -2.113  0.00  0.00    +0.333 C 
ATOM     24  O   UNL     1       4.219   2.568  -2.052  0.00  0.00    -0.279 OA
BRANCH  22  25
ATOM     25  C   UNL     1       5.067   0.138  -2.726  0.00  0.00    +0.055 A 
ATOM     26  C   UNL     1       5.645   0.396  -3.961  0.00  0.00    +0.025 A 
ATOM     27  C   UNL     1       6.973   0.084  -4.180  0.00  0.00    +0.002 A 
ATOM     28  C   UNL     1       7.727  -0.485  -3.170  0.00  0.00    +0.002 A 
ATOM     29  C   UNL     1       7.155  -0.744  -1.938  0.00  0.00    +0.022 A 
ATOM     30  C   UNL     1       5.828  -0.429  -1.711  0.00  0.00    +0.062 A 
ATOM     31 CL   UNL     1       5.112  -0.748  -0.162  0.00  0.00    -0.082 Cl
ENDBRANCH  22  25
ENDBRANCH   1  22
TORSDOF 8
