REMARK  Name = ZINC10698032
REMARK  5 active torsions:
REMARK  status: ('A' for Active; 'I' for Inactive)
REMARK    1  A    between atoms: C_1  and  C_2
REMARK    2  A    between atoms: C_12  and  C_14
REMARK    3  A    between atoms: N_16  and  C_30
REMARK    4  A    between atoms: N_21  and  C_24
REMARK    5  A    between atoms: C_30  and  C_31
REMARK                            x       y       z     vdW  Elec       q    Type
REMARK                         _______ _______ _______ _____ _____    ______ ____
ROOT
ATOM      1  C   UNL     1       1.171   1.755   0.000  0.00  0.00    +0.081 A 
ATOM      2  C   UNL     1      -0.013   1.076   0.008  0.00  0.00    +0.101 A 
ATOM      3  N   UNL     1      -1.206   1.718   0.017  0.00  0.00    -0.347 N 
ATOM      4  C   UNL     1      -1.327   3.059   0.031  0.00  0.00    +0.101 A 
ATOM      5  C   UNL     1      -0.216   3.864   0.025  0.00  0.00    +0.085 A 
ATOM      6  C   UNL     1       0.041   5.300   0.031  0.00  0.00    +0.283 A 
ATOM      7  O   UNL     1      -0.790   6.194   0.043  0.00  0.00    -0.265 OA
ATOM      8  N   UNL     1       1.385   5.441   0.019  0.00  0.00    -0.196 N 
ATOM      9  N   UNL     1       2.004   4.189   0.006  0.00  0.00    -0.162 NA
ATOM     10  C   UNL     1       1.122   3.230   0.009  0.00  0.00    +0.112 A 
ENDROOT
BRANCH   1  22
ATOM     11  C   UNL     1       4.460  -5.228  -0.066  0.00  0.00    +0.046 C 
ATOM     12  C   UNL     1       5.526  -4.163  -0.071  0.00  0.00    -0.024 A 
ATOM     13  C   UNL     1       6.847  -4.526  -0.085  0.00  0.00    +0.005 A 
ATOM     14  C   UNL     1       7.860  -3.578  -0.091  0.00  0.00    +0.001 A 
ATOM     15  C   UNL     1       7.530  -2.235  -0.081  0.00  0.00    +0.017 A 
ATOM     16  C   UNL     1       6.210  -1.862  -0.066  0.00  0.00    +0.041 A 
ATOM     17  C   UNL     1       5.152  -2.799  -0.060  0.00  0.00    +0.083 A 
ATOM     18  N   UNL     1       3.907  -2.276  -0.046  0.00  0.00    -0.224 NA
ATOM     19  C   UNL     1       3.685  -0.982  -0.037  0.00  0.00    +0.166 A 
ATOM     20  S   UNL     1       5.342  -0.311  -0.057  0.00  0.00    -0.052 S 
ATOM     21  N   UNL     1       2.476  -0.308  -0.022  0.00  0.00    -0.261 N 
ATOM     22  C   UNL     1       2.456   1.039  -0.015  0.00  0.00    +0.253 C 
ATOM     23  O   UNL     1       3.500   1.663  -0.022  0.00  0.00    -0.270 OA
ATOM     24  H   UNL     1       1.644  -0.806  -0.017  0.00  0.00    +0.157 HD
ENDBRANCH   1  22
BRANCH   8  25
ATOM     25  C   UNL     1       2.059   6.667   0.020  0.00  0.00    +0.069 A 
ATOM     26  C   UNL     1       1.529   7.755  -0.663  0.00  0.00    +0.028 A 
ATOM     27  C   UNL     1       2.195   8.964  -0.655  0.00  0.00    +0.002 A 
ATOM     28  C   UNL     1       3.394   9.091   0.021  0.00  0.00    +0.000 A 
ATOM     29  C   UNL     1       3.928   8.009   0.698  0.00  0.00    +0.002 A 
ATOM     30  C   UNL     1       3.264   6.798   0.699  0.00  0.00    +0.028 A 
ENDBRANCH   8  25
BRANCH   3  31
ATOM     31  C   UNL     1      -2.429   0.911   0.018  0.00  0.00    +0.156 C 
BRANCH  31  32
ATOM     32  C   UNL     1      -2.841   0.626   1.439  0.00  0.00    -0.028 A 
ATOM     33  C   UNL     1      -2.375  -0.507   2.080  0.00  0.00    +0.008 A 
ATOM     34  C   UNL     1      -2.749  -0.766   3.385  0.00  0.00    +0.038 A 
ATOM     35  C   UNL     1      -3.599   0.103   4.047  0.00  0.00    +0.123 A 
ATOM     36  C   UNL     1      -4.070   1.235   3.403  0.00  0.00    +0.038 A 
ATOM     37  C   UNL     1      -3.690   1.495   2.099  0.00  0.00    +0.008 A 
ATOM     38  F   UNL     1      -3.969  -0.152   5.321  0.00  0.00    -0.205 F 
ENDBRANCH  31  32
ENDBRANCH   3  31
TORSDOF 4
