REMARK  Name = ZINC05007504
REMARK  2 active torsions:
REMARK  status: ('A' for Active; 'I' for Inactive)
REMARK    1  A    between atoms: C_6  and  C_7
REMARK    2  A    between atoms: C_10  and  C_12
REMARK                            x       y       z     vdW  Elec       q    Type
REMARK                         _______ _______ _______ _____ _____    ______ ____
ROOT
ATOM      1  C   UNL     1       2.968   2.926  -0.627  0.00  0.00    +0.136 A 
ATOM      2  C   UNL     1       3.518   1.706  -0.354  0.00  0.00    +0.050 A 
ATOM      3  C   UNL     1       2.465   0.833  -0.070  0.00  0.00    +0.050 A 
ATOM      4  C   UNL     1       1.297   1.565  -0.191  0.00  0.00    +0.130 A 
ATOM      5  O   UNL     1       1.629   2.829  -0.525  0.00  0.00    -0.455 OA
ENDROOT
BRANCH   4   6
ATOM      6  C   UNL     1      -0.013   1.076   0.008  0.00  0.00    +0.066 C 
ATOM      7  C   UNL     1      -1.078   1.923  -0.086  0.00  0.00    +0.081 C 
ATOM      8  C   UNL     1      -1.097   3.385  -0.239  0.00  0.00    +0.257 C 
ATOM      9  O   UNL     1      -0.066   4.030  -0.302  0.00  0.00    -0.269 OA
ATOM     10  N   UNL     1      -2.281   3.969  -0.309  0.00  0.00    -0.261 N 
ATOM     11  C   UNL     1      -3.438   3.220  -0.230  0.00  0.00    +0.158 C 
ATOM     12  N   UNL     1      -4.676   3.631  -0.275  0.00  0.00    -0.279 NA
ATOM     13  S   UNL     1      -2.826   1.553  -0.048  0.00  0.00    -0.049 S 
ATOM     14  H   UNL     1      -2.337   4.932  -0.414  0.00  0.00    +0.157 HD
ATOM     15  H   UNL     1      -5.402   2.992  -0.206  0.00  0.00    +0.189 HD
ENDBRANCH   4   6
BRANCH   1  21
ATOM     16  C   UNL     1       5.112   4.120  -1.044  0.00  0.00    +0.014 A 
ATOM     17  C   UNL     1       5.807   5.264  -1.376  0.00  0.00    +0.040 A 
ATOM     18  C   UNL     1       5.125   6.444  -1.630  0.00  0.00    +0.142 A 
ATOM     19  C   UNL     1       3.740   6.480  -1.558  0.00  0.00    +0.077 A 
ATOM     20  C   UNL     1       3.034   5.340  -1.233  0.00  0.00    +0.034 A 
ATOM     21  C   UNL     1       3.717   4.149  -0.975  0.00  0.00    +0.019 A 
ATOM     22 CL   UNL     1       2.894   7.962  -1.879  0.00  0.00    -0.081 Cl
ATOM     23  F   UNL     1       5.812   7.563  -1.949  0.00  0.00    -0.204 F 
ENDBRANCH   1  21
TORSDOF 2
