REMARK  Name = ZINC39779544
REMARK  9 active torsions:
REMARK  status: ('A' for Active; 'I' for Inactive)
REMARK    1  A    between atoms: C_1  and  C_2
REMARK    2  A    between atoms: C_2  and  C_3
REMARK    3  A    between atoms: C_4  and  C_29
REMARK    4  A    between atoms: C_6  and  C_9
REMARK    5  A    between atoms: N_11  and  C_12
REMARK    6  A    between atoms: C_12  and  C_13
REMARK    7  A    between atoms: C_18  and  C_28
REMARK    8  A    between atoms: C_19  and  C_21
REMARK    9  A    between atoms: N_26  and  C_27
REMARK                            x       y       z     vdW  Elec       q    Type
REMARK                         _______ _______ _______ _____ _____    ______ ____
ROOT
ATOM      1  C   UNL     1       6.940  -2.545   4.788  0.00  0.00    +0.236 C 
ATOM      2  O   UNL     1       6.887  -3.480   4.017  0.00  0.00    -0.274 OA
ATOM      3  N   UNL     1       8.037  -2.360   5.548  0.00  0.00    -0.263 N 
ATOM      4  C   UNL     1       9.107  -3.238   5.448  0.00  0.00    +0.165 A 
ATOM      5  N   UNL     1       9.227  -4.293   4.669  0.00  0.00    -0.229 NA
ATOM      6  C   UNL     1      10.313  -5.036   4.685  0.00  0.00    +0.058 A 
ATOM      7  C   UNL     1      11.307  -4.654   5.552  0.00  0.00    +0.081 A 
ATOM      8  S   UNL     1      10.566  -3.206   6.287  0.00  0.00    -0.049 S 
ATOM      9  C   UNL     1      10.458  -6.245   3.797  0.00  0.00    +0.067 C 
ATOM     10  H   UNL     1       8.079  -1.613   6.165  0.00  0.00    +0.157 HD
ENDROOT
BRANCH   7  11
ATOM     11  C   UNL     1      12.621  -5.267   5.802  0.00  0.00    +0.173 A 
ATOM     12  N   UNL     1      13.111  -6.336   5.214  0.00  0.00    -0.128 NA
ATOM     13  N   UNL     1      14.283  -6.591   5.673  0.00  0.00    -0.121 NA
ATOM     14  C   UNL     1      14.617  -5.705   6.582  0.00  0.00    +0.202 A 
ATOM     15  S   UNL     1      16.129  -5.652   7.485  0.00  0.00    -0.009 SA
ATOM     16  N   UNL     1      13.574  -4.826   6.694  0.00  0.00    -0.304 N 
ATOM     17  C   UNL     1      13.488  -3.661   7.578  0.00  0.00    +0.153 C 
ENDBRANCH   7  11
BRANCH   1  18
ATOM     18  C   UNL     1       5.778  -1.592   4.897  0.00  0.00    +0.200 C 
BRANCH  18  21
ATOM     19  C   UNL     1       3.574  -1.298   3.901  0.00  0.00    +0.227 C 
ATOM     20  O   UNL     1       3.422  -0.316   4.596  0.00  0.00    -0.275 OA
ATOM     21  N   UNL     1       4.717  -2.007   3.976  0.00  0.00    -0.306 N 
ATOM     22  H   UNL     1       4.838  -2.792   3.420  0.00  0.00    +0.149 HD
BRANCH  19  26
ATOM     23  C   UNL     1       0.731  -0.503   1.223  0.00  0.00    -0.015 C 
ATOM     24  C   UNL     1       0.198  -0.873   2.371  0.00  0.00    -0.062 C 
ATOM     25  C   UNL     1       1.079  -1.333   3.487  0.00  0.00    +0.055 C 
ATOM     26  C   UNL     1       2.483  -1.725   2.953  0.00  0.00    +0.141 C 
ATOM     27  S   UNL     1       2.491  -0.722   1.409  0.00  0.00    -0.117 S 
ATOM     28  C   UNL     1      -1.297  -0.832   2.558  0.00  0.00    +0.040 C 
BRANCH  23  30
ATOM     29  C   UNL     1      -0.019   1.526   0.010  0.00  0.00    +0.009 C 
ATOM     30  C   UNL     1       0.002  -0.004   0.002  0.00  0.00    +0.038 C 
ENDBRANCH  23  30
ENDBRANCH  19  26
ENDBRANCH  18  21
ENDBRANCH   1  18
TORSDOF 5
