REMARK  Name = ZINC12051539
REMARK  15 active torsions:
REMARK  status: ('A' for Active; 'I' for Inactive)
REMARK    1  A    between atoms: C_1  and  N_65
REMARK    2  A    between atoms: C_2  and  C_3
REMARK    3  A    between atoms: C_2  and  N_65
REMARK    4  A    between atoms: C_9  and  C_10
REMARK    5  A    between atoms: C_9  and  N_65
REMARK    6  A    between atoms: C_10  and  C_12
REMARK    7  A    between atoms: C_10  and  O_32
REMARK    8  A    between atoms: C_12  and  O_13
REMARK    9  A    between atoms: O_13  and  C_14
REMARK   10  A    between atoms: C_16  and  C_22
REMARK   11  A    between atoms: C_19  and  O_20
REMARK   12  A    between atoms: O_20  and  C_21
REMARK   13  A    between atoms: C_22  and  N_67
REMARK   14  A    between atoms: C_23  and  C_26
REMARK   15  A    between atoms: C_23  and  N_67
REMARK                            x       y       z     vdW  Elec       q    Type
REMARK                         _______ _______ _______ _____ _____    ______ ____
ROOT
ATOM      1  C   UNL     1      -0.321   0.902   1.777  0.00  0.00    +0.162 A 
ATOM      2  C   UNL     1       0.558  -0.143   2.015  0.00  0.00    +0.051 A 
ATOM      3  C   UNL     1       0.908  -0.468   3.312  0.00  0.00    -0.061 A 
ATOM      4  C   UNL     1       0.384   0.246   4.373  0.00  0.00    +0.005 A 
ATOM      5  C   UNL     1      -0.493   1.290   4.142  0.00  0.00    +0.049 A 
ATOM      6  C   UNL     1      -0.844   1.625   2.845  0.00  0.00    +0.162 A 
ENDROOT
BRANCH   6   7
ATOM      7  O   UNL     1      -1.702   2.655   2.615  0.00  0.00    -0.491 OA
ATOM      8  C   UNL     1      -2.199   3.352   3.759  0.00  0.00    +0.277 C 
ENDBRANCH   6   7
BRANCH   1   9
ATOM      9  O   UNL     1      -0.667   1.224   0.501  0.00  0.00    -0.486 OA
BRANCH   9  10
ATOM     10  C   UNL     1      -0.087   0.442  -0.545  0.00  0.00    +0.258 C 
BRANCH  10  11
ATOM     11  C   UNL     1      -0.590   0.948  -1.898  0.00  0.00    +0.135 C 
BRANCH  11  12
ATOM     12  O   UNL     1      -1.998   0.726  -1.996  0.00  0.00    -0.390 OA
ATOM     13  H   UNL     1      -2.255  -0.204  -1.926  0.00  0.00    +0.210 HD
ENDBRANCH  11  12
BRANCH  11  14
ATOM     14  C   UNL     1       0.125   0.196  -3.022  0.00  0.00    -0.044 C 
BRANCH  14  16
ATOM     15  C   UNL     1      -0.023  -0.223  -5.402  0.00  0.00    -0.096 C 
ATOM     16  N   UNL     1      -0.334   0.734  -4.320  0.00  0.00    +0.382 N 
ATOM     17  H   UNL     1      -1.351   0.876  -4.281  0.00  0.00    -0.082 HD
BRANCH  16  18
ATOM     18  C   UNL     1       0.321   2.031  -4.589  0.00  0.00    -0.043 C 
BRANCH  18  19
ATOM     19  C   UNL     1      -0.323   2.660  -5.798  0.00  0.00    -0.064 A 
ATOM     20  C   UNL     1       0.192   2.419  -7.058  0.00  0.00    +0.002 A 
ATOM     21  C   UNL     1      -0.402   2.991  -8.168  0.00  0.00    +0.000 A 
ATOM     22  C   UNL     1      -1.503   3.813  -8.015  0.00  0.00    +0.000 A 
ATOM     23  C   UNL     1      -2.014   4.059  -6.755  0.00  0.00    +0.000 A 
ATOM     24  C   UNL     1      -1.423   3.482  -5.646  0.00  0.00    +0.002 A 
ENDBRANCH  18  19
ENDBRANCH  16  18
ENDBRANCH  14  16
ENDBRANCH  11  14
ENDBRANCH  10  11
ENDBRANCH   9  10
ENDBRANCH   1   9
BRANCH   3  25
ATOM     25  C   UNL     1       1.864  -1.605   3.570  0.00  0.00    -0.045 C 
BRANCH  25  26
ATOM     26  N   UNL     1       3.244  -1.082   3.586  0.00  0.00    +0.388 N 
ATOM     27  H   UNL     1       3.348  -0.425   4.369  0.00  0.00    -0.084 HD
ATOM     28  H   UNL     1       3.431  -0.593   2.702  0.00  0.00    -0.084 HD
BRANCH  26  29
ATOM     29  C   UNL     1       4.208  -2.186   3.744  0.00  0.00    -0.042 C 
ATOM     30  C   UNL     1       3.932  -3.487   2.988  0.00  0.00    -0.009 C 
ATOM     31  C   UNL     1       3.749  -3.430   4.507  0.00  0.00    -0.009 C 
BRANCH  29  32
ATOM     32  C   UNL     1       5.646  -1.765   3.902  0.00  0.00    -0.058 A 
ATOM     33  C   UNL     1       6.637  -2.720   4.024  0.00  0.00    +0.002 A 
ATOM     34  C   UNL     1       7.957  -2.334   4.165  0.00  0.00    +0.000 A 
ATOM     35  C   UNL     1       8.285  -0.991   4.193  0.00  0.00    +0.000 A 
ATOM     36  C   UNL     1       7.293  -0.035   4.076  0.00  0.00    +0.000 A 
ATOM     37  C   UNL     1       5.974  -0.422   3.931  0.00  0.00    +0.002 A 
ENDBRANCH  29  32
ENDBRANCH  26  29
ENDBRANCH  25  26
ENDBRANCH   3  25
TORSDOF 13
