REMARK  Name = ZINC10107697
REMARK  12 active torsions:
REMARK  status: ('A' for Active; 'I' for Inactive)
REMARK    1  A    between atoms: C_1  and  C_2
REMARK    2  A    between atoms: C_2  and  O_3
REMARK    3  A    between atoms: O_3  and  C_4
REMARK    4  A    between atoms: C_7  and  N_10
REMARK    5  A    between atoms: C_11  and  C_37
REMARK    6  A    between atoms: N_20  and  C_25
REMARK    7  A    between atoms: N_23  and  C_24
REMARK    8  A    between atoms: C_25  and  C_26
REMARK    9  A    between atoms: C_26  and  C_28
REMARK   10  A    between atoms: C_26  and  C_29
REMARK   11  A    between atoms: C_29  and  N_72
REMARK   12  A    between atoms: C_34  and  C_36
REMARK                            x       y       z     vdW  Elec       q    Type
REMARK                         _______ _______ _______ _____ _____    ______ ____
ROOT
ATOM      1  N   UNL     1       1.113  -2.004  -0.281  0.00  0.00    -0.283 N 
ATOM      2  C   UNL     1      -0.043  -1.257  -0.415  0.00  0.00    +0.040 A 
ATOM      3  C   UNL     1       0.286   0.030  -0.355  0.00  0.00    +0.116 A 
ATOM      4  N   UNL     1       1.657   0.123  -0.190  0.00  0.00    -0.277 N 
ATOM      5  C   UNL     1       2.163  -1.131  -0.142  0.00  0.00    +0.223 A 
ATOM      6  N   UNL     1       3.476  -1.067   0.020  0.00  0.00    -0.193 NA
ATOM      7  C   UNL     1       3.864   0.203   0.083  0.00  0.00    +0.170 A 
ATOM      8  C   UNL     1       2.725   0.996  -0.049  0.00  0.00    +0.157 A 
ATOM      9  C   UNL     1       2.856   2.394  -0.016  0.00  0.00    +0.283 A 
ATOM     10  O   UNL     1       1.874   3.107  -0.129  0.00  0.00    -0.265 OA
ATOM     11  N   UNL     1       4.080   2.940   0.141  0.00  0.00    -0.259 N 
ATOM     12  C   UNL     1       5.173   2.168   0.267  0.00  0.00    +0.333 A 
ATOM     13  O   UNL     1       6.259   2.696   0.407  0.00  0.00    -0.246 OA
ATOM     14  N   UNL     1       5.095   0.824   0.242  0.00  0.00    -0.279 N 
ATOM     15  C   UNL     1       6.309   0.017   0.382  0.00  0.00    +0.155 C 
ATOM     16  C   UNL     1      -1.435  -1.806  -0.591  0.00  0.00    +0.065 C 
ENDROOT
BRANCH   1  20
ATOM     17  C   UNL     1       1.365  -6.167  -0.296  0.00  0.00    +0.121 A 
ATOM     18  C   UNL     1       0.687  -5.517   0.725  0.00  0.00    +0.047 A 
ATOM     19  C   UNL     1       0.603  -4.139   0.730  0.00  0.00    +0.030 A 
ATOM     20  C   UNL     1       1.198  -3.403  -0.286  0.00  0.00    +0.050 A 
ATOM     21  C   UNL     1       1.871  -4.055  -1.311  0.00  0.00    +0.030 A 
ATOM     22  C   UNL     1       1.959  -5.433  -1.312  0.00  0.00    +0.047 A 
BRANCH  17  23
ATOM     23  O   UNL     1       1.446  -7.524  -0.301  0.00  0.00    -0.492 OA
BRANCH  23  25
ATOM     24  C   UNL     1       2.144  -9.648  -1.218  0.00  0.00    +0.048 C 
ATOM     25  C   UNL     1       2.159  -8.127  -1.383  0.00  0.00    +0.225 C 
ENDBRANCH  23  25
ENDBRANCH  17  23
ENDBRANCH   1  20
BRANCH  11  26
ATOM     26  C   UNL     1       4.219   4.398   0.176  0.00  0.00    +0.131 C 
BRANCH  26  27
ATOM     27  C   UNL     1       4.445   4.923  -1.243  0.00  0.00    -0.011 C 
ATOM     28  C   UNL     1       3.199   4.656  -2.089  0.00  0.00    +0.007 C 
BRANCH  27  29
ATOM     29  C   UNL     1       4.715   6.428  -1.193  0.00  0.00    -0.074 C 
BRANCH  29  36
ATOM     30  C   UNL     1       5.947   5.925  -3.216  0.00  0.00    -0.078 C 
ATOM     31  C   UNL     1       6.436   6.513  -4.541  0.00  0.00    -0.019 C 
ATOM     32  C   UNL     1       5.228   6.862  -5.416  0.00  0.00    -0.003 C 
ATOM     33  C   UNL     1       4.328   7.844  -4.661  0.00  0.00    -0.016 C 
ATOM     34  C   UNL     1       3.900   7.217  -3.332  0.00  0.00    -0.072 C 
ATOM     35  C   UNL     1       3.016   8.203  -2.565  0.00  0.00    -0.013 C 
ATOM     36  N   UNL     1       5.106   6.928  -2.527  0.00  0.00    +0.382 N 
ATOM     37  H   UNL     1       5.646   7.794  -2.414  0.00  0.00    -0.081 HD
ENDBRANCH  29  36
ENDBRANCH  27  29
ENDBRANCH  26  27
ENDBRANCH  11  26
TORSDOF 7
