REMARK  Name = ZINC39616232
REMARK  4 active torsions:
REMARK  status: ('A' for Active; 'I' for Inactive)
REMARK    1  A    between atoms: C_3  and  N_11
REMARK    2  A    between atoms: C_6  and  N_7
REMARK    3  A    between atoms: C_12  and  C_14
REMARK    4  A    between atoms: C_14  and  N_15
REMARK                            x       y       z     vdW  Elec       q    Type
REMARK                         _______ _______ _______ _____ _____    ______ ____
ROOT
ATOM      1  N   UNL     1       3.584   2.125  -0.021  0.00  0.00    -0.283 N 
ATOM      2  C   UNL     1       3.568   3.470  -0.116  0.00  0.00    +0.239 C 
ATOM      3  O   UNL     1       2.512   4.066  -0.103  0.00  0.00    -0.273 OA
ATOM      4  H   UNL     1       4.429   1.654   0.049  0.00  0.00    +0.155 HD
ENDROOT
BRANCH   1   7
ATOM      5  C   UNL     1       0.065   1.242  -0.620  0.00  0.00    +0.034 A 
ATOM      6  C   UNL     1       1.250   1.952  -0.618  0.00  0.00    +0.026 A 
ATOM      7  C   UNL     1       2.381   1.409  -0.024  0.00  0.00    +0.048 A 
ATOM      8  C   UNL     1       2.317   0.153   0.567  0.00  0.00    +0.041 A 
ATOM      9  C   UNL     1       1.128  -0.551   0.562  0.00  0.00    +0.049 A 
ATOM     10  C   UNL     1       0.004  -0.007  -0.031  0.00  0.00    +0.127 A 
ATOM     11 BR   UNL     1       3.855  -0.591   1.378  0.00  0.00    -0.048 Br
BRANCH  10  12
ATOM     12  N   UNL     1      -1.268  -0.764  -0.034  0.00  0.00    +0.056 N 
ATOM     13  O   UNL     1      -2.253  -0.289  -0.552  0.00  0.00    -0.126 OA
ATOM     14  O   UNL     1      -1.323  -1.856   0.480  0.00  0.00    -0.126 OA
ENDBRANCH  10  12
ENDBRANCH   1   7
BRANCH   2  15
ATOM     15  C   UNL     1       4.862   4.232  -0.238  0.00  0.00    +0.243 C 
BRANCH  15  16
ATOM     16  N   UNL     1       4.578   5.666  -0.326  0.00  0.00    -0.219 N 
ATOM     17  C   UNL     1       4.518   6.393   0.807  0.00  0.00    +0.288 A 
ATOM     18  O   UNL     1       4.698   5.861   1.891  0.00  0.00    -0.265 OA
ATOM     19  C   UNL     1       4.245   7.775   0.727  0.00  0.00    +0.126 A 
ATOM     20  C   UNL     1       4.052   8.316  -0.515  0.00  0.00    +0.084 A 
ATOM     21  C   UNL     1       4.137   7.467  -1.633  0.00  0.00    +0.154 A 
ATOM     22  N   UNL     1       4.398   6.199  -1.480  0.00  0.00    -0.175 NA
ATOM     23 CL   UNL     1       3.710  10.008  -0.707  0.00  0.00    -0.080 Cl
ATOM     24 CL   UNL     1       4.156   8.756   2.156  0.00  0.00    -0.076 Cl
ENDBRANCH  15  16
ENDBRANCH   2  15
TORSDOF 4
