REMARK  Name = ZINC38611530
REMARK  8 active torsions:
REMARK  status: ('A' for Active; 'I' for Inactive)
REMARK    1  A    between atoms: C_1  and  C_2
REMARK    2  A    between atoms: N_7  and  C_9
REMARK    3  A    between atoms: C_9  and  C_11
REMARK    4  A    between atoms: C_9  and  C_12
REMARK    5  A    between atoms: N_14  and  C_15
REMARK    6  A    between atoms: C_23  and  C_25
REMARK    7  A    between atoms: C_25  and  O_27
REMARK    8  A    between atoms: O_27  and  C_28
REMARK                            x       y       z     vdW  Elec       q    Type
REMARK                         _______ _______ _______ _____ _____    ______ ____
ROOT
ATOM      1  C   UNL     1       2.103  -6.498   3.716  0.00  0.00    +0.053 C 
ATOM      2  C   UNL     1       2.288  -7.639   4.477  0.00  0.00    +0.019 A 
ATOM      3  C   UNL     1       3.001  -7.882   5.676  0.00  0.00    +0.031 A 
ATOM      4  C   UNL     1       3.011  -9.128   6.211  0.00  0.00    +0.042 A 
ATOM      5  C   UNL     1       2.333 -10.191   5.605  0.00  0.00    +0.022 A 
ATOM      6  C   UNL     1       1.632 -10.031   4.457  0.00  0.00    +0.027 A 
ATOM      7  C   UNL     1       1.572  -8.756   3.837  0.00  0.00    +0.045 A 
ATOM      8  N   UNL     1       0.970  -8.348   2.739  0.00  0.00    -0.367 N 
ATOM      9  C   UNL     1       1.229  -6.916   2.554  0.00  0.00    +0.234 C 
ATOM     10 CL   UNL     1       3.889  -9.412   7.681  0.00  0.00    -0.084 Cl
ATOM     11  H   UNL     1       0.438  -8.904   2.149  0.00  0.00    +0.161 HD
ENDROOT
BRANCH   1  14
ATOM     12  C   UNL     1       2.245  -4.217   3.180  0.00  0.00    +0.203 C 
ATOM     13  O   UNL     1       1.419  -4.373   2.306  0.00  0.00    -0.277 OA
ATOM     14  N   UNL     1       2.599  -5.253   3.965  0.00  0.00    -0.288 N 
ATOM     15  H   UNL     1       3.208  -5.114   4.707  0.00  0.00    +0.155 HD
BRANCH  12  16
ATOM     16  C   UNL     1       2.876  -2.864   3.387  0.00  0.00    +0.016 C 
ATOM     17  C   UNL     1       2.490  -2.328   4.768  0.00  0.00    -0.004 C 
BRANCH  16  23
ATOM     18  C   UNL     1      -1.038  -0.495   1.646  0.00  0.00    +0.005 C 
ATOM     19  C   UNL     1       0.451  -0.772   1.431  0.00  0.00    -0.031 C 
ATOM     20  C   UNL     1       1.224   0.550   1.444  0.00  0.00    -0.001 C 
ATOM     21  C   UNL     1       2.721   0.256   1.307  0.00  0.00    -0.018 C 
ATOM     22  C   UNL     1       3.156  -0.682   2.435  0.00  0.00    -0.078 C 
ATOM     23  N   UNL     1       2.400  -1.938   2.352  0.00  0.00    +0.387 N 
ATOM     24  C   UNL     1       0.970  -1.673   2.553  0.00  0.00    -0.075 C 
ATOM     25  H   UNL     1       2.538  -2.353   1.442  0.00  0.00    -0.081 HD
ENDBRANCH  16  23
ENDBRANCH  12  16
ENDBRANCH   1  14
BRANCH   9  26
ATOM     26  C   UNL     1       1.952  -6.686   1.252  0.00  0.00    +0.335 C 
ATOM     27  O   UNL     1       2.777  -7.482   0.870  0.00  0.00    -0.248 OA
BRANCH  26  28
ATOM     28  O   UNL     1       1.679  -5.597   0.516  0.00  0.00    -0.466 OA
ATOM     29  C   UNL     1       2.402  -5.443  -0.707  0.00  0.00    +0.280 C 
ENDBRANCH  26  28
ENDBRANCH   9  26
TORSDOF 5
