REMARK  Name = ZINC13272226
REMARK  13 active torsions:
REMARK  status: ('A' for Active; 'I' for Inactive)
REMARK    1  A    between atoms: C_1  and  C_2
REMARK    2  A    between atoms: C_2  and  C_4
REMARK    3  A    between atoms: C_2  and  S_16
REMARK    4  A    between atoms: N_6  and  C_7
REMARK    5  A    between atoms: C_10  and  O_14
REMARK    6  A    between atoms: O_14  and  C_15
REMARK    7  A    between atoms: S_16  and  C_17
REMARK    8  A    between atoms: C_20  and  C_30
REMARK    9  A    between atoms: N_21  and  C_22
REMARK   10  A    between atoms: C_22  and  C_24
REMARK   11  A    between atoms: C_22  and  C_27
REMARK   12  A    between atoms: C_24  and  C_25
REMARK   13  A    between atoms: C_24  and  C_26
REMARK                            x       y       z     vdW  Elec       q    Type
REMARK                         _______ _______ _______ _____ _____    ______ ____
ROOT
ATOM      1  C   UNL     1       2.385   0.270   1.415  0.00  0.00    +0.193 A 
ATOM      2  N   UNL     1       2.902   0.827   0.343  0.00  0.00    -0.122 NA
ATOM      3  N   UNL     1       4.146   1.085   0.534  0.00  0.00    -0.128 NA
ATOM      4  C   UNL     1       4.502   0.709   1.743  0.00  0.00    +0.172 A 
ATOM      5  N   UNL     1       3.382   0.181   2.346  0.00  0.00    -0.287 N 
ENDROOT
BRANCH   4   6
ATOM      6  C   UNL     1       5.841   0.835   2.340  0.00  0.00    +0.056 A 
ATOM      7  C   UNL     1       6.906   1.595   1.924  0.00  0.00    +0.019 A 
ATOM      8  C   UNL     1       8.073   1.552   2.653  0.00  0.00    +0.008 A 
ATOM      9  C   UNL     1       8.136   0.763   3.756  0.00  0.00    +0.046 A 
ATOM     10  S   UNL     1       6.501   0.046   3.799  0.00  0.00    -0.094 S 
ENDBRANCH   4   6
BRANCH   1  11
ATOM     11  S   UNL     1       0.716  -0.256   1.618  0.00  0.00    -0.073 S 
BRANCH  11  13
ATOM     12  C   UNL     1      -0.074   1.660  -0.167  0.00  0.00    +0.029 C 
ATOM     13  C   UNL     1      -0.066   0.143   0.030  0.00  0.00    +0.137 C 
BRANCH  13  14
ATOM     14  C   UNL     1      -1.482  -0.372   0.024  0.00  0.00    +0.230 C 
ATOM     15  O   UNL     1      -2.074  -0.530   1.071  0.00  0.00    -0.274 OA
ATOM     16  N   UNL     1      -2.090  -0.657  -1.144  0.00  0.00    -0.285 N 
ATOM     17  H   UNL     1      -1.646  -0.459  -1.984  0.00  0.00    +0.155 HD
BRANCH  16  18
ATOM     18  C   UNL     1      -3.365  -1.239  -1.147  0.00  0.00    +0.035 A 
ATOM     19  C   UNL     1      -4.265  -0.936  -2.160  0.00  0.00    +0.027 A 
ATOM     20  C   UNL     1      -5.521  -1.510  -2.162  0.00  0.00    +0.049 A 
ATOM     21  C   UNL     1      -5.884  -2.390  -1.153  0.00  0.00    +0.138 A 
ATOM     22  C   UNL     1      -4.985  -2.694  -0.140  0.00  0.00    +0.084 A 
ATOM     23  C   UNL     1      -3.726  -2.124  -0.140  0.00  0.00    +0.047 A 
ATOM     24 CL   UNL     1      -5.440  -3.795   1.123  0.00  0.00    -0.080 Cl
BRANCH  21  25
ATOM     25  O   UNL     1      -7.121  -2.955  -1.157  0.00  0.00    -0.494 OA
ATOM     26  C   UNL     1      -7.994  -2.598  -2.229  0.00  0.00    +0.277 C 
ENDBRANCH  21  25
ENDBRANCH  16  18
ENDBRANCH  13  14
ENDBRANCH  11  13
ENDBRANCH   1  11
BRANCH   5  27
ATOM     27  C   UNL     1       3.282  -0.366   3.702  0.00  0.00    +0.206 C 
BRANCH  27  28
ATOM     28  C   UNL     1       2.853  -1.833   3.630  0.00  0.00    +0.017 C 
ATOM     29  C   UNL     1       3.890  -2.629   2.835  0.00  0.00    +0.010 C 
ATOM     30  C   UNL     1       2.748  -2.404   5.045  0.00  0.00    +0.010 C 
ENDBRANCH  27  28
BRANCH  27  31
ATOM     31  C   UNL     1       2.260   0.418   4.485  0.00  0.00    +0.379 C 
ATOM     32  O   UNL     1       1.671   1.347   3.959  0.00  0.00    -0.244 OA
ATOM     33  O   UNL     1       2.023   0.123   5.644  0.00  0.00    -0.244 OA
ENDBRANCH  27  31
ENDBRANCH   5  27
TORSDOF 9
