REMARK  Name = ZINC24775369
REMARK  5 active torsions:
REMARK  status: ('A' for Active; 'I' for Inactive)
REMARK    1  A    between atoms: C_1  and  C_2
REMARK    2  A    between atoms: C_7  and  C_8
REMARK    3  A    between atoms: C_16  and  C_18
REMARK    4  A    between atoms: C_30  and  C_34
REMARK    5  A    between atoms: C_30  and  C_35
REMARK                            x       y       z     vdW  Elec       q    Type
REMARK                         _______ _______ _______ _____ _____    ______ ____
ROOT
ATOM      1  C   UNL     1       2.929   1.880   2.271  0.00  0.00    +0.263 C 
ATOM      2  O   UNL     1       3.616   1.183   2.994  0.00  0.00    -0.268 OA
ATOM      3  N   UNL     1       2.193   1.315   1.293  0.00  0.00    -0.293 N 
ATOM      4  C   UNL     1       1.433   2.150   0.352  0.00  0.00    +0.127 C 
ATOM      5  C   UNL     1      -0.036   1.712   0.384  0.00  0.00    +0.127 C 
ATOM      6  N   UNL     1      -0.094   0.251   0.240  0.00  0.00    -0.295 N 
ATOM      7  C   UNL     1       0.665  -0.584   1.181  0.00  0.00    +0.127 C 
ATOM      8  C   UNL     1       2.135  -0.146   1.149  0.00  0.00    +0.127 C 
ATOM      9  C   UNL     1      -0.831  -0.314  -0.738  0.00  0.00    +0.260 C 
ATOM     10  O   UNL     1      -0.789  -1.513  -0.912  0.00  0.00    -0.271 OA
ENDROOT
BRANCH   1  17
ATOM     11  C   UNL     1       4.262   3.984   0.383  0.00  0.00    +0.047 C 
ATOM     12  C   UNL     1       3.481   4.261   1.642  0.00  0.00    -0.010 A 
ATOM     13  C   UNL     1       3.209   5.517   2.197  0.00  0.00    +0.042 A 
ATOM     14  C   UNL     1       2.463   5.313   3.358  0.00  0.00    +0.028 A 
ATOM     15  N   UNL     1       2.279   4.001   3.503  0.00  0.00    -0.354 N 
ATOM     16  H   UNL     1       1.703   3.617   4.358  0.00  0.00    +0.166 HD
ATOM     17  C   UNL     1       2.901   3.335   2.463  0.00  0.00    +0.106 A 
ATOM     18  C   UNL     1       1.986   6.445   4.234  0.00  0.00    +0.060 C 
ATOM     19  C   UNL     1       2.838   7.688   3.961  0.00  0.00    -0.023 C 
ATOM     20  C   UNL     1       2.868   8.005   2.462  0.00  0.00    +0.086 C 
ATOM     21  C   UNL     1       3.576   6.867   1.744  0.00  0.00    +0.166 C 
ATOM     22  O   UNL     1       4.386   7.059   0.860  0.00  0.00    -0.292 OA
ATOM     23  C   UNL     1       2.248   8.879   4.717  0.00  0.00    +0.011 C 
ATOM     24  C   UNL     1       4.266   7.438   4.451  0.00  0.00    +0.011 C 
ENDBRANCH   1  17
BRANCH   9  25
ATOM     25  C   UNL     1      -1.706   0.546  -1.613  0.00  0.00    +0.296 C 
ATOM     26  C   UNL     1      -2.889   1.082  -0.795  0.00  0.00    +0.283 C 
ATOM     27  O   UNL     1      -3.705   1.880  -1.659  0.00  0.00    -0.484 OA
ATOM     28  C   UNL     1      -3.999   1.356  -2.880  0.00  0.00    +0.162 A 
ATOM     29  C   UNL     1      -5.050   1.887  -3.614  0.00  0.00    +0.049 A 
ATOM     30  C   UNL     1      -5.356   1.369  -4.858  0.00  0.00    +0.004 A 
ATOM     31  C   UNL     1      -4.617   0.322  -5.374  0.00  0.00    +0.004 A 
ATOM     32  C   UNL     1      -3.570  -0.213  -4.648  0.00  0.00    +0.049 A 
ATOM     33  C   UNL     1      -3.258   0.301  -3.398  0.00  0.00    +0.163 A 
ATOM     34  O   UNL     1      -2.226  -0.237  -2.693  0.00  0.00    -0.473 OA
ENDBRANCH   9  25
TORSDOF 2
