REMARK  Name = ZINC45115155
REMARK  5 active torsions:
REMARK  status: ('A' for Active; 'I' for Inactive)
REMARK    1  A    between atoms: C_1  and  C_2
REMARK    2  A    between atoms: C_2  and  C_19
REMARK    3  A    between atoms: C_4  and  N_6
REMARK    4  A    between atoms: C_7  and  C_9
REMARK    5  A    between atoms: C_13  and  N_18
REMARK                            x       y       z     vdW  Elec       q    Type
REMARK                         _______ _______ _______ _____ _____    ______ ____
ROOT
ATOM      1  C   UNL     1       2.920   0.511   3.991  0.00  0.00    +0.190 A 
ATOM      2  C   UNL     1       3.952   0.146   4.796  0.00  0.00    +0.063 A 
ATOM      3  C   UNL     1       4.211   1.291   5.668  0.00  0.00    +0.023 A 
ATOM      4  C   UNL     1       5.125   1.545   6.693  0.00  0.00    +0.034 A 
ATOM      5  C   UNL     1       5.105   2.768   7.337  0.00  0.00    +0.025 A 
ATOM      6  C   UNL     1       4.178   3.740   6.963  0.00  0.00    +0.026 A 
ATOM      7  C   UNL     1       3.273   3.498   5.954  0.00  0.00    +0.048 A 
ATOM      8  C   UNL     1       3.277   2.275   5.293  0.00  0.00    +0.136 A 
ATOM      9  O   UNL     1       2.534   1.769   4.288  0.00  0.00    -0.450 OA
ENDROOT
BRANCH   1  11
ATOM     10  N   UNL     1       1.300   0.135   2.205  0.00  0.00    -0.305 N 
ATOM     11  C   UNL     1       2.320  -0.335   2.950  0.00  0.00    +0.280 C 
ATOM     12  O   UNL     1       2.744  -1.459   2.760  0.00  0.00    -0.267 OA
ATOM     13  H   UNL     1       0.962   1.032   2.357  0.00  0.00    +0.149 HD
BRANCH  10  17
ATOM     14  C   UNL     1      -0.019   1.526   0.010  0.00  0.00    +0.013 C 
ATOM     15  C   UNL     1       0.002  -0.004   0.002  0.00  0.00    -0.015 C 
ATOM     16  C   UNL     1      -0.825  -0.728   1.066  0.00  0.00    +0.031 C 
ATOM     17  C   UNL     1       0.701  -0.708   1.167  0.00  0.00    +0.080 C 
ATOM     18  C   UNL     1       0.102  -0.655  -1.379  0.00  0.00    +0.013 C 
ENDBRANCH  10  17
ENDBRANCH   1  11
BRANCH   5  19
ATOM     19  N   UNL     1       6.016   3.031   8.365  0.00  0.00    -0.358 N 
ATOM     20  H   UNL     1       6.661   2.355   8.626  0.00  0.00    +0.142 HD
ATOM     21  H   UNL     1       6.003   3.889   8.818  0.00  0.00    +0.142 HD
ENDBRANCH   5  19
TORSDOF 3
