REMARK  Name = ZINC66079887
REMARK  4 active torsions:
REMARK  status: ('A' for Active; 'I' for Inactive)
REMARK    1  A    between atoms: N_9  and  C_12
REMARK    2  A    between atoms: C_12  and  N_13
REMARK    3  A    between atoms: C_16  and  N_19
REMARK    4  A    between atoms: C_20  and  C_22
REMARK                            x       y       z     vdW  Elec       q    Type
REMARK                         _______ _______ _______ _____ _____    ______ ____
ROOT
ATOM      1  N   UNL     1       3.061  -4.609  -1.391  0.00  0.00    +0.393 N 
ATOM      2  C   UNL     1       4.392  -4.080  -1.712  0.00  0.00    -0.074 C 
ATOM      3  C   UNL     1       4.769  -4.474  -3.142  0.00  0.00    +0.004 C 
ATOM      4  C   UNL     1       4.782  -6.001  -3.259  0.00  0.00    +0.069 C 
ATOM      5  C   UNL     1       3.411  -6.547  -2.849  0.00  0.00    +0.004 C 
ATOM      6  C   UNL     1       3.084  -6.076  -1.430  0.00  0.00    -0.074 C 
ATOM      7  H   UNL     1       2.393  -4.266  -2.065  0.00  0.00    -0.079 HD
ENDROOT
BRANCH   4   8
ATOM      8  N   UNL     1       5.068  -6.384  -4.644  0.00  0.00    -0.312 N 
ATOM      9  C   UNL     1       5.619  -7.585  -4.910  0.00  0.00    +0.216 C 
ATOM     10  O   UNL     1       5.878  -8.348  -4.004  0.00  0.00    -0.276 OA
ATOM     11  H   UNL     1       4.861  -5.774  -5.368  0.00  0.00    +0.149 HD
BRANCH   9  12
ATOM     12  C   UNL     1       5.913  -7.979  -6.335  0.00  0.00    +0.075 C 
ATOM     13  C   UNL     1       7.242  -7.418  -6.867  0.00  0.00    +0.013 C 
ATOM     14  C   UNL     1       7.909  -8.692  -6.321  0.00  0.00    +0.001 C 
ATOM     15  C   UNL     1       6.540  -9.377  -6.470  0.00  0.00    +0.013 C 
ENDBRANCH   9  12
ENDBRANCH   4   8
BRANCH   1  16
ATOM     16  C   UNL     1       2.670  -4.163  -0.046  0.00  0.00    +0.074 C 
BRANCH  16  25
ATOM     17  C   UNL     1      -0.017   1.373   0.010  0.00  0.00    +0.001 A 
ATOM     18  C   UNL     1       1.170   2.095   0.002  0.00  0.00    +0.002 A 
ATOM     19  C   UNL     1       2.386   1.452  -0.013  0.00  0.00    +0.030 A 
ATOM     20  C   UNL     1       2.432   0.055  -0.021  0.00  0.00    +0.100 A 
ATOM     21  C   UNL     1       1.224  -0.675  -0.013  0.00  0.00    +0.068 A 
ATOM     22  C   UNL     1       0.002  -0.004   0.002  0.00  0.00    +0.015 A 
ATOM     23  C   UNL     1       1.298  -2.144  -0.022  0.00  0.00    +0.276 A 
ATOM     24  O   UNL     1       0.291  -2.829  -0.016  0.00  0.00    -0.266 OA
ATOM     25  N   UNL     1       2.530  -2.705  -0.037  0.00  0.00    -0.227 N 
ATOM     26  N   UNL     1       3.668  -1.894  -0.044  0.00  0.00    -0.064 NA
ATOM     27  N   UNL     1       3.612  -0.612  -0.037  0.00  0.00    -0.131 NA
ENDBRANCH  16  25
ENDBRANCH   1  16
TORSDOF 4
