REMARK  Name = ZINC15602491
REMARK  7 active torsions:
REMARK  status: ('A' for Active; 'I' for Inactive)
REMARK    1  A    between atoms: C_1  and  C_2
REMARK    2  A    between atoms: C_2  and  C_4
REMARK    3  A    between atoms: C_2  and  N_24
REMARK    4  A    between atoms: C_4  and  C_5
REMARK    5  A    between atoms: N_7  and  N_8
REMARK    6  A    between atoms: C_15  and  C_18
REMARK    7  A    between atoms: C_25  and  C_27
REMARK                            x       y       z     vdW  Elec       q    Type
REMARK                         _______ _______ _______ _____ _____    ______ ____
ROOT
ATOM      1  C   UNL     1      -2.798   0.365   1.144  0.00  0.00    +0.233 C 
ATOM      2  O   UNL     1      -2.135   0.450   2.156  0.00  0.00    -0.274 OA
ATOM      3  N   UNL     1      -2.392   0.985   0.018  0.00  0.00    -0.219 N 
ATOM      4  H   UNL     1      -2.922   0.917  -0.791  0.00  0.00    +0.176 HD
ENDROOT
BRANCH   3   5
ATOM      5  N   UNL     1      -1.204   1.727   0.017  0.00  0.00    -0.212 N 
ATOM      6  C   UNL     1      -0.013   1.076   0.008  0.00  0.00    +0.223 A 
ATOM      7  N   UNL     1       1.116   1.733   0.001  0.00  0.00    -0.228 NA
ATOM      8  C   UNL     1       1.135   3.063   0.008  0.00  0.00    +0.116 A 
ATOM      9  C   UNL     1      -0.047   3.822   0.023  0.00  0.00    +0.081 A 
ATOM     10  C   UNL     1      -1.266   3.071   0.031  0.00  0.00    +0.280 A 
ATOM     11  O   UNL     1      -2.344   3.641   0.044  0.00  0.00    -0.265 OA
ATOM     12  C   UNL     1       0.146   5.267   0.029  0.00  0.00    +0.004 A 
ATOM     13  C   UNL     1       1.410   5.755   0.019  0.00  0.00    +0.056 A 
ATOM     14  S   UNL     1       2.420   4.286   0.002  0.00  0.00    -0.076 S 
BRANCH  12  15
ATOM     15  C   UNL     1      -1.018   6.185   0.044  0.00  0.00    -0.017 A 
ATOM     16  C   UNL     1      -2.053   6.018  -0.874  0.00  0.00    +0.008 A 
ATOM     17  C   UNL     1      -3.137   6.872  -0.851  0.00  0.00    +0.001 A 
ATOM     18  C   UNL     1      -3.192   7.899   0.074  0.00  0.00    +0.000 A 
ATOM     19  C   UNL     1      -2.165   8.073   0.984  0.00  0.00    +0.001 A 
ATOM     20  C   UNL     1      -1.079   7.222   0.974  0.00  0.00    +0.008 A 
ENDBRANCH  12  15
ENDBRANCH   3   5
BRANCH   1  21
ATOM     21  C   UNL     1      -4.077  -0.433   1.145  0.00  0.00    +0.119 C 
BRANCH  21  23
ATOM     22  C   UNL     1      -5.662  -1.734   2.573  0.00  0.00    +0.028 C 
ATOM     23  C   UNL     1      -4.305  -1.028   2.536  0.00  0.00    +0.079 C 
BRANCH  23  24
ATOM     24  N   UNL     1      -3.244  -1.994   2.835  0.00  0.00    -0.308 N 
ATOM     25  C   UNL     1      -2.922  -2.268   4.114  0.00  0.00    +0.244 C 
ATOM     26  O   UNL     1      -3.512  -1.713   5.021  0.00  0.00    -0.270 OA
ATOM     27  H   UNL     1      -2.774  -2.437   2.111  0.00  0.00    +0.149 HD
BRANCH  25  28
ATOM     28  C   UNL     1      -1.852  -3.242   4.415  0.00  0.00    +0.037 A 
ATOM     29  C   UNL     1      -1.177  -3.885   3.377  0.00  0.00    +0.013 A 
ATOM     30  C   UNL     1      -0.176  -4.789   3.664  0.00  0.00    +0.001 A 
ATOM     31  C   UNL     1       0.152  -5.068   4.979  0.00  0.00    +0.000 A 
ATOM     32  C   UNL     1      -0.517  -4.439   6.014  0.00  0.00    +0.001 A 
ATOM     33  C   UNL     1      -1.517  -3.528   5.740  0.00  0.00    +0.013 A 
ENDBRANCH  25  28
ENDBRANCH  23  24
ENDBRANCH  21  23
ENDBRANCH   1  21
TORSDOF 6
