REMARK  Name = ZINC00649162
REMARK  15 active torsions:
REMARK  status: ('A' for Active; 'I' for Inactive)
REMARK    1  A    between atoms: C_1  and  C_2
REMARK    2  A    between atoms: C_3  and  C_37
REMARK    3  A    between atoms: C_4  and  C_25
REMARK    4  A    between atoms: C_10  and  C_15
REMARK    5  A    between atoms: C_18  and  O_23
REMARK    6  A    between atoms: C_19  and  O_21
REMARK    7  A    between atoms: O_21  and  C_22
REMARK    8  A    between atoms: O_23  and  C_24
REMARK    9  A    between atoms: C_28  and  O_33
REMARK   10  A    between atoms: C_29  and  O_31
REMARK   11  A    between atoms: O_31  and  C_32
REMARK   12  A    between atoms: O_33  and  C_34
REMARK   13  A    between atoms: C_34  and  C_36
REMARK   14  A    between atoms: C_37  and  O_39
REMARK   15  A    between atoms: O_39  and  C_40
REMARK                            x       y       z     vdW  Elec       q    Type
REMARK                         _______ _______ _______ _____ _____    ______ ____
ROOT
ATOM      1  C   UNL     1       2.689  -0.050   0.540  0.00  0.00    +0.061 C 
ATOM      2  C   UNL     1       2.572   1.427   0.268  0.00  0.00    +0.016 C 
ATOM      3  C   UNL     1       1.379   1.954  -0.056  0.00  0.00    +0.065 C 
ATOM      4  C   UNL     1       1.222   3.423  -0.321  0.00  0.00    +0.092 C 
ATOM      5  C   UNL     1       2.556   4.067  -0.603  0.00  0.00    +0.024 C 
ATOM      6  C   UNL     1       3.706   3.451  -0.256  0.00  0.00    +0.016 C 
ATOM      7  N   UNL     1       3.682   2.222   0.347  0.00  0.00    -0.321 N 
ATOM      8  C   UNL     1       5.043   4.095  -0.525  0.00  0.00    +0.059 C 
ATOM      9  C   UNL     1       4.952   4.965  -1.780  0.00  0.00    +0.032 C 
ATOM     10  C   UNL     1       3.860   6.018  -1.564  0.00  0.00    +0.088 C 
ATOM     11  C   UNL     1       2.567   5.322  -1.238  0.00  0.00    +0.162 C 
ATOM     12  O   UNL     1       1.513   5.853  -1.527  0.00  0.00    -0.292 OA
ATOM     13  H   UNL     1       4.567   1.877   0.899  0.00  0.00    +0.152 HD
ENDROOT
BRANCH   9  14
ATOM     14  C   UNL     1       6.274   5.649  -2.020  0.00  0.00    -0.040 A 
ATOM     15  C   UNL     1       6.803   6.484  -1.054  0.00  0.00    +0.008 A 
ATOM     16  C   UNL     1       8.015   7.113  -1.269  0.00  0.00    +0.049 A 
ATOM     17  C   UNL     1       8.702   6.908  -2.455  0.00  0.00    +0.161 A 
ATOM     18  C   UNL     1       8.169   6.067  -3.427  0.00  0.00    +0.162 A 
ATOM     19  C   UNL     1       6.956   5.435  -3.203  0.00  0.00    +0.053 A 
BRANCH  18  20
ATOM     20  O   UNL     1       8.839   5.863  -4.593  0.00  0.00    -0.491 OA
ATOM     21  C   UNL     1       8.231   4.987  -5.545  0.00  0.00    +0.277 C 
ENDBRANCH  18  20
BRANCH  17  22
ATOM     22  O   UNL     1       9.894   7.526  -2.668  0.00  0.00    -0.491 OA
ATOM     23  C   UNL     1      10.380   8.375  -1.626  0.00  0.00    +0.277 C 
ENDBRANCH  17  22
ENDBRANCH   9  14
BRANCH   4  24
ATOM     24  C   UNL     1       0.602   4.079   0.886  0.00  0.00    -0.032 A 
ATOM     25  C   UNL     1       1.245   4.021   2.109  0.00  0.00    +0.008 A 
ATOM     26  C   UNL     1       0.681   4.622   3.219  0.00  0.00    +0.050 A 
ATOM     27  C   UNL     1      -0.531   5.285   3.107  0.00  0.00    +0.173 A 
ATOM     28  C   UNL     1      -1.178   5.343   1.876  0.00  0.00    +0.163 A 
ATOM     29  C   UNL     1      -0.604   4.743   0.767  0.00  0.00    +0.054 A 
BRANCH  28  30
ATOM     30  O   UNL     1      -2.367   5.992   1.762  0.00  0.00    -0.491 OA
ATOM     31  C   UNL     1      -2.973   6.012   0.468  0.00  0.00    +0.277 C 
ENDBRANCH  28  30
BRANCH  27  32
ATOM     32  O   UNL     1      -1.087   5.877   4.198  0.00  0.00    -0.422 OA
BRANCH  32  33
ATOM     33  C   UNL     1      -2.020   5.176   4.863  0.00  0.00    +0.309 C 
ATOM     34  O   UNL     1      -2.397   4.112   4.432  0.00  0.00    -0.251 OA
ATOM     35  C   UNL     1      -2.596   5.718   6.146  0.00  0.00    +0.136 C 
ENDBRANCH  32  33
ENDBRANCH  27  32
ENDBRANCH   4  24
BRANCH   3  36
ATOM     36  C   UNL     1       0.248   1.109  -0.144  0.00  0.00    +0.337 C 
ATOM     37  O   UNL     1       0.385  -0.099  -0.084  0.00  0.00    -0.245 OA
BRANCH  36  38
ATOM     38  O   UNL     1      -0.982   1.641  -0.300  0.00  0.00    -0.465 OA
ATOM     39  C   UNL     1      -2.078   0.728  -0.387  0.00  0.00    +0.280 C 
ENDBRANCH  36  38
ENDBRANCH   3  36
TORSDOF 9
