REMARK  Name = ZINC05407906
REMARK  7 active torsions:
REMARK  status: ('A' for Active; 'I' for Inactive)
REMARK    1  A    between atoms: C_1  and  C_2
REMARK    2  A    between atoms: C_2  and  C_3
REMARK    3  A    between atoms: C_2  and  C_4
REMARK    4  A    between atoms: C_4  and  C_6
REMARK    5  A    between atoms: C_4  and  N_17
REMARK    6  A    between atoms: C_18  and  C_20
REMARK    7  A    between atoms: C_23  and  N_27
REMARK                            x       y       z     vdW  Elec       q    Type
REMARK                         _______ _______ _______ _____ _____    ______ ____
ROOT
ATOM      1  C   UNL     1       3.712  -0.703  -0.038  0.00  0.00    +0.106 C 
ENDROOT
BRANCH   1   2
ATOM      2  C   UNL     1       2.395   0.030  -0.021  0.00  0.00    -0.023 A 
ATOM      3  C   UNL     1       2.377   1.413  -0.014  0.00  0.00    +0.009 A 
ATOM      4  C   UNL     1       1.172   2.093   0.002  0.00  0.00    +0.050 A 
ATOM      5  C   UNL     1      -0.017   1.383   0.010  0.00  0.00    +0.162 A 
ATOM      6  C   UNL     1       0.002  -0.004   0.002  0.00  0.00    +0.162 A 
ATOM      7  C   UNL     1       1.209  -0.682  -0.013  0.00  0.00    +0.055 A 
ATOM      8  O   UNL     1      -1.175  -0.695   0.010  0.00  0.00    -0.488 OA
ATOM      9  C   UNL     1      -1.966  -0.594  -1.176  0.00  0.00    +0.232 C 
ATOM     10  C   UNL     1      -2.829   0.658  -1.143  0.00  0.00    +0.082 C 
ATOM     11  C   UNL     1      -2.001   1.933  -1.161  0.00  0.00    +0.232 C 
ATOM     12  O   UNL     1      -1.212   2.041   0.030  0.00  0.00    -0.488 OA
ENDBRANCH   1   2
BRANCH   1  13
ATOM     13  N   UNL     1       4.645  -0.011  -0.931  0.00  0.00    -0.304 N 
ATOM     14  C   UNL     1       5.658  -0.691  -1.504  0.00  0.00    +0.246 C 
ATOM     15  O   UNL     1       5.797  -1.877  -1.280  0.00  0.00    -0.270 OA
ATOM     16  H   UNL     1       4.533   0.936  -1.110  0.00  0.00    +0.150 HD
BRANCH  14  17
ATOM     17  C   UNL     1       6.599   0.007  -2.405  0.00  0.00    +0.055 A 
ATOM     18  C   UNL     1       6.441   1.370  -2.665  0.00  0.00    +0.017 A 
ATOM     19  C   UNL     1       7.323   2.015  -3.506  0.00  0.00    +0.033 A 
ATOM     20  C   UNL     1       8.363   1.315  -4.093  0.00  0.00    +0.128 A 
ATOM     21  C   UNL     1       8.526  -0.034  -3.841  0.00  0.00    +0.053 A 
ATOM     22  C   UNL     1       7.653  -0.693  -2.997  0.00  0.00    +0.055 A 
ATOM     23 CL   UNL     1       7.863  -2.386  -2.676  0.00  0.00    -0.083 Cl
BRANCH  20  24
ATOM     24  N   UNL     1       9.306   2.016  -4.994  0.00  0.00    +0.056 N 
ATOM     25  O   UNL     1       9.165   3.205  -5.218  0.00  0.00    -0.126 OA
ATOM     26  O   UNL     1      10.222   1.403  -5.512  0.00  0.00    -0.126 OA
ENDBRANCH  20  24
ENDBRANCH  14  17
ENDBRANCH   1  13
BRANCH   1  28
ATOM     27  C   UNL     1       3.319  -1.462   2.310  0.00  0.00    +0.009 C 
ATOM     28  C   UNL     1       4.293  -0.740   1.377  0.00  0.00    +0.008 C 
ATOM     29  C   UNL     1       5.630  -1.484   1.360  0.00  0.00    +0.009 C 
ENDBRANCH   1  28
TORSDOF 5
