REMARK  Name = ZINC63269039
REMARK  9 active torsions:
REMARK  status: ('A' for Active; 'I' for Inactive)
REMARK    1  A    between atoms: C_1  and  C_2
REMARK    2  A    between atoms: C_2  and  C_3
REMARK    3  A    between atoms: C_2  and  N_4
REMARK    4  A    between atoms: N_7  and  N_8
REMARK    5  A    between atoms: C_9  and  C_11
REMARK    6  A    between atoms: C_12  and  C_13
REMARK    7  A    between atoms: C_16  and  S_19
REMARK    8  A    between atoms: S_19  and  N_22
REMARK    9  A    between atoms: N_22  and  C_23
REMARK                            x       y       z     vdW  Elec       q    Type
REMARK                         _______ _______ _______ _____ _____    ______ ____
ROOT
ATOM      1  C   UNL     1       4.143  -2.169   4.380  0.00  0.00    +0.069 C 
ATOM      2  C   UNL     1       4.795  -2.616   5.473  0.00  0.00    +0.013 C 
ENDROOT
BRANCH   2   3
ATOM      3  C   UNL     1       6.227  -2.946   5.391  0.00  0.00    -0.025 A 
ATOM      4  C   UNL     1       6.916  -2.792   4.184  0.00  0.00    +0.010 A 
ATOM      5  C   UNL     1       8.258  -3.103   4.116  0.00  0.00    +0.029 A 
ATOM      6  C   UNL     1       8.922  -3.567   5.238  0.00  0.00    +0.105 A 
ATOM      7  C   UNL     1       8.247  -3.722   6.436  0.00  0.00    +0.029 A 
ATOM      8  C   UNL     1       6.907  -3.410   6.522  0.00  0.00    +0.010 A 
BRANCH   6   9
ATOM      9  S   UNL     1      10.637  -3.961   5.140  0.00  0.00    +0.059 S 
ATOM     10  O   UNL     1      10.899  -4.891   6.183  0.00  0.00    -0.153 OA
ATOM     11  O   UNL     1      10.910  -4.250   3.776  0.00  0.00    -0.153 OA
BRANCH   9  12
ATOM     12  N   UNL     1      11.478  -2.584   5.511  0.00  0.00    -0.187 NA
ATOM     13  H   UNL     1      12.034  -2.159   4.839  0.00  0.00    +0.148 HD
BRANCH  12  14
ATOM     14  C   UNL     1      11.383  -2.007   6.854  0.00  0.00    +0.077 C 
ATOM     15  C   UNL     1      11.458  -0.484   6.975  0.00  0.00    +0.022 C 
ATOM     16  C   UNL     1      12.638  -1.345   7.429  0.00  0.00    +0.022 C 
ENDBRANCH  12  14
ENDBRANCH   9  12
ENDBRANCH   6   9
ENDBRANCH   2   3
BRANCH   1  18
ATOM     17  N   UNL     1       2.066  -1.394   3.370  0.00  0.00    -0.230 N 
ATOM     18  C   UNL     1       2.718  -1.841   4.462  0.00  0.00    +0.253 C 
ATOM     19  O   UNL     1       2.123  -1.971   5.515  0.00  0.00    -0.269 OA
ATOM     20  H   UNL     1       2.541  -1.290   2.530  0.00  0.00    +0.173 HD
BRANCH  17  24
ATOM     21  N   UNL     1       0.711  -0.489   1.189  0.00  0.00    -0.296 N 
ATOM     22  C   UNL     1       0.051  -0.633   2.355  0.00  0.00    +0.316 C 
ATOM     23  O   UNL     1      -1.132  -0.361   2.423  0.00  0.00    -0.251 OA
ATOM     24  N   UNL     1       0.703  -1.080   3.447  0.00  0.00    -0.218 N 
ATOM     25  H   UNL     1       1.654  -0.707   1.135  0.00  0.00    +0.151 HD
ATOM     26  H   UNL     1       0.229  -1.184   4.287  0.00  0.00    +0.174 HD
BRANCH  21  28
ATOM     27  C   UNL     1      -0.019   1.526   0.010  0.00  0.00    +0.027 C 
ATOM     28  C   UNL     1       0.002  -0.004   0.002  0.00  0.00    +0.068 C 
ATOM     29  C   UNL     1       0.718  -0.497  -1.257  0.00  0.00    +0.027 C 
ENDBRANCH  21  28
ENDBRANCH  17  24
ENDBRANCH   1  18
TORSDOF 7
