REMARK  Name = ZINC54343176
REMARK  8 active torsions:
REMARK  status: ('A' for Active; 'I' for Inactive)
REMARK    1  A    between atoms: C_1  and  C_2
REMARK    2  A    between atoms: C_3  and  N_12
REMARK    3  A    between atoms: C_7  and  S_8
REMARK    4  A    between atoms: S_8  and  N_11
REMARK    5  A    between atoms: C_13  and  C_15
REMARK    6  A    between atoms: N_20  and  C_22
REMARK    7  A    between atoms: C_22  and  C_23
REMARK    8  A    between atoms: C_22  and  C_24
REMARK                            x       y       z     vdW  Elec       q    Type
REMARK                         _______ _______ _______ _____ _____    ______ ____
ROOT
ATOM      1  C   UNL     1      -1.263   1.189  -0.146  0.00  0.00    +0.048 C 
ATOM      2  C   UNL     1      -0.583  -0.153  -0.073  0.00  0.00    -0.003 A 
ATOM      3  C   UNL     1       0.017  -0.692  -1.204  0.00  0.00    +0.038 A 
ATOM      4  C   UNL     1       0.643  -1.929  -1.132  0.00  0.00    +0.024 A 
ATOM      5  C   UNL     1       0.668  -2.620   0.064  0.00  0.00    +0.004 A 
ATOM      6  C   UNL     1       0.069  -2.082   1.188  0.00  0.00    +0.029 A 
ATOM      7  C   UNL     1      -0.550  -0.847   1.121  0.00  0.00    +0.110 A 
ENDROOT
BRANCH   3   8
ATOM      8  N   UNL     1      -0.010   0.011  -2.413  0.00  0.00    -0.285 N 
ATOM      9  C   UNL     1       0.095  -0.653  -3.581  0.00  0.00    +0.222 C 
ATOM     10  O   UNL     1       0.113  -1.866  -3.590  0.00  0.00    -0.275 OA
ATOM     11  H   UNL     1      -0.105   0.977  -2.411  0.00  0.00    +0.155 HD
BRANCH   9  12
ATOM     12  C   UNL     1       0.191   0.111  -4.877  0.00  0.00    +0.101 C 
ATOM     13  C   UNL     1       1.492   0.945  -4.932  0.00  0.00    +0.110 C 
ATOM     14  C   UNL     1       2.481   0.044  -5.637  0.00  0.00    +0.217 C 
ATOM     15  O   UNL     1       3.684   0.199  -5.638  0.00  0.00    -0.276 OA
ATOM     16  N   UNL     1       1.833  -0.955  -6.262  0.00  0.00    -0.298 N 
ATOM     17  C   UNL     1       0.381  -0.849  -6.072  0.00  0.00    +0.121 C 
BRANCH  16  18
ATOM     18  C   UNL     1       2.491  -2.012  -7.033  0.00  0.00    +0.070 C 
ATOM     19  C   UNL     1       3.280  -1.387  -8.186  0.00  0.00    +0.028 C 
ATOM     20  C   UNL     1       3.447  -2.787  -6.124  0.00  0.00    +0.028 C 
ENDBRANCH  16  18
ENDBRANCH   9  12
ENDBRANCH   3   8
BRANCH   7  21
ATOM     21  S   UNL     1      -1.305  -0.163   2.558  0.00  0.00    +0.056 S 
ATOM     22  O   UNL     1      -2.608   0.255   2.173  0.00  0.00    -0.153 OA
ATOM     23  O   UNL     1      -1.082  -1.087   3.614  0.00  0.00    -0.153 OA
BRANCH  21  24
ATOM     24  N   UNL     1      -0.464   1.210   2.946  0.00  0.00    -0.204 NA
ATOM     25  H   UNL     1      -0.915   1.948   3.385  0.00  0.00    +0.144 HD
ATOM     26  H   UNL     1       0.480   1.276   2.734  0.00  0.00    +0.144 HD
ENDBRANCH  21  24
ENDBRANCH   7  21
TORSDOF 5
