REMARK  Name = ZINC06196758
REMARK  11 active torsions:
REMARK  status: ('A' for Active; 'I' for Inactive)
REMARK    1  A    between atoms: C_1  and  C_2
REMARK    2  A    between atoms: C_2  and  O_3
REMARK    3  A    between atoms: O_3  and  C_4
REMARK    4  A    between atoms: C_11  and  C_16
REMARK    5  A    between atoms: C_16  and  C_18
REMARK    6  A    between atoms: C_16  and  N_68
REMARK    7  A    between atoms: N_22  and  C_23
REMARK    8  A    between atoms: C_23  and  C_24
REMARK    9  A    between atoms: C_23  and  C_25
REMARK   10  A    between atoms: C_23  and  C_26
REMARK   11  A    between atoms: C_32  and  C_34
REMARK                            x       y       z     vdW  Elec       q    Type
REMARK                         _______ _______ _______ _____ _____    ______ ____
ROOT
ATOM      1  C   UNL     1       1.866   0.752  -0.700  0.00  0.00    +0.039 C 
ENDROOT
BRANCH   1   9
ATOM      2  C   UNL     1      -2.256   3.966  -4.033  0.00  0.00    +0.121 A 
ATOM      3  C   UNL     1      -3.092   4.289  -2.966  0.00  0.00    +0.047 A 
ATOM      4  C   UNL     1      -2.805   3.851  -1.693  0.00  0.00    +0.030 A 
ATOM      5  C   UNL     1      -1.662   3.094  -1.459  0.00  0.00    +0.049 A 
ATOM      6  C   UNL     1      -0.811   2.771  -2.533  0.00  0.00    +0.002 A 
ATOM      7  C   UNL     1      -1.119   3.212  -3.824  0.00  0.00    +0.055 A 
ATOM      8  C   UNL     1       0.386   1.969  -2.274  0.00  0.00    +0.017 A 
ATOM      9  C   UNL     1       0.639   1.574  -1.002  0.00  0.00    +0.011 A 
ATOM     10  C   UNL     1      -0.243   1.929   0.041  0.00  0.00    +0.251 A 
ATOM     11  O   UNL     1       0.004   1.564   1.178  0.00  0.00    -0.268 OA
ATOM     12  N   UNL     1      -1.347   2.660  -0.187  0.00  0.00    -0.322 N 
ATOM     13  H   UNL     1      -1.950   2.893   0.576  0.00  0.00    +0.169 HD
BRANCH   2  14
ATOM     14  O   UNL     1      -2.561   4.398  -5.286  0.00  0.00    -0.492 OA
BRANCH  14  16
ATOM     15  C   UNL     1      -3.927   5.566  -6.902  0.00  0.00    +0.048 C 
ATOM     16  C   UNL     1      -3.751   5.175  -5.433  0.00  0.00    +0.225 C 
ENDBRANCH  14  16
ENDBRANCH   2  14
ENDBRANCH   1   9
BRANCH   1  24
ATOM     17  C   UNL     1       3.062   2.809  -0.254  0.00  0.00    -0.058 C 
ATOM     18  C   UNL     1       3.793   3.595   0.839  0.00  0.00    +0.089 C 
ATOM     19  N   UNL     1       4.935   2.794   1.307  0.00  0.00    -0.299 N 
ATOM     20  C   UNL     1       4.689   1.399   1.704  0.00  0.00    +0.089 C 
ATOM     21  C   UNL     1       3.922   0.700   0.576  0.00  0.00    -0.058 C 
ATOM     22  C   UNL     1       6.172   3.324   1.370  0.00  0.00    +0.282 C 
ATOM     23  O   UNL     1       7.093   2.668   1.821  0.00  0.00    -0.267 OA
ATOM     24  N   UNL     1       2.700   1.478   0.279  0.00  0.00    +0.391 N 
ATOM     25  H   UNL     1       2.165   1.601   1.147  0.00  0.00    -0.080 HD
BRANCH  22  26
ATOM     26  C   UNL     1       6.410   4.691   0.895  0.00  0.00    +0.189 A 
ATOM     27  C   UNL     1       7.627   5.297   0.770  0.00  0.00    +0.054 A 
ATOM     28  C   UNL     1       7.386   6.591   0.284  0.00  0.00    +0.042 A 
ATOM     29  C   UNL     1       6.049   6.717   0.135  0.00  0.00    +0.196 A 
ATOM     30  O   UNL     1       5.465   5.568   0.498  0.00  0.00    -0.458 OA
ENDBRANCH  22  26
ENDBRANCH   1  24
BRANCH   1  31
ATOM     31  C   UNL     1       2.633   0.509  -1.974  0.00  0.00    +0.143 A 
ATOM     32  N   UNL     1       3.402   1.367  -2.600  0.00  0.00    -0.115 NA
ATOM     33  N   UNL     1       3.879   0.785  -3.646  0.00  0.00    -0.023 NA
ATOM     34  N   UNL     1       3.434  -0.422  -3.703  0.00  0.00    -0.043 NA
ATOM     35  N   UNL     1       2.667  -0.632  -2.687  0.00  0.00    -0.225 N 
BRANCH  35  36
ATOM     36  C   UNL     1       1.963  -1.877  -2.370  0.00  0.00    +0.059 C 
ATOM     37  C   UNL     1       0.469  -1.590  -2.207  0.00  0.00    +0.036 C 
ATOM     38  C   UNL     1       2.168  -2.882  -3.506  0.00  0.00    +0.036 C 
ATOM     39  C   UNL     1       2.516  -2.459  -1.068  0.00  0.00    +0.036 C 
ENDBRANCH  35  36
ENDBRANCH   1  31
TORSDOF 7
