REMARK  Name = ZINC50672088
REMARK  7 active torsions:
REMARK  status: ('A' for Active; 'I' for Inactive)
REMARK    1  A    between atoms: C_1  and  C_2
REMARK    2  A    between atoms: C_5  and  C_7
REMARK    3  A    between atoms: C_7  and  C_9
REMARK    4  A    between atoms: C_7  and  N_10
REMARK    5  A    between atoms: N_10  and  S_11
REMARK    6  A    between atoms: S_11  and  C_14
REMARK    7  A    between atoms: C_15  and  N_22
REMARK                            x       y       z     vdW  Elec       q    Type
REMARK                         _______ _______ _______ _____ _____    ______ ____
ROOT
ATOM      1  S   UNL     1       3.492  -4.181  -1.804  0.00  0.00    +0.078 S 
ATOM      2  O   UNL     1       4.528  -3.591  -2.576  0.00  0.00    -0.151 OA
ATOM      3  O   UNL     1       3.729  -5.255  -0.904  0.00  0.00    -0.151 OA
ENDROOT
BRANCH   1   4
ATOM      4  C   UNL     1       2.269  -4.739  -2.943  0.00  0.00    +0.220 A 
ATOM      5  C   UNL     1       1.363  -5.715  -2.725  0.00  0.00    +0.163 A 
ATOM      6  N   UNL     1       0.610  -5.845  -3.830  0.00  0.00    -0.205 NA
ATOM      7  C   UNL     1       1.015  -4.987  -4.724  0.00  0.00    +0.181 A 
ATOM      8  N   UNL     1       2.057  -4.248  -4.234  0.00  0.00    -0.276 N 
ATOM      9  C   UNL     1       2.590  -3.289  -5.069  0.00  0.00    +0.102 A 
ATOM     10  C   UNL     1       2.098  -3.102  -6.293  0.00  0.00    +0.067 A 
ATOM     11  S   UNL     1       0.799  -4.326  -6.359  0.00  0.00    -0.058 S 
BRANCH   5  12
ATOM     12  N   UNL     1       1.231  -6.466  -1.547  0.00  0.00    -0.340 N 
ATOM     13  H   UNL     1       1.824  -6.300  -0.797  0.00  0.00    +0.144 HD
ATOM     14  H   UNL     1       0.547  -7.150  -1.482  0.00  0.00    +0.144 HD
ENDBRANCH   5  12
ENDBRANCH   1   4
BRANCH   1  15
ATOM     15  N   UNL     1       2.811  -2.961  -0.914  0.00  0.00    -0.178 NA
ATOM     16  H   UNL     1       3.159  -2.058  -0.984  0.00  0.00    +0.149 HD
BRANCH  15  17
ATOM     17  C   UNL     1       1.684  -3.245  -0.023  0.00  0.00    +0.139 C 
ATOM     18  C   UNL     1       2.205  -3.494   1.394  0.00  0.00    +0.034 C 
BRANCH  17  23
ATOM     19  C   UNL     1      -0.018   1.503   0.010  0.00  0.00    +0.086 C 
ATOM     20  C   UNL     1       0.002  -0.004   0.002  0.00  0.00    +0.102 A 
ATOM     21  C   UNL     1      -1.078  -0.805   0.003  0.00  0.00    +0.045 A 
ATOM     22  C   UNL     1      -0.601  -2.136  -0.007  0.00  0.00    +0.046 A 
ATOM     23  C   UNL     1       0.742  -2.069  -0.013  0.00  0.00    +0.123 A 
ATOM     24  O   UNL     1       1.102  -0.775  -0.013  0.00  0.00    -0.463 OA
ENDBRANCH  17  23
ENDBRANCH  15  17
ENDBRANCH   1  15
TORSDOF 5
