REMARK  Name = ZINC14987592
REMARK  9 active torsions:
REMARK  status: ('A' for Active; 'I' for Inactive)
REMARK    1  A    between atoms: C_1  and  C_2
REMARK    2  A    between atoms: C_2  and  C_3
REMARK    3  A    between atoms: C_2  and  C_4
REMARK    4  A    between atoms: C_4  and  C_5
REMARK    5  A    between atoms: C_5  and  C_7
REMARK    6  A    between atoms: C_5  and  N_27
REMARK    7  A    between atoms: C_16  and  C_17
REMARK    8  A    between atoms: C_16  and  N_62
REMARK    9  A    between atoms: C_28  and  C_30
REMARK                            x       y       z     vdW  Elec       q    Type
REMARK                         _______ _______ _______ _____ _____    ______ ____
ROOT
ATOM      1  C   UNL     1       4.239   0.944  -1.050  0.00  0.00    +0.154 A 
ATOM      2  N   UNL     1       4.673  -0.165  -0.511  0.00  0.00    -0.132 NA
ATOM      3  N   UNL     1       3.772  -0.649   0.273  0.00  0.00    -0.134 NA
ATOM      4  C   UNL     1       2.731   0.131   0.273  0.00  0.00    +0.132 A 
ATOM      5  N   UNL     1       2.991   1.153  -0.579  0.00  0.00    -0.315 N 
ATOM      6  C   UNL     1       2.076   2.243  -0.920  0.00  0.00    +0.106 C 
ATOM      7  C   UNL     1       1.120   2.483   0.252  0.00  0.00    -0.056 C 
ATOM      8  C   UNL     1       0.265   0.208   0.128  0.00  0.00    -0.071 C 
ATOM      9  C   UNL     1       1.457  -0.031   1.061  0.00  0.00    +0.058 C 
ATOM     10  N   UNL     1      -0.094   1.642   0.133  0.00  0.00    +0.384 N 
ATOM     11  H   UNL     1      -0.705   1.827   0.937  0.00  0.00    -0.081 HD
ENDROOT
BRANCH   1  12
ATOM     12  C   UNL     1       4.990   1.824  -2.015  0.00  0.00    +0.142 C 
BRANCH  12  13
ATOM     13  N   UNL     1       5.629   0.993  -3.038  0.00  0.00    -0.299 N 
ATOM     14  C   UNL     1       5.915   1.514  -4.247  0.00  0.00    +0.280 C 
ATOM     15  O   UNL     1       5.644   2.676  -4.489  0.00  0.00    -0.267 OA
ATOM     16  H   UNL     1       5.845   0.067  -2.846  0.00  0.00    +0.150 HD
BRANCH  14  17
ATOM     17  C   UNL     1       6.554   0.682  -5.272  0.00  0.00    +0.189 A 
ATOM     18  C   UNL     1       6.897   1.083  -6.532  0.00  0.00    +0.054 A 
ATOM     19  C   UNL     1       7.478  -0.028  -7.164  0.00  0.00    +0.042 A 
ATOM     20  C   UNL     1       7.464  -1.045  -6.274  0.00  0.00    +0.196 A 
ATOM     21  O   UNL     1       6.912  -0.611  -5.133  0.00  0.00    -0.458 OA
ENDBRANCH  14  17
ENDBRANCH  12  13
BRANCH  12  22
ATOM     22  C   UNL     1       6.061   2.613  -1.258  0.00  0.00    +0.033 C 
BRANCH  22  24
ATOM     23  C   UNL     1       5.723   4.640  -2.679  0.00  0.00    +0.007 C 
ATOM     24  C   UNL     1       6.740   3.597  -2.213  0.00  0.00    -0.015 C 
ATOM     25  C   UNL     1       7.893   4.296  -1.489  0.00  0.00    +0.007 C 
ENDBRANCH  22  24
ENDBRANCH  12  22
ENDBRANCH   1  12
BRANCH  10  26
ATOM     26  C   UNL     1      -0.820   1.982  -1.105  0.00  0.00    -0.041 C 
BRANCH  26  27
ATOM     27  C   UNL     1      -2.241   1.500  -0.970  0.00  0.00    -0.042 A 
ATOM     28  C   UNL     1      -2.651   0.362  -1.641  0.00  0.00    +0.052 A 
ATOM     29  C   UNL     1      -3.956  -0.084  -1.518  0.00  0.00    +0.167 A 
ATOM     30  C   UNL     1      -4.856   0.617  -0.717  0.00  0.00    +0.168 A 
ATOM     31  C   UNL     1      -4.440   1.756  -0.048  0.00  0.00    +0.069 A 
ATOM     32  C   UNL     1      -3.132   2.193  -0.170  0.00  0.00    +0.046 A 
ATOM     33 CL   UNL     1      -2.611   3.616   0.676  0.00  0.00    -0.083 Cl
ATOM     34  O   UNL     1      -6.064  -0.016  -0.761  0.00  0.00    -0.453 OA
ATOM     35  C   UNL     1      -6.006  -0.875  -1.915  0.00  0.00    +0.466 C 
ATOM     36  O   UNL     1      -4.601  -1.156  -2.062  0.00  0.00    -0.453 OA
ENDBRANCH  26  27
ENDBRANCH  10  26
TORSDOF 7
