REMARK  Name = ZINC30775548
REMARK  8 active torsions:
REMARK  status: ('A' for Active; 'I' for Inactive)
REMARK    1  A    between atoms: C_1  and  C_2
REMARK    2  A    between atoms: C_2  and  C_4
REMARK    3  A    between atoms: C_2  and  O_21
REMARK    4  A    between atoms: N_9  and  S_12
REMARK    5  A    between atoms: S_12  and  C_15
REMARK    6  A    between atoms: O_21  and  C_22
REMARK    7  A    between atoms: C_25  and  O_28
REMARK    8  A    between atoms: O_28  and  C_29
REMARK                            x       y       z     vdW  Elec       q    Type
REMARK                         _______ _______ _______ _____ _____    ______ ____
ROOT
ATOM      1  C   UNL     1       4.815  -0.480  -5.826  0.00  0.00    +0.256 C 
ATOM      2  O   UNL     1       5.650   0.106  -6.482  0.00  0.00    -0.272 OA
ATOM      3  N   UNL     1       4.438   0.005  -4.627  0.00  0.00    -0.296 N 
ATOM      4  C   UNL     1       5.109   1.178  -4.050  0.00  0.00    +0.125 C 
ATOM      5  C   UNL     1       5.630   0.808  -2.655  0.00  0.00    +0.128 C 
ATOM      6  N   UNL     1       4.540   0.173  -1.900  0.00  0.00    -0.173 NA
ATOM      7  C   UNL     1       3.873  -1.004  -2.475  0.00  0.00    +0.128 C 
ATOM      8  C   UNL     1       3.349  -0.631  -3.872  0.00  0.00    +0.125 C 
ENDROOT
BRANCH   6   9
ATOM      9  S   UNL     1       4.078   0.768  -0.426  0.00  0.00    +0.067 S 
ATOM     10  O   UNL     1       5.195   1.473   0.096  0.00  0.00    -0.152 OA
ATOM     11  O   UNL     1       3.462  -0.307   0.271  0.00  0.00    -0.152 OA
BRANCH   9  12
ATOM     12  C   UNL     1       2.819   1.965  -0.719  0.00  0.00    +0.144 A 
ATOM     13  C   UNL     1       1.476   1.792  -0.787  0.00  0.00    +0.037 A 
ATOM     14  C   UNL     1       0.670   2.889  -1.031  0.00  0.00    +0.025 A 
ATOM     15  C   UNL     1       1.248   4.105  -1.195  0.00  0.00    +0.057 A 
ATOM     16  S   UNL     1       2.981   3.720  -1.004  0.00  0.00    -0.062 S 
ATOM     17 BR   UNL     1       0.431   5.775  -1.544  0.00  0.00    -0.043 Br
ENDBRANCH   9  12
ENDBRANCH   6   9
BRANCH   1  19
ATOM     18  C   UNL     1       4.692  -2.938  -5.525  0.00  0.00    +0.062 C 
ATOM     19  C   UNL     1       4.199  -1.750  -6.353  0.00  0.00    +0.256 C 
BRANCH  19  20
ATOM     20  O   UNL     1       4.577  -1.933  -7.719  0.00  0.00    -0.480 OA
BRANCH  20  21
ATOM     21  C   UNL     1       3.748  -2.680  -8.495  0.00  0.00    +0.122 A 
ATOM     22  C   UNL     1       3.994  -2.805  -9.854  0.00  0.00    +0.049 A 
ATOM     23  C   UNL     1       3.154  -3.568 -10.641  0.00  0.00    +0.049 A 
ATOM     24  C   UNL     1       2.059  -4.202 -10.074  0.00  0.00    +0.120 A 
ATOM     25  C   UNL     1       1.809  -4.074  -8.716  0.00  0.00    +0.049 A 
ATOM     26  C   UNL     1       2.652  -3.314  -7.928  0.00  0.00    +0.049 A 
BRANCH  24  27
ATOM     27  O   UNL     1       1.230  -4.951 -10.850  0.00  0.00    -0.495 OA
ATOM     28  C   UNL     1       1.547  -5.040 -12.241  0.00  0.00    +0.277 C 
ENDBRANCH  24  27
ENDBRANCH  20  21
ENDBRANCH  19  20
ENDBRANCH   1  19
TORSDOF 6
