REMARK  Name = ZINC26933595
REMARK  4 active torsions:
REMARK  status: ('A' for Active; 'I' for Inactive)
REMARK    1  A    between atoms: C_1  and  C_2
REMARK    2  A    between atoms: C_8  and  N_10
REMARK    3  A    between atoms: C_11  and  C_13
REMARK    4  A    between atoms: C_13  and  N_14
REMARK                            x       y       z     vdW  Elec       q    Type
REMARK                         _______ _______ _______ _____ _____    ______ ____
ROOT
ATOM      1  C   UNL     1      -0.018   1.503   0.010  0.00  0.00    +0.019 C 
ENDROOT
BRANCH   1   2
ATOM      2  N   UNL     1      -0.749   1.861   1.233  0.00  0.00    +0.386 N 
ATOM      3  C   UNL     1      -0.877   3.318   1.362  0.00  0.00    -0.073 C 
ATOM      4  C   UNL     1      -1.507   3.659   2.715  0.00  0.00    +0.046 C 
ATOM      5  C   UNL     1      -2.880   2.990   2.814  0.00  0.00    +0.167 C 
ATOM      6  C   UNL     1      -2.731   1.480   2.622  0.00  0.00    +0.046 C 
ATOM      7  C   UNL     1      -2.063   1.206   1.272  0.00  0.00    -0.073 C 
ATOM      8  O   UNL     1      -3.451   3.256   4.105  0.00  0.00    -0.346 OA
ATOM      9  C   UNL     1      -4.308   4.405   3.901  0.00  0.00    +0.191 C 
ATOM     10  C   UNL     1      -4.864   4.135   2.480  0.00  0.00    +0.191 C 
ATOM     11  O   UNL     1      -3.748   3.521   1.804  0.00  0.00    -0.346 OA
ATOM     12  H   UNL     1      -0.169   1.499   2.095  0.00  0.00    -0.081 HD
ENDBRANCH   1   2
BRANCH   1  14
ATOM     13  N   UNL     1       0.883  -0.549  -1.037  0.00  0.00    -0.314 N 
ATOM     14  C   UNL     1       0.322   0.035   0.040  0.00  0.00    +0.197 C 
ATOM     15  O   UNL     1       0.090  -0.621   1.034  0.00  0.00    -0.278 OA
ATOM     16  H   UNL     1       1.093   0.046  -1.938  0.00  0.00    +0.149 HD
BRANCH  13  23
ATOM     17  C   UNL     1      -0.144  -2.332  -3.075  0.00  0.00    +0.009 C 
ATOM     18  C   UNL     1       1.233  -2.524  -2.436  0.00  0.00    +0.006 C 
ATOM     19  C   UNL     1       1.579  -4.014  -2.406  0.00  0.00    +0.005 C 
ATOM     20  C   UNL     1       2.956  -4.206  -1.767  0.00  0.00    +0.000 C 
ATOM     21  C   UNL     1       2.936  -3.658  -0.339  0.00  0.00    +0.002 C 
ATOM     22  C   UNL     1       2.591  -2.167  -0.369  0.00  0.00    +0.022 C 
ATOM     23  C   UNL     1       1.214  -1.976  -1.008  0.00  0.00    +0.076 C 
ENDBRANCH  13  23
ENDBRANCH   1  14
TORSDOF 3
