REMARK  Name = ZINC00033179
REMARK  3 active torsions:
REMARK  status: ('A' for Active; 'I' for Inactive)
REMARK    1  A    between atoms: C_11  and  C_18
REMARK    2  A    between atoms: CA_13  and  C_16
REMARK    3  A    between atoms: C_23  and  N_24
REMARK                            x       y       z     vdW  Elec       q    Type
REMARK                         _______ _______ _______ _____ _____    ______ ____
ROOT
ATOM      1  C   UNL     1       5.543   3.346  -0.754  0.00  0.00    +0.001 A 
ATOM      2  C   UNL     1       5.672   3.048   0.592  0.00  0.00    +0.002 A 
ATOM      3  C   UNL     1       4.645   2.478   1.324  0.00  0.00    +0.026 A 
ATOM      4  C   UNL     1       3.458   2.211   0.644  0.00  0.00    +0.047 A 
ATOM      5  C   UNL     1       3.331   2.518  -0.736  0.00  0.00    +0.003 A 
ATOM      6  C   UNL     1       4.386   3.095  -1.450  0.00  0.00    +0.010 A 
ATOM      7  C   UNL     1       1.994   2.115  -1.111  0.00  0.00    -0.021 A 
ATOM      8  C   UNL     1       1.403   1.613  -0.003  0.00  0.00    +0.010 A 
ATOM      9  N   UNL     1       2.274   1.666   1.051  0.00  0.00    -0.359 N 
ATOM     10  H   UNL     1       2.079   1.363   1.952  0.00  0.00    +0.166 HD
ATOM     11  C   UNL     1      -0.013   1.086   0.008  0.00  0.00    +0.010 C 
ATOM     12  CA  UNL     1       0.073   1.293  -2.412  0.00  0.00    +0.049 C 
ATOM     13  C   UNL     1       1.310   2.200  -2.452  0.00  0.00    +0.033 C 
ATOM     14  N   UNL     1      -0.715   1.584  -1.195  0.00  0.00    +0.396 N 
ATOM     15  H1  UNL     1      -0.847   2.599  -1.113  0.00  0.00    -0.083 HD
ATOM     16  H2  UNL     1      -1.630   1.124  -1.267  0.00  0.00    -0.083 HD
ENDROOT
BRANCH  11  17
ATOM     17  C   UNL     1      -0.726   1.576   1.242  0.00  0.00    -0.026 A 
ATOM     18  C   UNL     1      -1.579   2.661   1.162  0.00  0.00    +0.004 A 
ATOM     19  C   UNL     1      -2.234   3.110   2.293  0.00  0.00    +0.000 A 
ATOM     20  C   UNL     1      -2.035   2.474   3.505  0.00  0.00    +0.002 A 
ATOM     21  C   UNL     1      -1.183   1.389   3.585  0.00  0.00    +0.033 A 
ATOM     22  C   UNL     1      -0.532   0.937   2.452  0.00  0.00    +0.128 A 
BRANCH  22  23
ATOM     23  N   UNL     1       0.377  -0.229   2.536  0.00  0.00    +0.057 N 
ATOM     24  O   UNL     1       0.547  -0.792   3.602  0.00  0.00    -0.126 OA
ATOM     25  O   UNL     1       0.953  -0.625   1.539  0.00  0.00    -0.126 OA
ENDBRANCH  22  23
ENDBRANCH  11  17
BRANCH  12  26
ATOM     26  C   UNL     1      -0.782   1.555  -3.625  0.00  0.00    +0.343 C 
ATOM     27  O   UNL     1      -1.758   2.261  -3.535  0.00  0.00    -0.248 OA
ATOM     28  OXT UNL     1      -0.458   1.004  -4.806  0.00  0.00    -0.248 OA
ENDBRANCH  12  26
TORSDOF 3
