REMARK  Name = ZINC39353224
REMARK  7 active torsions:
REMARK  status: ('A' for Active; 'I' for Inactive)
REMARK    1  A    between atoms: C_1  and  C_2
REMARK    2  A    between atoms: C_5  and  C_19
REMARK    3  A    between atoms: C_6  and  C_18
REMARK    4  A    between atoms: N_8  and  C_9
REMARK    5  A    between atoms: C_13  and  N_15
REMARK    6  A    between atoms: C_20  and  C_21
REMARK    7  A    between atoms: C_20  and  C_23
REMARK                            x       y       z     vdW  Elec       q    Type
REMARK                         _______ _______ _______ _____ _____    ______ ____
ROOT
ATOM      1  C   UNL     1      -0.159   1.656   0.134  0.00  0.00    +0.032 C 
ATOM      2  C   UNL     1      -0.107   0.131   0.021  0.00  0.00    +0.094 C 
ATOM      3  C   UNL     1      -1.499  -0.437   0.109  0.00  0.00    +0.000 C 
ATOM      4  C   UNL     1      -1.586  -1.250   1.156  0.00  0.00    -0.028 C 
ATOM      5  C   UNL     1      -0.261  -1.304   1.870  0.00  0.00    +0.101 C 
ATOM      6  N   UNL     1       0.667  -0.426   1.139  0.00  0.00    -0.317 N 
ATOM      7  C   UNL     1       0.271  -2.739   1.872  0.00  0.00    +0.033 C 
ENDROOT
BRANCH   6   8
ATOM      8  C   UNL     1       2.006  -0.173   1.444  0.00  0.00    +0.033 A 
ATOM      9  C   UNL     1       2.599  -0.787   2.540  0.00  0.00    +0.023 A 
ATOM     10  C   UNL     1       3.924  -0.535   2.838  0.00  0.00    +0.004 A 
ATOM     11  C   UNL     1       4.660   0.328   2.046  0.00  0.00    +0.033 A 
ATOM     12  C   UNL     1       4.073   0.941   0.955  0.00  0.00    +0.128 A 
ATOM     13  C   UNL     1       2.750   0.689   0.648  0.00  0.00    +0.055 A 
BRANCH  12  14
ATOM     14  N   UNL     1       4.865   1.864   0.111  0.00  0.00    +0.056 N 
ATOM     15  O   UNL     1       6.024   2.081   0.377  0.00  0.00    -0.126 OA
ATOM     16  O   UNL     1       4.352   2.400  -0.843  0.00  0.00    -0.126 OA
ENDBRANCH  12  14
ENDBRANCH   6   8
BRANCH   4  17
ATOM     17  C   UNL     1      -2.789  -1.982   1.556  0.00  0.00    +0.023 C 
ATOM     18  C   UNL     1      -3.498  -2.672   0.635  0.00  0.00    +0.072 C 
BRANCH  18  19
ATOM     19  C   UNL     1      -4.813  -3.302   1.014  0.00  0.00    +0.216 C 
ATOM     20  N   UNL     1      -4.778  -4.745   0.742  0.00  0.00    -0.359 N 
ATOM     21  C   UNL     1      -5.712  -5.001  -0.128  0.00  0.00    +0.060 A 
ATOM     22  C   UNL     1      -6.158  -6.240  -0.779  0.00  0.00    +0.027 A 
ATOM     23  C   UNL     1      -7.177  -6.199  -1.661  0.00  0.00    +0.002 A 
ATOM     24  C   UNL     1      -7.844  -5.006  -1.993  0.00  0.00    +0.002 A 
ATOM     25  C   UNL     1      -7.514  -3.815  -1.455  0.00  0.00    +0.027 A 
ATOM     26  C   UNL     1      -6.418  -3.739  -0.480  0.00  0.00    +0.060 A 
ATOM     27  N   UNL     1      -5.893  -2.751   0.186  0.00  0.00    -0.359 N 
ATOM     28  H   UNL     1      -4.170  -5.389   1.137  0.00  0.00    +0.162 HD
ATOM     29  H   UNL     1      -6.166  -1.821   0.144  0.00  0.00    +0.162 HD
ENDBRANCH  18  19
BRANCH  18  30
ATOM     30  C   UNL     1      -2.999  -2.804  -0.701  0.00  0.00    +0.099 C 
ATOM     31  N   UNL     1      -2.603  -2.908  -1.760  0.00  0.00    -0.191 NA
ENDBRANCH  18  30
ENDBRANCH   4  17
TORSDOF 5
