REMARK  Name = ZINC61811003
REMARK  4 active torsions:
REMARK  status: ('A' for Active; 'I' for Inactive)
REMARK    1  A    between atoms: C_1  and  C_2
REMARK    2  A    between atoms: N_7  and  C_9
REMARK    3  A    between atoms: C_9  and  C_10
REMARK    4  A    between atoms: N_19  and  N_20
REMARK                            x       y       z     vdW  Elec       q    Type
REMARK                         _______ _______ _______ _____ _____    ______ ____
ROOT
ATOM      1  C   UNL     1       2.986  -2.763  -1.450  0.00  0.00    +0.154 A 
ATOM      2  N   UNL     1       2.672  -3.889  -2.065  0.00  0.00    -0.214 NA
ATOM      3  C   UNL     1       3.034  -4.133  -3.314  0.00  0.00    +0.144 A 
ATOM      4  C   UNL     1       3.785  -3.154  -4.023  0.00  0.00    +0.049 A 
ATOM      5  C   UNL     1       4.295  -3.180  -5.383  0.00  0.00    +0.021 A 
ATOM      6  C   UNL     1       4.986  -2.127  -5.842  0.00  0.00    +0.048 A 
ATOM      7  S   UNL     1       5.003  -1.003  -4.458  0.00  0.00    -0.077 S 
ATOM      8  C   UNL     1       4.081  -1.979  -3.300  0.00  0.00    +0.114 A 
ATOM      9  N   UNL     1       3.675  -1.816  -2.055  0.00  0.00    -0.223 NA
ATOM     10  N   UNL     1       2.686  -5.325  -3.924  0.00  0.00    -0.267 N 
ATOM     11  H   UNL     1       2.954  -5.498  -4.840  0.00  0.00    +0.167 HD
ENDROOT
BRANCH  10  12
ATOM     12  N   UNL     1       1.965  -6.259  -3.235  0.00  0.00    -0.255 NA
ATOM     13  H   UNL     1       1.103  -5.866  -2.888  0.00  0.00    +0.140 HD
ATOM     14  H   UNL     1       1.788  -7.072  -3.806  0.00  0.00    +0.140 HD
ENDBRANCH  10  12
BRANCH   1  15
ATOM     15  C   UNL     1       2.540  -2.553  -0.025  0.00  0.00    +0.223 C 
BRANCH  15  22
ATOM     16  C   UNL     1      -0.018   1.503   0.010  0.00  0.00    +0.067 C 
ATOM     17  C   UNL     1       0.002  -0.004   0.002  0.00  0.00    +0.059 A 
ATOM     18  C   UNL     1      -1.208  -0.718   0.004  0.00  0.00    +0.030 A 
ATOM     19  C   UNL     1      -1.155  -2.083  -0.004  0.00  0.00    +0.073 A 
ATOM     20  C   UNL     1       0.119  -2.692  -0.014  0.00  0.00    +0.268 A 
ATOM     21  O   UNL     1       0.220  -3.909  -0.022  0.00  0.00    -0.266 OA
ATOM     22  N   UNL     1       1.220  -1.918  -0.015  0.00  0.00    -0.222 N 
ATOM     23  N   UNL     1       1.143  -0.636  -0.012  0.00  0.00    -0.173 NA
ENDBRANCH  15  22
ENDBRANCH   1  15
TORSDOF 3
