REMARK  Name = ZINC20413599
REMARK  8 active torsions:
REMARK  status: ('A' for Active; 'I' for Inactive)
REMARK    1  A    between atoms: C_1  and  C_2
REMARK    2  A    between atoms: C_3  and  C_23
REMARK    3  A    between atoms: C_4  and  C_14
REMARK    4  A    between atoms: C_9  and  S_11
REMARK    5  A    between atoms: S_11  and  C_12
REMARK    6  A    between atoms: C_17  and  N_20
REMARK    7  A    between atoms: N_20  and  C_21
REMARK    8  A    between atoms: N_20  and  C_22
REMARK                            x       y       z     vdW  Elec       q    Type
REMARK                         _______ _______ _______ _____ _____    ______ ____
ROOT
ATOM      1  C   UNL     1      -2.743   6.914  -2.462  0.00  0.00    +0.061 C 
ATOM      2  C   UNL     1      -2.059   6.591  -1.158  0.00  0.00    +0.018 C 
ATOM      3  C   UNL     1      -0.874   5.964  -1.185  0.00  0.00    +0.060 C 
ATOM      4  C   UNL     1      -0.116   5.586   0.059  0.00  0.00    +0.177 C 
ATOM      5  N   UNL     1      -0.712   6.253   1.214  0.00  0.00    -0.220 N 
ATOM      6  C   UNL     1      -1.912   6.883   1.179  0.00  0.00    +0.219 A 
ATOM      7  N   UNL     1      -2.155   7.361   2.369  0.00  0.00    -0.187 NA
ATOM      8  C   UNL     1      -1.134   7.063   3.187  0.00  0.00    +0.210 A 
ATOM      9  N   UNL     1      -0.229   6.385   2.515  0.00  0.00    -0.141 NA
ATOM     10  N   UNL     1      -2.671   6.949   0.018  0.00  0.00    -0.287 N 
ATOM     11  H   UNL     1      -3.723   7.272   0.015  0.00  0.00    +0.155 HD
ENDROOT
BRANCH   4  12
ATOM     12  C   UNL     1      -0.181   4.093   0.253  0.00  0.00    -0.018 A 
ATOM     13  C   UNL     1       0.985   3.349   0.278  0.00  0.00    +0.008 A 
ATOM     14  C   UNL     1       0.929   1.981   0.455  0.00  0.00    +0.023 A 
ATOM     15  C   UNL     1      -0.300   1.351   0.608  0.00  0.00    +0.029 A 
ATOM     16  C   UNL     1      -1.469   2.101   0.576  0.00  0.00    +0.023 A 
ATOM     17  C   UNL     1      -1.406   3.470   0.404  0.00  0.00    +0.008 A 
BRANCH  15  18
ATOM     18  N   UNL     1      -0.360  -0.033   0.786  0.00  0.00    -0.336 N 
ATOM     19  C   UNL     1       0.873  -0.822   0.813  0.00  0.00    +0.129 C 
ATOM     20  C   UNL     1      -1.657  -0.695   0.947  0.00  0.00    +0.129 C 
ENDBRANCH  15  18
ENDBRANCH   4  12
BRANCH   3  21
ATOM     21  C   UNL     1      -0.310   5.643  -2.443  0.00  0.00    +0.241 C 
ATOM     22  O   UNL     1       0.633   6.284  -2.869  0.00  0.00    -0.271 OA
ATOM     23  N   UNL     1      -0.817   4.626  -3.168  0.00  0.00    -0.325 N 
ATOM     24  H   UNL     1      -0.378   4.376  -4.146  0.00  0.00    +0.145 HD
ATOM     25  H   UNL     1      -1.669   4.046  -2.783  0.00  0.00    +0.145 HD
ENDBRANCH   3  21
BRANCH   8  26
ATOM     26  S   UNL     1      -1.023   7.509   4.888  0.00  0.00    -0.088 S 
ATOM     27  C   UNL     1      -2.561   8.417   5.205  0.00  0.00    +0.093 C 
ENDBRANCH   8  26
TORSDOF 4
