REMARK  Name = ZINC16647734
REMARK  8 active torsions:
REMARK  status: ('A' for Active; 'I' for Inactive)
REMARK    1  A    between atoms: C_1  and  C_2
REMARK    2  A    between atoms: C_7  and  N_8
REMARK    3  A    between atoms: N_19  and  C_28
REMARK    4  A    between atoms: N_21  and  C_22
REMARK    5  A    between atoms: C_28  and  C_29
REMARK    6  A    between atoms: N_31  and  C_32
REMARK    7  A    between atoms: N_31  and  C_33
REMARK    8  A    between atoms: C_33  and  C_34
REMARK                            x       y       z     vdW  Elec       q    Type
REMARK                         _______ _______ _______ _____ _____    ______ ____
ROOT
ATOM      1  N   UNL     1       6.030   0.532  -0.128  0.00  0.00    -0.269 N 
ATOM      2  C   UNL     1       5.119   1.012   0.741  0.00  0.00    +0.306 C 
ATOM      3  O   UNL     1       5.325   0.945   1.938  0.00  0.00    -0.252 OA
ATOM      4  N   UNL     1       3.979   1.568   0.284  0.00  0.00    -0.285 N 
ATOM      5  C   UNL     1       3.017   2.175   1.214  0.00  0.00    +0.112 C 
ATOM      6  C   UNL     1       1.640   1.544   0.981  0.00  0.00    +0.054 C 
ATOM      7  C   UNL     1       1.270   1.668  -0.494  0.00  0.00    +0.115 C 
ATOM      8  C   UNL     1       2.294   0.951  -1.369  0.00  0.00    +0.054 C 
ATOM      9  C   UNL     1       3.675   1.578  -1.153  0.00  0.00    +0.112 C 
ATOM     10  C   UNL     1       1.164   3.120  -0.891  0.00  0.00    +0.241 C 
ATOM     11  O   UNL     1       1.950   3.995  -0.596  0.00  0.00    -0.273 OA
ATOM     12  N   UNL     1       0.045   3.280  -1.628  0.00  0.00    -0.275 N 
ATOM     13  C   UNL     1      -0.634   1.986  -1.778  0.00  0.00    +0.217 C 
ATOM     14  N   UNL     1      -0.077   1.103  -0.726  0.00  0.00    -0.300 N 
ATOM     15  H   UNL     1       5.875   0.606  -1.083  0.00  0.00    +0.156 HD
ENDROOT
BRANCH   1  22
ATOM     16  C   UNL     1       7.443  -1.215  -1.873  0.00  0.00    +0.045 C 
ATOM     17  C   UNL     1       7.919  -0.934  -0.471  0.00  0.00    -0.029 A 
ATOM     18  C   UNL     1       9.072  -1.530   0.000  0.00  0.00    +0.005 A 
ATOM     19  C   UNL     1       9.509  -1.272   1.286  0.00  0.00    +0.000 A 
ATOM     20  C   UNL     1       8.794  -0.416   2.104  0.00  0.00    +0.002 A 
ATOM     21  C   UNL     1       7.643   0.187   1.637  0.00  0.00    +0.023 A 
ATOM     22  C   UNL     1       7.198  -0.074   0.347  0.00  0.00    +0.038 A 
ENDBRANCH   1  22
BRANCH  14  23
ATOM     23  C   UNL     1       0.004  -0.218  -1.172  0.00  0.00    +0.032 A 
ATOM     24  C   UNL     1      -0.530  -0.570  -2.405  0.00  0.00    +0.023 A 
ATOM     25  C   UNL     1      -0.445  -1.876  -2.845  0.00  0.00    +0.002 A 
ATOM     26  C   UNL     1       0.163  -2.835  -2.056  0.00  0.00    +0.000 A 
ATOM     27  C   UNL     1       0.691  -2.489  -0.825  0.00  0.00    +0.002 A 
ATOM     28  C   UNL     1       0.613  -1.183  -0.382  0.00  0.00    +0.023 A 
ENDBRANCH  14  23
BRANCH  12  29
ATOM     29  C   UNL     1      -0.422   4.549  -2.192  0.00  0.00    +0.205 C 
BRANCH  29  30
ATOM     30  C   UNL     1       0.163   4.731  -3.569  0.00  0.00    +0.233 C 
ATOM     31  O   UNL     1       0.897   3.885  -4.033  0.00  0.00    -0.274 OA
ATOM     32  N   UNL     1      -0.130   5.835  -4.284  0.00  0.00    -0.299 N 
ATOM     33  C   UNL     1      -1.016   6.858  -3.723  0.00  0.00    +0.132 C 
BRANCH  32  34
ATOM     34  C   UNL     1       0.439   6.013  -5.623  0.00  0.00    +0.142 C 
BRANCH  34  35
ATOM     35  C   UNL     1      -0.489   5.411  -6.646  0.00  0.00    -0.030 A 
ATOM     36  C   UNL     1      -0.342   4.087  -7.018  0.00  0.00    +0.005 A 
ATOM     37  C   UNL     1      -1.196   3.533  -7.953  0.00  0.00    +0.000 A 
ATOM     38  C   UNL     1      -2.190   4.306  -8.525  0.00  0.00    +0.000 A 
ATOM     39  C   UNL     1      -2.333   5.630  -8.157  0.00  0.00    +0.000 A 
ATOM     40  C   UNL     1      -1.483   6.183  -7.218  0.00  0.00    +0.005 A 
ENDBRANCH  34  35
ENDBRANCH  32  34
ENDBRANCH  29  30
ENDBRANCH  12  29
TORSDOF 6
