REMARK  Name = ZINC63264613
REMARK  6 active torsions:
REMARK  status: ('A' for Active; 'I' for Inactive)
REMARK    1  A    between atoms: C_1  and  C_2
REMARK    2  A    between atoms: C_3  and  C_25
REMARK    3  A    between atoms: C_10  and  C_13
REMARK    4  A    between atoms: C_13  and  C_14
REMARK    5  A    between atoms: C_14  and  C_15
REMARK    6  A    between atoms: N_17  and  C_18
REMARK                            x       y       z     vdW  Elec       q    Type
REMARK                         _______ _______ _______ _____ _____    ______ ____
ROOT
ATOM      1  C   UNL     1       0.008  -3.353   4.627  0.00  0.00    +0.083 C 
ENDROOT
BRANCH   1  11
ATOM      2  C   UNL     1      -0.083   1.522   0.022  0.00  0.00    +0.045 C 
ATOM      3  C   UNL     1      -0.097   0.015   0.011  0.00  0.00    -0.026 A 
ATOM      4  C   UNL     1      -0.131  -0.655  -1.151  0.00  0.00    -0.008 A 
ATOM      5  S   UNL     1      -0.134  -2.363  -0.639  0.00  0.00    -0.075 S 
ATOM      6  C   UNL     1      -0.089  -2.122   1.116  0.00  0.00    +0.092 A 
ATOM      7  C   UNL     1      -0.067  -0.729   1.256  0.00  0.00    +0.075 A 
ATOM      8  C   UNL     1      -0.022  -0.239   2.652  0.00  0.00    +0.282 A 
ATOM      9  O   UNL     1      -0.005   0.958   2.889  0.00  0.00    -0.265 OA
ATOM     10  N   UNL     1      -0.001  -1.132   3.654  0.00  0.00    -0.195 NA
ATOM     11  C   UNL     1      -0.018  -2.419   3.445  0.00  0.00    +0.112 A 
ATOM     12  N   UNL     1      -0.070  -2.937   2.201  0.00  0.00    -0.337 N 
ATOM     13  H   UNL     1      -0.082  -3.900   2.081  0.00  0.00    +0.168 HD
ATOM     14  C   UNL     1      -0.161  -0.099  -2.552  0.00  0.00    +0.052 C 
ENDBRANCH   1  11
BRANCH   1  15
ATOM     15  C   UNL     1       0.052  -2.537   5.921  0.00  0.00    +0.104 C 
BRANCH  15  16
ATOM     16  C   UNL     1       0.078  -3.471   7.103  0.00  0.00    +0.219 C 
ATOM     17  O   UNL     1       0.063  -4.671   6.928  0.00  0.00    -0.275 OA
ATOM     18  N   UNL     1       0.119  -2.973   8.355  0.00  0.00    -0.269 N 
ATOM     19  H   UNL     1       0.207  -2.017   8.494  0.00  0.00    +0.156 HD
BRANCH  18  20
ATOM     20  C   UNL     1       0.036  -3.833   9.451  0.00  0.00    +0.150 A 
ATOM     21  C   UNL     1      -0.065  -3.304  10.738  0.00  0.00    +0.217 A 
ATOM     22  C   UNL     1      -0.147  -4.173  11.817  0.00  0.00    +0.056 A 
ATOM     23  C   UNL     1      -0.127  -5.539  11.570  0.00  0.00    +0.021 A 
ATOM     24  C   UNL     1      -0.026  -5.989  10.269  0.00  0.00    +0.084 A 
ATOM     25  N   UNL     1       0.046  -5.142   9.261  0.00  0.00    -0.346 N 
ATOM     26  O   UNL     1      -0.080  -1.959  10.932  0.00  0.00    -0.284 OA
ATOM     27  H   UNL     1       0.113  -5.487   8.357  0.00  0.00    +0.167 HD
ENDBRANCH  18  20
ENDBRANCH  15  16
ENDBRANCH   1  15
TORSDOF 4
