REMARK  Name = ZINC06408716
REMARK  12 active torsions:
REMARK  status: ('A' for Active; 'I' for Inactive)
REMARK    1  A    between atoms: C_1  and  C_2
REMARK    2  A    between atoms: C_9  and  C_14
REMARK    3  A    between atoms: C_14  and  C_16
REMARK    4  A    between atoms: C_14  and  N_64
REMARK    5  A    between atoms: N_20  and  C_21
REMARK    6  A    between atoms: C_21  and  C_22
REMARK    7  A    between atoms: C_22  and  O_23
REMARK    8  A    between atoms: O_23  and  C_24
REMARK    9  A    between atoms: C_25  and  C_26
REMARK   10  A    between atoms: C_25  and  N_64
REMARK   11  A    between atoms: C_32  and  C_33
REMARK   12  A    between atoms: C_32  and  N_64
REMARK                            x       y       z     vdW  Elec       q    Type
REMARK                         _______ _______ _______ _____ _____    ______ ____
ROOT
ATOM      1  C   UNL     1       5.259  -1.724  -2.355  0.00  0.00    +0.040 C 
ENDROOT
BRANCH   1  10
ATOM      2  C   UNL     1       5.497  -4.776  -9.155  0.00  0.00    +0.044 C 
ATOM      3  C   UNL     1       5.774  -3.627  -8.220  0.00  0.00    -0.050 A 
ATOM      4  C   UNL     1       6.375  -2.474  -8.706  0.00  0.00    +0.005 A 
ATOM      5  C   UNL     1       6.639  -1.412  -7.868  0.00  0.00    +0.026 A 
ATOM      6  C   UNL     1       6.300  -1.494  -6.521  0.00  0.00    +0.049 A 
ATOM      7  C   UNL     1       5.691  -2.665  -6.033  0.00  0.00    -0.001 A 
ATOM      8  C   UNL     1       5.433  -3.730  -6.901  0.00  0.00    +0.013 A 
ATOM      9  C   UNL     1       5.337  -2.741  -4.614  0.00  0.00    +0.017 A 
ATOM     10  C   UNL     1       5.611  -1.677  -3.820  0.00  0.00    +0.011 A 
ATOM     11  C   UNL     1       6.218  -0.524  -4.361  0.00  0.00    +0.251 A 
ATOM     12  O   UNL     1       6.450   0.424  -3.630  0.00  0.00    -0.268 OA
ATOM     13  N   UNL     1       6.551  -0.446  -5.661  0.00  0.00    -0.322 N 
ATOM     14  H   UNL     1       6.971   0.360  -6.000  0.00  0.00    +0.169 HD
ENDBRANCH   1  10
BRANCH   1  15
ATOM     15  C   UNL     1       6.522  -1.680  -1.534  0.00  0.00    +0.143 A 
ATOM     16  N   UNL     1       7.194  -0.610  -1.186  0.00  0.00    -0.115 NA
ATOM     17  N   UNL     1       8.209  -0.986  -0.488  0.00  0.00    -0.023 NA
ATOM     18  N   UNL     1       8.208  -2.269  -0.389  0.00  0.00    -0.044 NA
ATOM     19  N   UNL     1       7.184  -2.734  -1.021  0.00  0.00    -0.228 N 
BRANCH  19  20
ATOM     20  C   UNL     1       6.810  -4.145  -1.154  0.00  0.00    +0.175 C 
BRANCH  20  21
ATOM     21  C   UNL     1       7.466  -4.730  -2.406  0.00  0.00    +0.183 C 
BRANCH  21  22
ATOM     22  O   UNL     1       7.102  -6.106  -2.536  0.00  0.00    -0.381 OA
ATOM     23  C   UNL     1       7.665  -6.751  -3.680  0.00  0.00    +0.194 C 
ENDBRANCH  21  22
ENDBRANCH  20  21
ENDBRANCH  19  20
ENDBRANCH   1  15
BRANCH   1  24
ATOM     24  N   UNL     1       4.433  -0.546  -2.017  0.00  0.00    +0.397 N 
ATOM     25  H   UNL     1       5.028   0.290  -2.014  0.00  0.00    -0.079 HD
BRANCH  24  26
ATOM     26  C   UNL     1       3.365  -0.372  -3.024  0.00  0.00    -0.041 C 
BRANCH  26  27
ATOM     27  C   UNL     1       2.680   0.949  -2.784  0.00  0.00    -0.064 A 
ATOM     28  C   UNL     1       3.157   2.095  -3.391  0.00  0.00    +0.002 A 
ATOM     29  C   UNL     1       2.528   3.307  -3.170  0.00  0.00    +0.000 A 
ATOM     30  C   UNL     1       1.423   3.371  -2.342  0.00  0.00    +0.000 A 
ATOM     31  C   UNL     1       0.947   2.224  -1.735  0.00  0.00    +0.000 A 
ATOM     32  C   UNL     1       1.575   1.013  -1.956  0.00  0.00    +0.002 A 
ENDBRANCH  26  27
ENDBRANCH  24  26
BRANCH  24  33
ATOM     33  C   UNL     1       3.837  -0.716  -0.674  0.00  0.00    -0.001 C 
BRANCH  33  34
ATOM     34  C   UNL     1       4.904  -0.473   0.362  0.00  0.00    +0.089 A 
ATOM     35  C   UNL     1       5.299   0.729   0.818  0.00  0.00    +0.042 A 
ATOM     36  C   UNL     1       6.314   0.491   1.773  0.00  0.00    +0.041 A 
ATOM     37  C   UNL     1       6.478  -0.842   1.844  0.00  0.00    +0.195 A 
ATOM     38  O   UNL     1       5.617  -1.421   0.991  0.00  0.00    -0.470 OA
ENDBRANCH  33  34
ENDBRANCH  24  33
ENDBRANCH   1  24
TORSDOF 10
