REMARK  Name = ZINC39940433
REMARK  8 active torsions:
REMARK  status: ('A' for Active; 'I' for Inactive)
REMARK    1  A    between atoms: C_1  and  C_2
REMARK    2  A    between atoms: C_3  and  C_18
REMARK    3  A    between atoms: N_5  and  C_12
REMARK    4  A    between atoms: C_8  and  C_10
REMARK    5  A    between atoms: N_20  and  N_21
REMARK    6  A    between atoms: C_22  and  C_23
REMARK    7  A    between atoms: C_28  and  O_35
REMARK    8  A    between atoms: O_35  and  C_36
REMARK                            x       y       z     vdW  Elec       q    Type
REMARK                         _______ _______ _______ _____ _____    ______ ____
ROOT
ATOM      1  C   UNL     1       0.816  -0.117  -2.427  0.00  0.00    +0.279 C 
ATOM      2  O   UNL     1       0.932   1.093  -2.480  0.00  0.00    -0.267 OA
ATOM      3  N   UNL     1       1.058  -0.866  -3.521  0.00  0.00    -0.202 N 
ATOM      4  H   UNL     1       0.966  -1.831  -3.479  0.00  0.00    +0.178 HD
ENDROOT
BRANCH   1   7
ATOM      5  C   UNL     1       0.051   1.484  -0.273  0.00  0.00    +0.043 C 
ATOM      6  C   UNL     1       0.046  -0.015  -0.128  0.00  0.00    -0.020 C 
ATOM      7  C   UNL     1       0.411  -0.764  -1.165  0.00  0.00    +0.109 C 
ATOM      8  N   UNL     1       0.413  -2.159  -1.071  0.00  0.00    -0.253 N 
ATOM      9  N   UNL     1      -0.299  -2.783  -0.037  0.00  0.00    -0.189 N 
ATOM     10  C   UNL     1      -0.697  -2.075   1.033  0.00  0.00    +0.257 C 
ATOM     11  O   UNL     1      -1.336  -2.629   1.903  0.00  0.00    -0.272 OA
ATOM     12  C   UNL     1      -0.365  -0.618   1.184  0.00  0.00    +0.207 C 
ATOM     13  H   UNL     1       0.904  -2.692  -1.716  0.00  0.00    +0.171 HD
BRANCH   9  14
ATOM     14  C   UNL     1      -0.597  -4.147  -0.121  0.00  0.00    +0.056 A 
ATOM     15  C   UNL     1      -1.146  -4.670  -1.285  0.00  0.00    +0.025 A 
ATOM     16  C   UNL     1      -1.438  -6.017  -1.364  0.00  0.00    +0.002 A 
ATOM     17  C   UNL     1      -1.186  -6.846  -0.286  0.00  0.00    +0.000 A 
ATOM     18  C   UNL     1      -0.639  -6.329   0.874  0.00  0.00    +0.002 A 
ATOM     19  C   UNL     1      -0.339  -4.983   0.958  0.00  0.00    +0.025 A 
ENDBRANCH   9  14
BRANCH  12  20
ATOM     20  C   UNL     1      -1.549   0.094   1.691  0.00  0.00    +0.080 C 
ATOM     21  N   UNL     1      -2.463   0.643   2.082  0.00  0.00    -0.195 NA
ENDBRANCH  12  20
ENDBRANCH   1   7
BRANCH   3  22
ATOM     22  N   UNL     1       1.444  -0.251  -4.720  0.00  0.00    -0.191 NA
ATOM     23  C   UNL     1       1.673  -0.962  -5.759  0.00  0.00    +0.120 C 
BRANCH  23  24
ATOM     24  C   UNL     1       2.088  -0.301  -7.048  0.00  0.00    +0.141 C 
ATOM     25  C   UNL     1       1.003  -0.563  -8.075  0.00  0.00    +0.001 C 
ATOM     26  C   UNL     1       1.369  -1.200  -9.223  0.00  0.00    -0.003 A 
ATOM     27  C   UNL     1       0.385  -1.492 -10.265  0.00  0.00    +0.055 A 
ATOM     28  C   UNL     1       0.796  -2.132 -11.395  0.00  0.00    +0.121 A 
ATOM     29  C   UNL     1       2.133  -2.509 -11.571  0.00  0.00    +0.047 A 
ATOM     30  C   UNL     1       3.090  -2.266 -10.640  0.00  0.00    +0.027 A 
ATOM     31  C   UNL     1       2.768  -1.610  -9.437  0.00  0.00    +0.041 A 
ATOM     32  N   UNL     1       3.719  -1.377  -8.531  0.00  0.00    -0.284 N 
ATOM     33  C   UNL     1       3.486  -0.769  -7.381  0.00  0.00    +0.229 C 
ATOM     34  O   UNL     1       4.396  -0.585  -6.594  0.00  0.00    -0.274 OA
ATOM     35  H   UNL     1       4.623  -1.669  -8.726  0.00  0.00    +0.155 HD
BRANCH  28  36
ATOM     36  O   UNL     1      -0.109  -2.409 -12.371  0.00  0.00    -0.495 OA
ATOM     37  C   UNL     1       0.377  -3.081 -13.534  0.00  0.00    +0.277 C 
ENDBRANCH  28  36
ENDBRANCH  23  24
ENDBRANCH   3  22
TORSDOF 6
