REMARK  Name = ZINC06608785
REMARK  9 active torsions:
REMARK  status: ('A' for Active; 'I' for Inactive)
REMARK    1  A    between atoms: C_1  and  C_2
REMARK    2  A    between atoms: C_2  and  C_3
REMARK    3  A    between atoms: C_2  and  C_4
REMARK    4  A    between atoms: C_4  and  C_5
REMARK    5  A    between atoms: C_5  and  C_6
REMARK    6  A    between atoms: C_6  and  C_25
REMARK    7  A    between atoms: N_9  and  C_13
REMARK    8  A    between atoms: C_13  and  C_14
REMARK    9  A    between atoms: N_16  and  C_17
REMARK                            x       y       z     vdW  Elec       q    Type
REMARK                         _______ _______ _______ _____ _____    ______ ____
ROOT
ATOM      1  C   UNL     1      -1.298   2.528   7.887  0.00  0.00    +0.110 C 
ATOM      2  C   UNL     1      -0.686   3.079   6.614  0.00  0.00    +0.247 C 
ATOM      3  O   UNL     1      -0.728   4.224   6.218  0.00  0.00    -0.273 OA
ATOM      4  N   UNL     1      -0.087   2.032   6.014  0.00  0.00    -0.215 N 
ATOM      5  C   UNL     1      -0.227   0.908   6.727  0.00  0.00    +0.310 C 
ATOM      6  O   UNL     1       0.231  -0.166   6.391  0.00  0.00    -0.252 OA
ATOM      7  N   UNL     1      -0.932   1.101   7.856  0.00  0.00    -0.285 N 
ATOM      8  C   UNL     1      -2.818   2.694   7.874  0.00  0.00    +0.041 C 
ATOM      9  H   UNL     1      -1.155   0.431   8.521  0.00  0.00    +0.151 HD
ENDROOT
BRANCH   1  10
ATOM     10  C   UNL     1      -0.693   3.212   9.114  0.00  0.00    +0.035 C 
BRANCH  10  11
ATOM     11  C   UNL     1      -1.148   2.483  10.380  0.00  0.00    +0.005 C 
BRANCH  11  13
ATOM     12  C   UNL     1      -1.109   4.585  11.732  0.00  0.00    +0.007 C 
ATOM     13  C   UNL     1      -0.544   3.168  11.608  0.00  0.00    -0.017 C 
ATOM     14  C   UNL     1      -0.896   2.367  12.863  0.00  0.00    +0.007 C 
ENDBRANCH  11  13
ENDBRANCH  10  11
ENDBRANCH   1  10
BRANCH   4  15
ATOM     15  C   UNL     1       0.635   2.115   4.742  0.00  0.00    +0.213 C 
BRANCH  15  16
ATOM     16  C   UNL     1      -0.319   1.850   3.605  0.00  0.00    +0.231 C 
ATOM     17  O   UNL     1      -1.487   1.616   3.836  0.00  0.00    -0.274 OA
ATOM     18  N   UNL     1       0.125   1.875   2.333  0.00  0.00    -0.310 N 
ATOM     19  H   UNL     1       1.059   2.062   2.149  0.00  0.00    +0.149 HD
BRANCH  18  20
ATOM     20  C   UNL     1      -0.802   1.617   1.228  0.00  0.00    +0.095 C 
ATOM     21  C   UNL     1      -1.530   2.921   0.851  0.00  0.00    +0.046 C 
ATOM     22  C   UNL     1      -2.256   2.700  -0.507  0.00  0.00    +0.168 C 
ATOM     23  S   UNL     1      -0.978   1.733  -1.417  0.00  0.00    -0.029 S 
ATOM     24  O   UNL     1      -0.163   2.628  -2.160  0.00  0.00    -0.174 OA
ATOM     25  O   UNL     1      -1.607   0.645  -2.082  0.00  0.00    -0.174 OA
ATOM     26  C   UNL     1      -0.013   1.086   0.008  0.00  0.00    +0.188 C 
ENDBRANCH  18  20
ENDBRANCH  15  16
ENDBRANCH   4  15
TORSDOF 6
