REMARK  Name = ZINC04453210
REMARK  6 active torsions:
REMARK  status: ('A' for Active; 'I' for Inactive)
REMARK    1  A    between atoms: C_1  and  N_2
REMARK    2  A    between atoms: N_7  and  C_10
REMARK    3  A    between atoms: C_11  and  C_23
REMARK    4  A    between atoms: C_11  and  C_27
REMARK    5  A    between atoms: C_12  and  C_14
REMARK    6  A    between atoms: C_18  and  N_20
REMARK                            x       y       z     vdW  Elec       q    Type
REMARK                         _______ _______ _______ _____ _____    ______ ____
ROOT
ATOM      1  C   UNL     1      -3.632   6.419   0.921  0.00  0.00    +0.155 C 
ATOM      2  N   UNL     1      -2.497   7.343   0.988  0.00  0.00    -0.284 N 
ATOM      3  C   UNL     1      -1.272   6.957   0.505  0.00  0.00    +0.119 A 
ATOM      4  C   UNL     1      -0.219   7.822   0.563  0.00  0.00    +0.098 A 
ATOM      5  C   UNL     1      -0.412   9.093   1.129  0.00  0.00    +0.264 A 
ATOM      6  O   UNL     1       0.514   9.883   1.198  0.00  0.00    -0.267 OA
ATOM      7  N   UNL     1      -1.631   9.433   1.595  0.00  0.00    -0.264 N 
ATOM      8  C   UNL     1      -2.659   8.568   1.522  0.00  0.00    +0.333 A 
ATOM      9  O   UNL     1      -3.750   8.897   1.945  0.00  0.00    -0.246 OA
ATOM     10  C   UNL     1      -1.838  10.757   2.186  0.00  0.00    +0.157 C 
ATOM     11  C   UNL     1       1.128   7.427   0.027  0.00  0.00    +0.264 C 
ATOM     12  C   UNL     1       0.185   5.210  -0.195  0.00  0.00    +0.106 C 
ATOM     13  N   UNL     1      -1.094   5.706  -0.036  0.00  0.00    -0.286 N 
ATOM     14  H   UNL     1      -1.861   5.176  -0.305  0.00  0.00    +0.155 HD
ATOM     15  N   UNL     1       1.302   5.944  -0.170  0.00  0.00    -0.348 N 
ATOM     16  H   UNL     1       2.230   5.519  -0.280  0.00  0.00    +0.162 HD
ENDROOT
BRANCH  12  17
ATOM     17  C   UNL     1       0.376   3.757  -0.404  0.00  0.00    +0.015 A 
ATOM     18  C   UNL     1      -0.727   2.903  -0.438  0.00  0.00    +0.011 A 
ATOM     19  C   UNL     1      -0.542   1.550  -0.638  0.00  0.00    +0.003 A 
ATOM     20  C   UNL     1       0.734   1.039  -0.793  0.00  0.00    +0.033 A 
ATOM     21  C   UNL     1       1.831   1.880  -0.760  0.00  0.00    +0.127 A 
ATOM     22  C   UNL     1       1.659   3.236  -0.566  0.00  0.00    +0.044 A 
BRANCH  21  23
ATOM     23  N   UNL     1       3.193   1.325  -0.933  0.00  0.00    +0.056 N 
ATOM     24  O   UNL     1       3.346   0.129  -1.104  0.00  0.00    -0.126 OA
ATOM     25  O   UNL     1       4.160   2.065  -0.904  0.00  0.00    -0.126 OA
ENDBRANCH  21  23
ENDBRANCH  12  17
BRANCH  11  26
ATOM     26  C   UNL     1       1.358   8.127  -1.314  0.00  0.00    +0.426 C 
ATOM     27  F   UNL     1       1.312   9.513  -1.130  0.00  0.00    -0.167 F 
ATOM     28  F   UNL     1       2.611   7.764  -1.820  0.00  0.00    -0.167 F 
ATOM     29  F   UNL     1       0.361   7.743  -2.217  0.00  0.00    -0.167 F 
ENDBRANCH  11  26
BRANCH  11  30
ATOM     30  C   UNL     1       2.209   7.869   1.015  0.00  0.00    +0.426 C 
ATOM     31  F   UNL     1       1.810   7.550   2.317  0.00  0.00    -0.167 F 
ATOM     32  F   UNL     1       3.408   7.210   0.720  0.00  0.00    -0.167 F 
ATOM     33  F   UNL     1       2.400   9.251   0.910  0.00  0.00    -0.167 F 
ENDBRANCH  11  30
TORSDOF 4
