REMARK  Name = ZINC59292782
REMARK  8 active torsions:
REMARK  status: ('A' for Active; 'I' for Inactive)
REMARK    1  A    between atoms: C_1  and  C_2
REMARK    2  A    between atoms: C_2  and  C_3
REMARK    3  A    between atoms: C_8  and  N_9
REMARK    4  A    between atoms: C_10  and  C_12
REMARK    5  A    between atoms: C_12  and  N_13
REMARK    6  A    between atoms: C_17  and  C_18
REMARK    7  A    between atoms: C_20  and  C_30
REMARK    8  A    between atoms: C_22  and  C_23
REMARK                            x       y       z     vdW  Elec       q    Type
REMARK                         _______ _______ _______ _____ _____    ______ ____
ROOT
ATOM      1  N   UNL     1       6.255  -0.856   0.129  0.00  0.00    -0.212 N 
ATOM      2  C   UNL     1       6.882  -1.944   0.619  0.00  0.00    +0.269 C 
ATOM      3  O   UNL     1       6.361  -2.916   1.136  0.00  0.00    -0.268 OA
ATOM      4  C   UNL     1       8.316  -1.724   0.403  0.00  0.00    +0.098 C 
ATOM      5  C   UNL     1       9.338  -2.556   0.736  0.00  0.00    +0.038 C 
ATOM      6  N   UNL     1       8.407  -0.470  -0.222  0.00  0.00    -0.265 N 
ATOM      7  C   UNL     1       7.157   0.004  -0.368  0.00  0.00    +0.314 C 
ATOM      8  O   UNL     1       6.881   1.072  -0.881  0.00  0.00    -0.252 OA
ATOM      9  H   UNL     1       9.224  -0.027  -0.500  0.00  0.00    +0.157 HD
ENDROOT
BRANCH   5  10
ATOM     10  C   UNL     1      10.725  -2.150   0.486  0.00  0.00    -0.002 A 
ATOM     11  C   UNL     1      11.186  -1.086  -0.415  0.00  0.00    +0.031 A 
ATOM     12  C   UNL     1      12.526  -1.063  -0.330  0.00  0.00    +0.023 A 
ATOM     13  N   UNL     1      12.937  -2.026   0.551  0.00  0.00    -0.302 N 
ATOM     14  C   UNL     1      11.863  -2.686   1.056  0.00  0.00    +0.029 A 
ATOM     15  C   UNL     1      11.905  -3.809   2.059  0.00  0.00    +0.064 C 
ATOM     16  C   UNL     1      14.267  -2.288   0.886  0.00  0.00    +0.138 A 
ATOM     17  C   UNL     1      14.729  -3.599   0.896  0.00  0.00    +0.047 A 
ATOM     18  C   UNL     1      16.049  -3.845   1.230  0.00  0.00    +0.005 A 
ATOM     19  C   UNL     1      16.865  -2.767   1.544  0.00  0.00    +0.020 A 
ATOM     20  C   UNL     1      16.339  -1.490   1.514  0.00  0.00    +0.113 A 
ATOM     21  N   UNL     1      15.077  -1.286   1.187  0.00  0.00    -0.238 NA
ATOM     22  C   UNL     1      13.434  -0.127  -1.085  0.00  0.00    +0.064 C 
ENDBRANCH   5  10
BRANCH   1  23
ATOM     23  C   UNL     1       4.805  -0.645   0.134  0.00  0.00    +0.214 C 
BRANCH  23  25
ATOM     24  N   UNL     1       2.884  -1.125  -1.348  0.00  0.00    -0.284 N 
ATOM     25  C   UNL     1       4.212  -1.206  -1.133  0.00  0.00    +0.235 C 
ATOM     26  O   UNL     1       4.930  -1.729  -1.958  0.00  0.00    -0.274 OA
ATOM     27  H   UNL     1       2.311  -0.702  -0.690  0.00  0.00    +0.155 HD
BRANCH  24  33
ATOM     28  C   UNL     1       1.051  -2.187  -2.508  0.00  0.00    -0.026 A 
ATOM     29  C   UNL     1       0.507  -2.702  -3.668  0.00  0.00    +0.005 A 
ATOM     30  C   UNL     1       1.239  -2.690  -4.841  0.00  0.00    +0.000 A 
ATOM     31  C   UNL     1       2.518  -2.162  -4.857  0.00  0.00    +0.002 A 
ATOM     32  C   UNL     1       3.067  -1.646  -3.700  0.00  0.00    +0.023 A 
ATOM     33  C   UNL     1       2.332  -1.652  -2.521  0.00  0.00    +0.037 A 
BRANCH  28  35
ATOM     34  C   UNL     1      -0.464  -0.860  -1.062  0.00  0.00    +0.009 C 
ATOM     35  C   UNL     1       0.253  -2.201  -1.230  0.00  0.00    +0.033 C 
ENDBRANCH  28  35
ENDBRANCH  24  33
ENDBRANCH  23  25
ENDBRANCH   1  23
TORSDOF 5
