REMARK  Name = ZINC35635889
REMARK  7 active torsions:
REMARK  status: ('A' for Active; 'I' for Inactive)
REMARK    1  A    between atoms: C_1  and  N_2
REMARK    2  A    between atoms: C_5  and  C_10
REMARK    3  A    between atoms: N_18  and  C_20
REMARK    4  A    between atoms: C_20  and  C_22
REMARK    5  A    between atoms: C_20  and  C_28
REMARK    6  A    between atoms: N_30  and  C_31
REMARK    7  A    between atoms: C_31  and  C_32
REMARK                            x       y       z     vdW  Elec       q    Type
REMARK                         _______ _______ _______ _____ _____    ______ ____
ROOT
ATOM      1  C   UNL     1       0.518  -2.923  -1.028  0.00  0.00    +0.139 C 
ATOM      2  N   UNL     1       0.175  -1.545  -0.666  0.00  0.00    -0.260 N 
ATOM      3  C   UNL     1      -1.137  -1.249  -0.424  0.00  0.00    +0.042 C 
ATOM      4  C   UNL     1      -1.520  -0.001  -0.086  0.00  0.00    +0.058 C 
ATOM      5  C   UNL     1      -0.446   1.062   0.017  0.00  0.00    +0.142 C 
ATOM      6  N   UNL     1       0.938   0.642  -0.263  0.00  0.00    -0.288 N 
ATOM      7  C   UNL     1       1.165  -0.647  -0.585  0.00  0.00    +0.307 C 
ATOM      8  O   UNL     1       2.304  -1.004  -0.813  0.00  0.00    -0.252 OA
ATOM      9  C   UNL     1      -2.915   0.047   0.110  0.00  0.00    +0.247 C 
ATOM     10  O   UNL     1      -3.532   1.049   0.422  0.00  0.00    -0.270 OA
ATOM     11  N   UNL     1      -3.477  -1.159  -0.094  0.00  0.00    -0.277 N 
ATOM     12  C   UNL     1      -2.394  -2.088  -0.451  0.00  0.00    +0.160 C 
ATOM     13  H   UNL     1       1.669   1.277  -0.214  0.00  0.00    +0.151 HD
ENDROOT
BRANCH   5  14
ATOM     14  C   UNL     1      -0.796   2.171  -0.941  0.00  0.00    -0.023 A 
ATOM     15  C   UNL     1      -0.518   2.035  -2.288  0.00  0.00    +0.006 A 
ATOM     16  C   UNL     1      -0.840   3.052  -3.167  0.00  0.00    +0.000 A 
ATOM     17  C   UNL     1      -1.441   4.206  -2.699  0.00  0.00    +0.000 A 
ATOM     18  C   UNL     1      -1.720   4.342  -1.352  0.00  0.00    +0.000 A 
ATOM     19  C   UNL     1      -1.402   3.323  -0.474  0.00  0.00    +0.006 A 
ENDBRANCH   5  14
BRANCH  11  20
ATOM     20  C   UNL     1      -4.900  -1.485   0.019  0.00  0.00    +0.193 C 
BRANCH  20  21
ATOM     21  C   UNL     1      -5.378  -2.103  -1.270  0.00  0.00    -0.018 A 
ATOM     22  C   UNL     1      -4.758  -3.235  -1.765  0.00  0.00    +0.006 A 
ATOM     23  C   UNL     1      -5.196  -3.802  -2.947  0.00  0.00    +0.000 A 
ATOM     24  C   UNL     1      -6.255  -3.237  -3.634  0.00  0.00    +0.000 A 
ATOM     25  C   UNL     1      -6.875  -2.106  -3.138  0.00  0.00    +0.000 A 
ATOM     26  C   UNL     1      -6.440  -1.541  -1.954  0.00  0.00    +0.006 A 
ENDBRANCH  20  21
BRANCH  20  27
ATOM     27  C   UNL     1      -5.104  -2.461   1.150  0.00  0.00    +0.238 C 
ATOM     28  O   UNL     1      -4.153  -2.845   1.797  0.00  0.00    -0.273 OA
ATOM     29  N   UNL     1      -6.342  -2.905   1.442  0.00  0.00    -0.311 N 
ATOM     30  H   UNL     1      -7.102  -2.598   0.924  0.00  0.00    +0.149 HD
BRANCH  29  31
ATOM     31  C   UNL     1      -6.540  -3.854   2.541  0.00  0.00    +0.135 C 
BRANCH  31  32
ATOM     32  C   UNL     1      -8.026  -4.195   2.659  0.00  0.00    +0.135 C 
ATOM     33  C   UNL     1      -8.260  -5.098   3.889  0.00  0.00    +0.035 C 
ATOM     34  C   UNL     1      -9.328  -6.098   3.365  0.00  0.00    +0.031 C 
ATOM     35  C   UNL     1      -8.902  -6.232   1.881  0.00  0.00    +0.160 C 
ATOM     36  O   UNL     1      -8.452  -4.920   1.500  0.00  0.00    -0.375 OA
ENDBRANCH  31  32
ENDBRANCH  29  31
ENDBRANCH  20  27
ENDBRANCH  11  20
TORSDOF 6
