REMARK  Name = ZINC14479087
REMARK  5 active torsions:
REMARK  status: ('A' for Active; 'I' for Inactive)
REMARK    1  A    between atoms: C_1  and  C_2
REMARK    2  A    between atoms: C_7  and  C_8
REMARK    3  A    between atoms: C_19  and  C_24
REMARK    4  A    between atoms: N_26  and  C_27
REMARK    5  A    between atoms: N_26  and  C_28
REMARK                            x       y       z     vdW  Elec       q    Type
REMARK                         _______ _______ _______ _____ _____    ______ ____
ROOT
ATOM      1  C   UNL     1       7.866   8.146  -0.162  0.00  0.00    +0.105 C 
ATOM      2  C   UNL     1       6.794   9.010   0.476  0.00  0.00    +0.029 C 
ATOM      3  C   UNL     1       6.859   8.927   2.019  0.00  0.00    +0.033 C 
ATOM      4  C   UNL     1       5.424   9.198   2.434  0.00  0.00    -0.030 C 
ATOM      5  C   UNL     1       4.605   8.941   1.445  0.00  0.00    -0.023 C 
ATOM      6  C   UNL     1       5.379   8.456   0.227  0.00  0.00    +0.049 C 
ATOM      7  C   UNL     1       5.343   6.951   0.239  0.00  0.00    -0.019 A 
ATOM      8  C   UNL     1       4.106   6.332   0.197  0.00  0.00    +0.019 A 
ATOM      9  C   UNL     1       4.013   4.940   0.214  0.00  0.00    +0.038 A 
ATOM     10  C   UNL     1       5.174   4.163   0.280  0.00  0.00    +0.015 A 
ATOM     11  C   UNL     1       6.403   4.781   0.315  0.00  0.00    +0.024 A 
ATOM     12  C   UNL     1       6.489   6.171   0.296  0.00  0.00    +0.031 A 
ATOM     13  N   UNL     1       7.747   6.770   0.334  0.00  0.00    -0.336 N 
ATOM     14  H   UNL     1       8.519   6.293   0.676  0.00  0.00    +0.147 HD
ENDROOT
BRANCH   1  21
ATOM     15  C   UNL     1       8.851  10.376  -1.713  0.00  0.00    +0.044 C 
ATOM     16  C   UNL     1       8.165   9.224  -2.401  0.00  0.00    -0.045 A 
ATOM     17  C   UNL     1       8.008   9.233  -3.775  0.00  0.00    +0.004 A 
ATOM     18  C   UNL     1       7.380   8.177  -4.406  0.00  0.00    +0.000 A 
ATOM     19  C   UNL     1       6.908   7.110  -3.664  0.00  0.00    +0.000 A 
ATOM     20  C   UNL     1       7.070   7.097  -2.291  0.00  0.00    +0.006 A 
ATOM     21  C   UNL     1       7.694   8.157  -1.659  0.00  0.00    -0.024 A 
ENDBRANCH   1  21
BRANCH   9  22
ATOM     22  C   UNL     1       2.691   4.288   0.169  0.00  0.00    +0.251 C 
ATOM     23  O   UNL     1       1.735   4.884  -0.289  0.00  0.00    -0.270 OA
ATOM     24  N   UNL     1       2.542   3.033   0.636  0.00  0.00    -0.271 N 
ATOM     25  C   UNL     1       3.666   2.356   1.288  0.00  0.00    +0.138 C 
BRANCH  24  26
ATOM     26  C   UNL     1       1.315   2.377   0.500  0.00  0.00    +0.036 A 
ATOM     27  C   UNL     1       0.210   3.062   0.009  0.00  0.00    +0.023 A 
ATOM     28  C   UNL     1      -1.000   2.411  -0.125  0.00  0.00    +0.002 A 
ATOM     29  C   UNL     1      -1.114   1.079   0.229  0.00  0.00    +0.000 A 
ATOM     30  C   UNL     1      -0.017   0.395   0.718  0.00  0.00    +0.002 A 
ATOM     31  C   UNL     1       1.197   1.039   0.854  0.00  0.00    +0.023 A 
ENDBRANCH  24  26
ENDBRANCH   9  22
TORSDOF 3
