REMARK  Name = ZINC39738936
REMARK  7 active torsions:
REMARK  status: ('A' for Active; 'I' for Inactive)
REMARK    1  A    between atoms: C_1  and  C_2
REMARK    2  A    between atoms: C_2  and  C_4
REMARK    3  A    between atoms: C_2  and  N_30
REMARK    4  A    between atoms: C_8  and  S_17
REMARK    5  A    between atoms: N_9  and  C_10
REMARK    6  A    between atoms: S_17  and  C_18
REMARK    7  A    between atoms: C_18  and  C_19
REMARK                            x       y       z     vdW  Elec       q    Type
REMARK                         _______ _______ _______ _____ _____    ______ ____
ROOT
ATOM      1  C   UNL     1       0.660  -0.310   1.151  0.00  0.00    +0.168 C 
ATOM      2  N   UNL     1       2.015   0.246   1.314  0.00  0.00    -0.248 N 
ATOM      3  N   UNL     1       2.091   0.709   2.633  0.00  0.00    -0.162 NA
ATOM      4  C   UNL     1       0.985   0.510   3.268  0.00  0.00    +0.180 C 
ATOM      5  N   UNL     1       0.032  -0.110   2.468  0.00  0.00    -0.260 N 
ATOM      6  H   UNL     1       2.714   0.283   0.642  0.00  0.00    +0.170 HD
ENDROOT
BRANCH   5   7
ATOM      7  C   UNL     1      -1.267  -0.471   2.837  0.00  0.00    +0.037 A 
ATOM      8  C   UNL     1      -1.622  -1.812   2.910  0.00  0.00    +0.025 A 
ATOM      9  C   UNL     1      -2.906  -2.166   3.276  0.00  0.00    +0.022 A 
ATOM     10  C   UNL     1      -3.839  -1.186   3.568  0.00  0.00    +0.041 A 
ATOM     11  C   UNL     1      -3.488   0.151   3.496  0.00  0.00    +0.022 A 
ATOM     12  C   UNL     1      -2.204   0.510   3.137  0.00  0.00    +0.025 A 
ATOM     13 CL   UNL     1      -5.452  -1.635   4.027  0.00  0.00    -0.084 Cl
ENDBRANCH   5   7
BRANCH   1  15
ATOM     14  C   UNL     1      -0.039   1.954   0.358  0.00  0.00    -0.010 C 
ATOM     15  C   UNL     1      -0.106   0.453   0.069  0.00  0.00    -0.031 C 
BRANCH  15  16
ATOM     16  N   UNL     1       0.496   0.180  -1.243  0.00  0.00    +0.384 N 
ATOM     17  C   UNL     1      -0.234   0.919  -2.279  0.00  0.00    -0.078 C 
ATOM     18  C   UNL     1       0.439   0.703  -3.636  0.00  0.00    -0.019 C 
ATOM     19  C   UNL     1       0.430  -0.792  -3.971  0.00  0.00    -0.004 C 
ATOM     20  C   UNL     1       1.130  -1.561  -2.847  0.00  0.00    -0.019 C 
ATOM     21  C   UNL     1       0.431  -1.260  -1.519  0.00  0.00    -0.078 C 
ATOM     22  H   UNL     1       1.461   0.477  -1.238  0.00  0.00    -0.081 HD
ENDBRANCH  15  16
ENDBRANCH   1  15
BRANCH   4  23
ATOM     23  S   UNL     1       0.717   0.965   4.949  0.00  0.00    -0.081 S 
BRANCH  23  24
ATOM     24  C   UNL     1       2.288   1.716   5.457  0.00  0.00    +0.150 C 
BRANCH  24  25
ATOM     25  C   UNL     1       2.193   2.156   6.895  0.00  0.00    +0.133 C 
ATOM     26  N   UNL     1       1.066   1.945   7.542  0.00  0.00    -0.164 NA
ATOM     27  C   UNL     1       0.789   2.501   8.729  0.00  0.00    +0.257 C 
ATOM     28  O   UNL     1      -0.173   2.151   9.385  0.00  0.00    -0.272 OA
ATOM     29  C   UNL     1       1.718   3.570   9.211  0.00  0.00    +0.187 C 
ATOM     30  C   UNL     1       3.107   3.252   8.671  0.00  0.00    +0.066 C 
ATOM     31  N   UNL     1       3.252   2.732   7.451  0.00  0.00    -0.237 NA
ATOM     32  C   UNL     1       4.062   3.342   9.652  0.00  0.00    +0.032 C 
ATOM     33  C   UNL     1       3.718   3.481  10.960  0.00  0.00    +0.043 C 
ATOM     34  S   UNL     1       2.016   3.533  11.009  0.00  0.00    -0.114 S 
ENDBRANCH  24  25
ENDBRANCH  23  24
ENDBRANCH   4  23
TORSDOF 6
