REMARK  Name = ZINC43019460
REMARK  6 active torsions:
REMARK  status: ('A' for Active; 'I' for Inactive)
REMARK    1  A    between atoms: N_4  and  C_8
REMARK    2  A    between atoms: C_11  and  N_15
REMARK    3  A    between atoms: C_16  and  C_18
REMARK    4  A    between atoms: C_18  and  N_19
REMARK    5  A    between atoms: C_22  and  N_25
REMARK    6  A    between atoms: C_26  and  C_28
REMARK                            x       y       z     vdW  Elec       q    Type
REMARK                         _______ _______ _______ _____ _____    ______ ____
ROOT
ATOM      1  N   UNL     1       7.262  -2.667  -0.087  0.00  0.00    -0.285 N 
ATOM      2  C   UNL     1       8.416  -1.971  -0.090  0.00  0.00    +0.201 C 
ATOM      3  O   UNL     1       8.396  -0.763   0.014  0.00  0.00    -0.278 OA
ATOM      4  H   UNL     1       7.281  -3.637  -0.085  0.00  0.00    +0.155 HD
ENDROOT
BRANCH   1   8
ATOM      5  C   UNL     1       3.610  -0.652  -0.090  0.00  0.00    +0.052 A 
ATOM      6  C   UNL     1       4.702  -0.114  -0.760  0.00  0.00    +0.028 A 
ATOM      7  C   UNL     1       5.910  -0.781  -0.758  0.00  0.00    +0.028 A 
ATOM      8  C   UNL     1       6.036  -1.990  -0.088  0.00  0.00    +0.069 A 
ATOM      9  C   UNL     1       4.943  -2.530   0.583  0.00  0.00    +0.146 A 
ATOM     10  C   UNL     1       3.735  -1.859   0.586  0.00  0.00    +0.066 A 
ATOM     11  F   UNL     1       5.064  -3.707   1.235  0.00  0.00    -0.203 F 
BRANCH   5  15
ATOM     12  C   UNL     1      -0.020   1.356  -0.092  0.00  0.00    +0.007 A 
ATOM     13  C   UNL     1       0.613   1.012   1.111  0.00  0.00    +0.018 A 
ATOM     14  C   UNL     1       1.797   0.356   1.088  0.00  0.00    +0.095 A 
ATOM     15  N   UNL     1       2.384   0.026  -0.092  0.00  0.00    -0.284 N 
ATOM     16  C   UNL     1       1.801   0.343  -1.264  0.00  0.00    +0.256 A 
ATOM     17  O   UNL     1       2.340   0.038  -2.316  0.00  0.00    -0.267 OA
ATOM     18  C   UNL     1       0.572   1.022  -1.276  0.00  0.00    +0.071 A 
ENDBRANCH   5  15
ENDBRANCH   1   8
BRANCH   2  19
ATOM     19  C   UNL     1       9.732  -2.694  -0.222  0.00  0.00    +0.019 C 
BRANCH  19  20
ATOM     20  N   UNL     1      10.831  -1.719  -0.198  0.00  0.00    +0.387 N 
ATOM     21  C   UNL     1      10.947  -1.112   1.152  0.00  0.00    -0.076 C 
ATOM     22  C   UNL     1      12.406  -0.590   1.182  0.00  0.00    +0.002 C 
ATOM     23  C   UNL     1      13.180  -1.686   0.414  0.00  0.00    +0.055 C 
ATOM     24  C   UNL     1      12.121  -2.398  -0.447  0.00  0.00    -0.056 C 
ATOM     25  H   UNL     1      10.676  -1.002  -0.891  0.00  0.00    -0.081 HD
BRANCH  23  26
ATOM     26  N   UNL     1      14.207  -1.080  -0.438  0.00  0.00    -0.310 N 
ATOM     27  C   UNL     1      15.426  -0.807   0.067  0.00  0.00    +0.251 C 
ATOM     28  O   UNL     1      15.674  -1.063   1.231  0.00  0.00    -0.270 OA
ATOM     29  H   UNL     1      14.009  -0.876  -1.365  0.00  0.00    +0.149 HD
BRANCH  27  30
ATOM     30  C   UNL     1      16.453  -0.201  -0.784  0.00  0.00    +0.075 A 
ATOM     31  C   UNL     1      17.756   0.150  -0.466  0.00  0.00    +0.022 A 
ATOM     32  C   UNL     1      18.490   0.705  -1.486  0.00  0.00    +0.028 A 
ATOM     33  C   UNL     1      17.910   0.870  -2.702  0.00  0.00    +0.079 A 
ATOM     34  S   UNL     1      16.354   0.269  -2.501  0.00  0.00    -0.072 S 
ATOM     35 CL   UNL     1      18.617   1.541  -4.139  0.00  0.00    -0.076 Cl
ENDBRANCH  27  30
ENDBRANCH  23  26
ENDBRANCH  19  20
ENDBRANCH   2  19
TORSDOF 6
