REMARK  Name = ZINC64083714
REMARK  4 active torsions:
REMARK  status: ('A' for Active; 'I' for Inactive)
REMARK    1  A    between atoms: C_1  and  C_2
REMARK    2  A    between atoms: C_7  and  C_12
REMARK    3  A    between atoms: C_15  and  C_18
REMARK    4  A    between atoms: C_18  and  C_19
REMARK                            x       y       z     vdW  Elec       q    Type
REMARK                         _______ _______ _______ _____ _____    ______ ____
ROOT
ATOM      1  C   UNL     1      -1.175  -5.213   1.858  0.00  0.00    +0.318 C 
ATOM      2  N   UNL     1      -1.152  -6.536   1.216  0.00  0.00    -0.291 N 
ATOM      3  C   UNL     1      -2.262  -6.605   0.406  0.00  0.00    +0.142 C 
ATOM      4  N   UNL     1      -2.953  -5.524   0.462  0.00  0.00    -0.072 NA
ATOM      5  O   UNL     1      -2.361  -4.586   1.344  0.00  0.00    -0.367 OA
ATOM      6  H   UNL     1      -0.483  -7.227   1.339  0.00  0.00    +0.151 HD
ENDROOT
BRANCH   1  13
ATOM      7  C   UNL     1      -0.018   1.503   0.010  0.00  0.00    +0.044 C 
ATOM      8  C   UNL     1       0.002  -0.004   0.002  0.00  0.00    -0.050 A 
ATOM      9  C   UNL     1       0.005  -0.680  -1.226  0.00  0.00    +0.005 A 
ATOM     10  C   UNL     1       0.023  -2.026  -1.317  0.00  0.00    +0.026 A 
ATOM     11  C   UNL     1       0.039  -2.826  -0.141  0.00  0.00    +0.043 A 
ATOM     12  N   UNL     1       0.057  -4.126   0.030  0.00  0.00    -0.373 N 
ATOM     13  C   UNL     1       0.067  -4.408   1.470  0.00  0.00    +0.165 C 
ATOM     14  C   UNL     1       0.052  -3.060   2.156  0.00  0.00    +0.012 C 
ATOM     15  C   UNL     1       0.036  -2.137   1.168  0.00  0.00    -0.004 A 
ATOM     16  C   UNL     1       0.022  -0.669   1.180  0.00  0.00    +0.013 A 
ATOM     17  H   UNL     1       0.062  -4.790  -0.677  0.00  0.00    +0.160 HD
ENDBRANCH   1  13
BRANCH   3  18
ATOM     18  C   UNL     1      -2.622  -7.799  -0.440  0.00  0.00    +0.111 C 
BRANCH  18  19
ATOM     19  C   UNL     1      -3.898  -7.516  -1.190  0.00  0.00    -0.022 A 
ATOM     20  C   UNL     1      -5.127  -7.832  -0.629  0.00  0.00    +0.007 A 
ATOM     21  C   UNL     1      -6.274  -7.554  -1.356  0.00  0.00    +0.020 A 
ATOM     22  C   UNL     1      -6.157  -6.976  -2.606  0.00  0.00    +0.111 A 
ATOM     23  N   UNL     1      -4.971  -6.690  -3.108  0.00  0.00    -0.263 NA
ATOM     24  C   UNL     1      -3.859  -6.935  -2.443  0.00  0.00    +0.114 A 
ENDBRANCH  18  19
ENDBRANCH   3  18
TORSDOF 3
