REMARK  Name = ZINC35597539
REMARK  7 active torsions:
REMARK  status: ('A' for Active; 'I' for Inactive)
REMARK    1  A    between atoms: C_5  and  C_7
REMARK    2  A    between atoms: C_7  and  N_8
REMARK    3  A    between atoms: C_9  and  C_11
REMARK    4  A    between atoms: C_14  and  S_16
REMARK    5  A    between atoms: S_16  and  N_19
REMARK    6  A    between atoms: N_19  and  C_20
REMARK    7  A    between atoms: C_20  and  C_21
REMARK                            x       y       z     vdW  Elec       q    Type
REMARK                         _______ _______ _______ _____ _____    ______ ____
ROOT
ATOM      1  C   UNL     1       1.812  -4.498   2.924  0.00  0.00    +0.192 A 
ATOM      2  C   UNL     1       1.906  -5.808   3.297  0.00  0.00    +0.057 A 
ATOM      3  C   UNL     1       2.163  -5.817   4.677  0.00  0.00    +0.072 A 
ATOM      4  C   UNL     1       2.213  -4.529   5.081  0.00  0.00    +0.258 A 
ATOM      5  O   UNL     1       2.006  -3.736   4.021  0.00  0.00    -0.432 OA
ENDROOT
BRANCH   1   7
ATOM      6  N   UNL     1       1.489  -2.679   1.333  0.00  0.00    -0.305 N 
ATOM      7  C   UNL     1       1.552  -4.005   1.567  0.00  0.00    +0.280 C 
ATOM      8  O   UNL     1       1.393  -4.792   0.654  0.00  0.00    -0.267 OA
ATOM      9  H   UNL     1       1.615  -2.051   2.062  0.00  0.00    +0.149 HD
BRANCH   6  10
ATOM     10  C   UNL     1       1.229  -2.186  -0.022  0.00  0.00    +0.141 C 
BRANCH  10  15
ATOM     11  C   UNL     1      -0.017   1.378   0.010  0.00  0.00    +0.000 A 
ATOM     12  C   UNL     1       1.171   2.086   0.002  0.00  0.00    +0.001 A 
ATOM     13  C   UNL     1       2.377   1.412  -0.013  0.00  0.00    +0.020 A 
ATOM     14  C   UNL     1       2.397   0.029  -0.021  0.00  0.00    +0.046 A 
ATOM     15  C   UNL     1       1.208  -0.679  -0.013  0.00  0.00    -0.012 A 
ATOM     16  C   UNL     1       0.002  -0.004   0.002  0.00  0.00    +0.006 A 
ATOM     17 CL   UNL     1       3.912  -0.818  -0.041  0.00  0.00    -0.083 Cl
ENDBRANCH  10  15
ENDBRANCH   6  10
ENDBRANCH   1   7
BRANCH   4  18
ATOM     18  S   UNL     1       2.508  -3.981   6.729  0.00  0.00    +0.092 S 
ATOM     19  O   UNL     1       1.942  -2.681   6.832  0.00  0.00    -0.150 OA
ATOM     20  O   UNL     1       2.126  -5.048   7.586  0.00  0.00    -0.150 OA
BRANCH  18  21
ATOM     21  N   UNL     1       4.145  -3.799   6.900  0.00  0.00    -0.183 NA
ATOM     22  H   UNL     1       4.634  -4.366   7.516  0.00  0.00    +0.148 HD
BRANCH  21  23
ATOM     23  C   UNL     1       4.854  -2.782   6.119  0.00  0.00    +0.141 C 
BRANCH  23  24
ATOM     24  C   UNL     1       6.225  -2.565   6.705  0.00  0.00    -0.028 A 
ATOM     25  C   UNL     1       6.411  -1.614   7.691  0.00  0.00    +0.009 A 
ATOM     26  C   UNL     1       7.667  -1.411   8.233  0.00  0.00    +0.050 A 
ATOM     27  C   UNL     1       8.743  -2.161   7.787  0.00  0.00    +0.166 A 
ATOM     28  C   UNL     1       8.556  -3.119   6.794  0.00  0.00    +0.167 A 
ATOM     29  C   UNL     1       7.293  -3.321   6.260  0.00  0.00    +0.054 A 
ATOM     30  O   UNL     1       9.755  -3.716   6.532  0.00  0.00    -0.453 OA
ATOM     31  C   UNL     1      10.752  -2.834   7.082  0.00  0.00    +0.466 C 
ATOM     32  O   UNL     1      10.059  -2.158   8.148  0.00  0.00    -0.453 OA
ENDBRANCH  23  24
ENDBRANCH  21  23
ENDBRANCH  18  21
ENDBRANCH   4  18
TORSDOF 7
