REMARK  Name = ZINC34792890
REMARK  4 active torsions:
REMARK  status: ('A' for Active; 'I' for Inactive)
REMARK    1  A    between atoms: C_1  and  N_2
REMARK    2  A    between atoms: C_5  and  C_10
REMARK    3  A    between atoms: N_19  and  C_21
REMARK    4  A    between atoms: C_21  and  C_22
REMARK                            x       y       z     vdW  Elec       q    Type
REMARK                         _______ _______ _______ _____ _____    ______ ____
ROOT
ATOM      1  C   UNL     1      -0.473   1.434   0.109  0.00  0.00    +0.139 C 
ATOM      2  N   UNL     1      -0.297  -0.020   0.065  0.00  0.00    -0.260 N 
ATOM      3  C   UNL     1      -1.409  -0.808   0.152  0.00  0.00    +0.042 C 
ATOM      4  C   UNL     1      -1.317  -2.153   0.118  0.00  0.00    +0.058 C 
ATOM      5  C   UNL     1       0.064  -2.761  -0.021  0.00  0.00    +0.143 C 
ATOM      6  N   UNL     1       1.199  -1.826  -0.108  0.00  0.00    -0.288 N 
ATOM      7  C   UNL     1       0.946  -0.503  -0.064  0.00  0.00    +0.307 C 
ATOM      8  O   UNL     1       1.875   0.276  -0.139  0.00  0.00    -0.252 OA
ATOM      9  C   UNL     1      -2.597  -2.735   0.225  0.00  0.00    +0.247 C 
ATOM     10  O   UNL     1      -2.810  -3.933   0.222  0.00  0.00    -0.270 OA
ATOM     11  N   UNL     1      -3.551  -1.793   0.332  0.00  0.00    -0.283 N 
ATOM     12  C   UNL     1      -2.879  -0.485   0.295  0.00  0.00    +0.160 C 
ATOM     13  H   UNL     1       2.107  -2.155  -0.198  0.00  0.00    +0.151 HD
ENDROOT
BRANCH   5  14
ATOM     14  C   UNL     1       0.072  -3.617  -1.262  0.00  0.00    -0.004 A 
ATOM     15  C   UNL     1      -0.904  -3.446  -2.225  0.00  0.00    +0.007 A 
ATOM     16  C   UNL     1      -0.897  -4.231  -3.363  0.00  0.00    +0.000 A 
ATOM     17  C   UNL     1       0.087  -5.186  -3.538  0.00  0.00    +0.001 A 
ATOM     18  C   UNL     1       1.063  -5.358  -2.575  0.00  0.00    +0.020 A 
ATOM     19  C   UNL     1       1.060  -4.569  -1.439  0.00  0.00    +0.046 A 
ATOM     20 CL   UNL     1       2.290  -4.779  -0.232  0.00  0.00    -0.083 Cl
ENDBRANCH   5  14
BRANCH  11  21
ATOM     21  C   UNL     1      -4.992  -2.026   0.460  0.00  0.00    +0.204 C 
BRANCH  21  22
ATOM     22  C   UNL     1      -5.356  -2.133   1.919  0.00  0.00    +0.233 C 
ATOM     23  O   UNL     1      -4.496  -2.025   2.767  0.00  0.00    -0.274 OA
ATOM     24  N   UNL     1      -6.636  -2.349   2.280  0.00  0.00    -0.297 N 
ATOM     25  C   UNL     1      -7.687  -2.488   1.262  0.00  0.00    +0.126 C 
ATOM     26  C   UNL     1      -8.412  -3.821   1.486  0.00  0.00    +0.125 C 
ATOM     27  N   UNL     1      -8.782  -3.922   2.904  0.00  0.00    -0.314 N 
ATOM     28  C   UNL     1      -7.731  -3.783   3.922  0.00  0.00    +0.125 C 
ATOM     29  C   UNL     1      -7.005  -2.456   3.698  0.00  0.00    +0.126 C 
ATOM     30  C   UNL     1     -10.103  -4.145   3.277  0.00  0.00    +0.099 A 
ATOM     31  C   UNL     1     -11.059  -4.410   2.301  0.00  0.00    +0.042 A 
ATOM     32  C   UNL     1     -12.369  -4.630   2.686  0.00  0.00    +0.005 A 
ATOM     33  C   UNL     1     -12.681  -4.577   4.039  0.00  0.00    +0.018 A 
ATOM     34  C   UNL     1     -11.681  -4.308   4.952  0.00  0.00    +0.084 A 
ATOM     35  N   UNL     1     -10.438  -4.108   4.557  0.00  0.00    -0.350 N 
ATOM     36  H   UNL     1      -9.755  -3.925   5.220  0.00  0.00    +0.166 HD
ENDBRANCH  21  22
ENDBRANCH  11  21
TORSDOF 3
