REMARK  Name = ZINC65507592
REMARK  6 active torsions:
REMARK  status: ('A' for Active; 'I' for Inactive)
REMARK    1  A    between atoms: C_1  and  C_2
REMARK    2  A    between atoms: C_7  and  C_11
REMARK    3  A    between atoms: C_11  and  N_12
REMARK    4  A    between atoms: C_20  and  C_22
REMARK    5  A    between atoms: C_22  and  O_24
REMARK    6  A    between atoms: O_24  and  C_25
REMARK                            x       y       z     vdW  Elec       q    Type
REMARK                         _______ _______ _______ _____ _____    ______ ____
ROOT
ATOM      1  N   UNL     1       1.457  -4.559   3.086  0.00  0.00    -0.295 NA
ATOM      2  C   UNL     1       2.253  -4.475   1.859  0.00  0.00    +0.102 C 
ATOM      3  C   UNL     1       3.704  -4.931   2.100  0.00  0.00    +0.121 C 
ATOM      4  N   UNL     1       3.648  -6.254   2.679  0.00  0.00    -0.220 NA
ATOM      5  C   UNL     1       2.968  -6.193   4.001  0.00  0.00    +0.115 C 
ATOM      6  C   UNL     1       1.503  -5.898   3.714  0.00  0.00    +0.109 C 
ATOM      7  C   UNL     1       3.268  -7.559   4.551  0.00  0.00    +0.026 C 
ATOM      8  C   UNL     1       4.340  -7.992   3.852  0.00  0.00    +0.124 C 
ATOM      9  N   UNL     1       4.739  -7.002   2.924  0.00  0.00    -0.271 N 
ATOM     10  H   UNL     1       5.622  -6.885   2.541  0.00  0.00    +0.167 HD
ENDROOT
BRANCH   8  11
ATOM     11  C   UNL     1       4.995  -9.300   4.030  0.00  0.00    +0.354 C 
ATOM     12  O   UNL     1       4.575 -10.083   4.859  0.00  0.00    -0.244 OA
BRANCH  11  13
ATOM     13  O   UNL     1       6.062  -9.628   3.274  0.00  0.00    -0.464 OA
ATOM     14  C   UNL     1       6.648 -10.912   3.500  0.00  0.00    +0.280 C 
ENDBRANCH  11  13
ENDBRANCH   8  11
BRANCH   1  15
ATOM     15  C   UNL     1       0.070  -4.139   2.844  0.00  0.00    +0.117 C 
BRANCH  15  22
ATOM     16  C   UNL     1      -0.018   1.503   0.010  0.00  0.00    +0.046 C 
ATOM     17  C   UNL     1       0.002  -0.004   0.002  0.00  0.00    -0.027 A 
ATOM     18  C   UNL     1       0.006  -0.669  -1.173  0.00  0.00    +0.005 A 
ATOM     19  C   UNL     1       0.024  -2.068  -1.251  0.00  0.00    +0.001 A 
ATOM     20  C   UNL     1       0.040  -2.842  -0.142  0.00  0.00    +0.010 A 
ATOM     21  C   UNL     1       0.037  -2.197   1.177  0.00  0.00    +0.000 A 
ATOM     22  C   UNL     1       0.049  -2.688   2.437  0.00  0.00    -0.028 C 
ATOM     23  C   UNL     1       0.037  -1.486   3.355  0.00  0.00    +0.146 C 
ATOM     24  N   UNL     1       0.018  -0.310   2.478  0.00  0.00    -0.380 N 
ATOM     25  C   UNL     1       0.023  -0.718   1.232  0.00  0.00    +0.046 A 
ATOM     26  H   UNL     1       0.007   0.614   2.771  0.00  0.00    +0.160 HD
ENDBRANCH  15  22
ENDBRANCH   1  15
TORSDOF 4
