REMARK  Name = ZINC12181415
REMARK  7 active torsions:
REMARK  status: ('A' for Active; 'I' for Inactive)
REMARK    1  A    between atoms: C_1  and  C_2
REMARK    2  A    between atoms: C_5  and  C_28
REMARK    3  A    between atoms: C_10  and  C_12
REMARK    4  A    between atoms: C_12  and  C_14
REMARK    5  A    between atoms: C_12  and  N_15
REMARK    6  A    between atoms: C_18  and  N_27
REMARK    7  A    between atoms: C_20  and  C_22
REMARK                            x       y       z     vdW  Elec       q    Type
REMARK                         _______ _______ _______ _____ _____    ______ ____
ROOT
ATOM      1  N   UNL     1       5.564  -0.326  -0.149  0.00  0.00    -0.216 N 
ATOM      2  C   UNL     1       6.085   0.917  -0.140  0.00  0.00    +0.289 A 
ATOM      3  O   UNL     1       7.292   1.077  -0.062  0.00  0.00    -0.264 OA
ATOM      4  C   UNL     1       5.220   2.039  -0.224  0.00  0.00    +0.094 A 
ATOM      5  C   UNL     1       3.874   1.836  -0.317  0.00  0.00    +0.061 A 
ATOM      6  C   UNL     1       3.365   0.519  -0.318  0.00  0.00    +0.128 A 
ATOM      7  N   UNL     1       4.180  -0.512  -0.240  0.00  0.00    -0.164 NA
ENDROOT
BRANCH   6   8
ATOM      8  C   UNL     1       1.907   0.296  -0.414  0.00  0.00    +0.155 A 
ATOM      9  C   UNL     1       1.285  -0.913  -0.432  0.00  0.00    +0.051 A 
ATOM     10  C   UNL     1      -0.097  -0.656  -0.532  0.00  0.00    +0.042 A 
ATOM     11  C   UNL     1      -0.248   0.682  -0.570  0.00  0.00    +0.196 A 
ATOM     12  O   UNL     1       0.965   1.254  -0.499  0.00  0.00    -0.461 OA
ENDBRANCH   6   8
BRANCH   4  13
ATOM     13  N   UNL     1       5.739   3.333  -0.215  0.00  0.00    -0.354 N 
ATOM     14  H   UNL     1       6.697   3.470  -0.153  0.00  0.00    +0.142 HD
ATOM     15  H   UNL     1       5.143   4.096  -0.273  0.00  0.00    +0.142 HD
ENDBRANCH   4  13
BRANCH   1  16
ATOM     16  C   UNL     1       6.452  -1.488  -0.064  0.00  0.00    +0.194 C 
ATOM     17  C   UNL     1       6.274  -2.358  -1.310  0.00  0.00    +0.043 C 
BRANCH  16  25
ATOM     18  C   UNL     1      10.766  -3.454   1.594  0.00  0.00    +0.009 C 
ATOM     19  C   UNL     1       9.373  -3.186   2.168  0.00  0.00    +0.004 C 
ATOM     20  C   UNL     1       9.072  -4.201   3.273  0.00  0.00    +0.009 C 
ATOM     21  C   UNL     1       7.693  -3.914   3.870  0.00  0.00    +0.004 C 
ATOM     22  C   UNL     1       6.628  -4.058   2.778  0.00  0.00    +0.111 C 
ATOM     23  N   UNL     1       6.989  -3.191   1.648  0.00  0.00    -0.299 N 
ATOM     24  C   UNL     1       8.325  -3.326   1.053  0.00  0.00    +0.111 C 
ATOM     25  C   UNL     1       6.109  -2.293   1.164  0.00  0.00    +0.240 C 
ATOM     26  O   UNL     1       5.040  -2.132   1.715  0.00  0.00    -0.273 OA
ATOM     27  C   UNL     1       7.664  -2.489   4.427  0.00  0.00    +0.009 C 
ENDBRANCH  16  25
ENDBRANCH   1  16
TORSDOF 4
