REMARK  Name = ZINC15370040
REMARK  6 active torsions:
REMARK  status: ('A' for Active; 'I' for Inactive)
REMARK    1  A    between atoms: C_1  and  C_2
REMARK    2  A    between atoms: C_15  and  C_17
REMARK    3  A    between atoms: C_17  and  N_51
REMARK    4  A    between atoms: C_18  and  N_51
REMARK    5  A    between atoms: C_19  and  C_20
REMARK    6  A    between atoms: C_19  and  N_51
REMARK                            x       y       z     vdW  Elec       q    Type
REMARK                         _______ _______ _______ _____ _____    ______ ____
ROOT
ATOM      1  C   UNL     1       1.715  -4.863  -2.298  0.00  0.00    +0.029 C 
ATOM      2  C   UNL     1       0.385  -4.143  -2.530  0.00  0.00    +0.087 C 
ATOM      3  C   UNL     1      -0.160  -4.518  -3.910  0.00  0.00    +0.118 C 
ATOM      4  C   UNL     1      -1.233  -3.547  -4.325  0.00  0.00    +0.219 C 
ATOM      5  O   UNL     1      -2.398  -3.882  -4.281  0.00  0.00    -0.275 OA
ATOM      6  N   UNL     1      -0.908  -2.305  -4.747  0.00  0.00    -0.284 N 
ATOM      7  C   UNL     1       0.422  -1.870  -4.721  0.00  0.00    +0.055 A 
ATOM      8  C   UNL     1       0.996  -1.269  -5.829  0.00  0.00    +0.025 A 
ATOM      9  C   UNL     1       2.303  -0.820  -5.767  0.00  0.00    +0.002 A 
ATOM     10  C   UNL     1       3.036  -0.968  -4.604  0.00  0.00    +0.002 A 
ATOM     11  C   UNL     1       2.473  -1.579  -3.498  0.00  0.00    +0.025 A 
ATOM     12  C   UNL     1       1.164  -2.044  -3.557  0.00  0.00    +0.058 A 
ATOM     13  N   UNL     1       0.595  -2.697  -2.456  0.00  0.00    -0.268 N 
ATOM     14  C   UNL     1       0.243  -2.006  -1.354  0.00  0.00    +0.204 C 
ATOM     15  O   UNL     1      -0.254  -2.583  -0.409  0.00  0.00    -0.277 OA
ATOM     16  H   UNL     1      -1.603  -1.709  -5.070  0.00  0.00    +0.155 HD
ENDROOT
BRANCH  14  17
ATOM     17  C   UNL     1       0.466  -0.517  -1.294  0.00  0.00    +0.019 C 
BRANCH  17  19
ATOM     18  C   UNL     1       0.827  -0.525   1.100  0.00  0.00    -0.095 C 
ATOM     19  N   UNL     1      -0.025  -0.013   0.006  0.00  0.00    +0.386 N 
ATOM     20  H   UNL     1      -0.987  -0.343   0.150  0.00  0.00    -0.081 HD
BRANCH  19  21
ATOM     21  C   UNL     1      -0.018   1.465   0.010  0.00  0.00    -0.043 C 
BRANCH  21  22
ATOM     22  C   UNL     1      -0.723   1.951   1.250  0.00  0.00    -0.060 A 
ATOM     23  C   UNL     1      -2.088   2.168   1.227  0.00  0.00    +0.005 A 
ATOM     24  C   UNL     1      -2.741   2.608   2.363  0.00  0.00    +0.050 A 
ATOM     25  C   UNL     1      -2.025   2.845   3.526  0.00  0.00    +0.166 A 
ATOM     26  C   UNL     1      -0.649   2.631   3.547  0.00  0.00    +0.166 A 
ATOM     27  C   UNL     1      -0.003   2.184   2.407  0.00  0.00    +0.051 A 
ATOM     28  O   UNL     1      -0.181   2.933   4.794  0.00  0.00    -0.453 OA
ATOM     29  C   UNL     1      -1.215   3.720   5.413  0.00  0.00    +0.466 C 
ATOM     30  O   UNL     1      -2.419   3.280   4.758  0.00  0.00    -0.453 OA
ENDBRANCH  21  22
ENDBRANCH  19  21
ENDBRANCH  17  19
ENDBRANCH  14  17
TORSDOF 4
