REMARK  Name = ZINC20545004
REMARK  7 active torsions:
REMARK  status: ('A' for Active; 'I' for Inactive)
REMARK    1  A    between atoms: C_1  and  C_2
REMARK    2  A    between atoms: C_4  and  N_22
REMARK    3  A    between atoms: C_6  and  S_9
REMARK    4  A    between atoms: C_7  and  C_8
REMARK    5  A    between atoms: S_9  and  N_12
REMARK    6  A    between atoms: C_14  and  C_21
REMARK    7  A    between atoms: C_17  and  C_20
REMARK                            x       y       z     vdW  Elec       q    Type
REMARK                         _______ _______ _______ _____ _____    ______ ____
ROOT
ATOM      1  C   UNL     1      -2.075   5.088   3.109  0.00  0.00    +0.044 C 
ATOM      2  C   UNL     1      -1.849   3.625   2.825  0.00  0.00    -0.044 A 
ATOM      3  C   UNL     1      -2.355   2.669   3.684  0.00  0.00    +0.026 A 
ATOM      4  C   UNL     1      -2.147   1.322   3.421  0.00  0.00    +0.027 A 
ATOM      5  C   UNL     1      -1.430   0.940   2.294  0.00  0.00    +0.051 A 
ATOM      6  C   UNL     1      -0.927   1.900   1.439  0.00  0.00    +0.110 A 
ATOM      7  C   UNL     1      -1.131   3.242   1.707  0.00  0.00    -0.021 A 
ATOM      8  C   UNL     1      -0.575   4.287   0.775  0.00  0.00    +0.046 C 
ENDROOT
BRANCH   6   9
ATOM      9  S   UNL     1      -0.017   1.417   0.010  0.00  0.00    +0.061 S 
ATOM     10  O   UNL     1       0.002  -0.004   0.002  0.00  0.00    -0.153 OA
ATOM     11  O   UNL     1       1.172   2.195   0.003  0.00  0.00    -0.153 OA
BRANCH   9  12
ATOM     12  N   UNL     1      -0.897   1.885  -1.312  0.00  0.00    -0.176 NA
ATOM     13  C   UNL     1      -1.885   0.979  -1.914  0.00  0.00    +0.112 C 
ATOM     14  C   UNL     1      -1.586   0.837  -3.405  0.00  0.00    +0.002 C 
ATOM     15  C   UNL     1      -1.533   2.225  -4.047  0.00  0.00    +0.009 C 
ATOM     16  C   UNL     1      -0.412   3.044  -3.404  0.00  0.00    +0.002 C 
ATOM     17  C   UNL     1      -0.702   3.213  -1.909  0.00  0.00    +0.112 C 
ATOM     18  C   UNL     1      -0.339   4.420  -4.069  0.00  0.00    +0.009 C 
ATOM     19  C   UNL     1      -2.685   0.007  -4.072  0.00  0.00    +0.009 C 
ENDBRANCH   9  12
ENDBRANCH   6   9
BRANCH   4  20
ATOM     20  N   UNL     1      -2.658   0.352   4.288  0.00  0.00    -0.358 N 
ATOM     21  H   UNL     1      -2.492  -0.715   4.078  0.00  0.00    +0.142 HD
ATOM     22  H   UNL     1      -3.225   0.656   5.179  0.00  0.00    +0.142 HD
ENDBRANCH   4  20
TORSDOF 3
