REMARK  Name = ZINC12345463
REMARK  8 active torsions:
REMARK  status: ('A' for Active; 'I' for Inactive)
REMARK    1  A    between atoms: C_1  and  O_2
REMARK    2  A    between atoms: O_2  and  C_3
REMARK    3  A    between atoms: C_3  and  C_4
REMARK    4  A    between atoms: C_4  and  N_5
REMARK    5  A    between atoms: N_14  and  C_15
REMARK    6  A    between atoms: C_15  and  C_17
REMARK    7  A    between atoms: N_22  and  S_23
REMARK    8  A    between atoms: S_23  and  C_26
REMARK                            x       y       z     vdW  Elec       q    Type
REMARK                         _______ _______ _______ _____ _____    ______ ____
ROOT
ATOM      1  C   UNL     1       2.876   3.195  -2.674  0.00  0.00    +0.257 C 
ATOM      2  O   UNL     1       2.643   2.827  -3.809  0.00  0.00    -0.272 OA
ENDROOT
BRANCH   1  12
ATOM      3  N   UNL     1       2.545   0.006  -1.034  0.00  0.00    -0.317 N 
ATOM      4  C   UNL     1       2.244  -1.270  -1.475  0.00  0.00    +0.093 A 
ATOM      5  C   UNL     1       2.136  -2.451  -0.720  0.00  0.00    +0.148 A 
ATOM      6  C   UNL     1       1.825  -3.647  -1.327  0.00  0.00    +0.040 A 
ATOM      7  C   UNL     1       1.609  -3.724  -2.693  0.00  0.00    +0.004 A 
ATOM      8  C   UNL     1       1.710  -2.577  -3.459  0.00  0.00    +0.017 A 
ATOM      9  C   UNL     1       2.021  -1.381  -2.854  0.00  0.00    +0.042 A 
ATOM     10  S   UNL     1       2.243   0.281  -3.437  0.00  0.00    -0.052 S 
ATOM     11  C   UNL     1       2.600   1.037  -1.918  0.00  0.00    +0.167 A 
ATOM     12  N   UNL     1       2.866   2.319  -1.675  0.00  0.00    -0.155 NA
ATOM     13  F   UNL     1       2.339  -2.412   0.615  0.00  0.00    -0.203 F 
BRANCH   3  14
ATOM     14  C   UNL     1       2.798   0.247   0.388  0.00  0.00    +0.152 C 
BRANCH  14  15
ATOM     15  C   UNL     1       4.290   0.072   0.677  0.00  0.00    +0.181 C 
BRANCH  15  17
ATOM     16  C   UNL     1       5.909   0.168   2.443  0.00  0.00    +0.194 C 
ATOM     17  O   UNL     1       4.538   0.307   2.065  0.00  0.00    -0.381 OA
ENDBRANCH  15  17
ENDBRANCH  14  15
ENDBRANCH   3  14
ENDBRANCH   1  12
BRANCH   1  18
ATOM     18  C   UNL     1       3.177   4.646  -2.399  0.00  0.00    +0.167 C 
ATOM     19  C   UNL     1       1.866   5.470  -2.354  0.00  0.00    +0.031 C 
ATOM     20  C   UNL     1       2.379   6.892  -2.702  0.00  0.00    +0.019 C 
ATOM     21  C   UNL     1       3.505   6.614  -3.721  0.00  0.00    +0.110 C 
ATOM     22  N   UNL     1       3.951   5.229  -3.511  0.00  0.00    -0.165 NA
BRANCH  22  23
ATOM     23  S   UNL     1       5.128   4.452  -4.379  0.00  0.00    +0.062 S 
ATOM     24  O   UNL     1       4.968   3.063  -4.127  0.00  0.00    -0.153 OA
ATOM     25  O   UNL     1       5.091   4.997  -5.691  0.00  0.00    -0.153 OA
BRANCH  23  26
ATOM     26  C   UNL     1       6.679   4.916  -3.684  0.00  0.00    +0.106 A 
ATOM     27  C   UNL     1       7.400   5.957  -4.237  0.00  0.00    +0.031 A 
ATOM     28  C   UNL     1       8.614   6.325  -3.689  0.00  0.00    +0.040 A 
ATOM     29  C   UNL     1       9.114   5.643  -2.593  0.00  0.00    +0.124 A 
ATOM     30  C   UNL     1       8.394   4.596  -2.044  0.00  0.00    +0.040 A 
ATOM     31  C   UNL     1       7.177   4.234  -2.589  0.00  0.00    +0.031 A 
ATOM     32  F   UNL     1      10.304   5.997  -2.061  0.00  0.00    -0.205 F 
ENDBRANCH  23  26
ENDBRANCH  22  23
ENDBRANCH   1  18
TORSDOF 7
