REMARK  Name = ZINC65305783
REMARK  8 active torsions:
REMARK  status: ('A' for Active; 'I' for Inactive)
REMARK    1  A    between atoms: C_1  and  C_2
REMARK    2  A    between atoms: C_2  and  C_3
REMARK    3  A    between atoms: C_2  and  C_4
REMARK    4  A    between atoms: C_4  and  C_6
REMARK    5  A    between atoms: C_4  and  N_18
REMARK    6  A    between atoms: N_8  and  C_9
REMARK    7  A    between atoms: C_19  and  C_21
REMARK    8  A    between atoms: C_21  and  C_22
REMARK                            x       y       z     vdW  Elec       q    Type
REMARK                         _______ _______ _______ _____ _____    ______ ____
ROOT
ATOM      1  C   UNL     1      -1.427  -0.588  -0.160  0.00  0.00    +0.161 C 
ENDROOT
BRANCH   1   2
ATOM      2  C   UNL     1      -2.347   0.043   0.853  0.00  0.00    +0.236 C 
ATOM      3  O   UNL     1      -3.362   0.598   0.488  0.00  0.00    -0.274 OA
ATOM      4  N   UNL     1      -2.042  -0.010   2.165  0.00  0.00    -0.277 N 
ATOM      5  H   UNL     1      -1.267  -0.511   2.463  0.00  0.00    +0.152 HD
BRANCH   4   6
ATOM      6  C   UNL     1      -2.882   0.689   3.141  0.00  0.00    +0.269 C 
ATOM      7  N   UNL     1      -4.104  -0.083   3.399  0.00  0.00    -0.348 N 
ATOM      8  C   UNL     1      -4.114  -0.387   4.664  0.00  0.00    +0.061 A 
ATOM      9  C   UNL     1      -5.060  -1.135   5.505  0.00  0.00    +0.027 A 
ATOM     10  C   UNL     1      -4.801  -1.294   6.818  0.00  0.00    +0.002 A 
ATOM     11  C   UNL     1      -3.649  -0.770   7.432  0.00  0.00    +0.002 A 
ATOM     12  C   UNL     1      -2.719  -0.068   6.754  0.00  0.00    +0.027 A 
ATOM     13  C   UNL     1      -2.896   0.168   5.315  0.00  0.00    +0.061 A 
ATOM     14  N   UNL     1      -2.180   0.795   4.426  0.00  0.00    -0.348 N 
ATOM     15  H   UNL     1      -4.780  -0.322   2.746  0.00  0.00    +0.163 HD
ATOM     16  H   UNL     1      -1.337   1.248   4.584  0.00  0.00    +0.163 HD
ENDBRANCH   4   6
ENDBRANCH   1   2
BRANCH   1  17
ATOM     17  N   UNL     1      -2.184  -0.910  -1.373  0.00  0.00    -0.303 N 
ATOM     18  C   UNL     1      -1.758  -1.892  -2.192  0.00  0.00    +0.218 C 
ATOM     19  O   UNL     1      -0.748  -2.508  -1.925  0.00  0.00    -0.275 OA
ATOM     20  H   UNL     1      -2.991  -0.417  -1.586  0.00  0.00    +0.149 HD
BRANCH  18  21
ATOM     21  C   UNL     1      -2.536  -2.223  -3.439  0.00  0.00    +0.132 C 
BRANCH  21  22
ATOM     22  C   UNL     1      -1.853  -3.348  -4.173  0.00  0.00    -0.020 A 
ATOM     23  C   UNL     1      -0.963  -3.068  -5.194  0.00  0.00    +0.005 A 
ATOM     24  C   UNL     1      -0.337  -4.100  -5.867  0.00  0.00    +0.000 A 
ATOM     25  C   UNL     1      -0.599  -5.412  -5.521  0.00  0.00    +0.001 A 
ATOM     26  C   UNL     1      -1.489  -5.693  -4.501  0.00  0.00    +0.020 A 
ATOM     27  C   UNL     1      -2.112  -4.661  -3.823  0.00  0.00    +0.045 A 
ATOM     28 CL   UNL     1      -3.224  -5.013  -2.537  0.00  0.00    -0.083 Cl
ENDBRANCH  21  22
ENDBRANCH  18  21
ENDBRANCH   1  17
BRANCH   1  30
ATOM     29  C   UNL     1       0.706  -0.299  -1.429  0.00  0.00    +0.009 C 
ATOM     30  C   UNL     1      -0.302   0.389  -0.505  0.00  0.00    +0.012 C 
ATOM     31  C   UNL     1      -0.888   1.613  -1.212  0.00  0.00    +0.009 C 
ENDBRANCH   1  30
TORSDOF 6
