REMARK  Name = ZINC40013777
REMARK  8 active torsions:
REMARK  status: ('A' for Active; 'I' for Inactive)
REMARK    1  A    between atoms: C_7  and  C_10
REMARK    2  A    between atoms: C_10  and  C_12
REMARK    3  A    between atoms: C_12  and  S_13
REMARK    4  A    between atoms: S_13  and  C_14
REMARK    5  A    between atoms: C_18  and  S_20
REMARK    6  A    between atoms: S_20  and  C_21
REMARK    7  A    between atoms: C_21  and  C_22
REMARK    8  A    between atoms: C_22  and  C_24
REMARK                            x       y       z     vdW  Elec       q    Type
REMARK                         _______ _______ _______ _____ _____    ______ ____
ROOT
ATOM      1  C   UNL     1       0.595  -7.344  -0.042  0.00  0.00    +0.211 C 
ATOM      2  N   UNL     1       1.536  -7.495   1.091  0.00  0.00    -0.244 N 
ATOM      3  N   UNL     1       2.854  -7.684   0.738  0.00  0.00    -0.172 NA
ATOM      4  C   UNL     1       3.262  -7.730  -0.493  0.00  0.00    +0.151 C 
ATOM      5  S   UNL     1       1.770  -7.502  -1.450  0.00  0.00    -0.063 S 
ATOM      6  H   UNL     1       1.246  -7.462   2.016  0.00  0.00    +0.170 HD
ENDROOT
BRANCH   1   7
ATOM      7  S   UNL     1      -0.202  -5.714  -0.026  0.00  0.00    -0.118 S 
BRANCH   7   8
ATOM      8  C   UNL     1       1.187  -4.547  -0.033  0.00  0.00    +0.151 C 
BRANCH   8   9
ATOM      9  C   UNL     1       0.657  -3.136  -0.021  0.00  0.00    +0.171 C 
ATOM     10  O   UNL     1      -0.541  -2.938  -0.009  0.00  0.00    -0.291 OA
BRANCH   9  17
ATOM     11  C   UNL     1      -0.016   1.348   0.009  0.00  0.00    +0.001 A 
ATOM     12  C   UNL     1       1.158   2.117   0.002  0.00  0.00    +0.002 A 
ATOM     13  C   UNL     1       2.384   1.551  -0.012  0.00  0.00    +0.026 A 
ATOM     14  C   UNL     1       2.494   0.083  -0.021  0.00  0.00    +0.043 A 
ATOM     15  N   UNL     1       3.525  -0.712  -0.035  0.00  0.00    -0.380 N 
ATOM     16  C   UNL     1       3.065  -2.104  -0.039  0.00  0.00    +0.152 C 
ATOM     17  C   UNL     1       1.553  -2.046  -0.024  0.00  0.00    +0.024 C 
ATOM     18  C   UNL     1       1.234  -0.700  -0.013  0.00  0.00    +0.006 A 
ATOM     19  C   UNL     1       0.002  -0.004   0.002  0.00  0.00    +0.010 A 
ATOM     20  H   UNL     1       4.453  -0.428  -0.043  0.00  0.00    +0.160 HD
ENDBRANCH   9  17
ENDBRANCH   8   9
ENDBRANCH   7   8
ENDBRANCH   1   7
BRANCH   4  21
ATOM     21  S   UNL     1       4.905  -7.965  -1.084  0.00  0.00    -0.090 S 
BRANCH  21  22
ATOM     22  C   UNL     1       5.896  -8.128   0.427  0.00  0.00    +0.155 C 
BRANCH  22  23
ATOM     23  C   UNL     1       7.342  -8.337   0.060  0.00  0.00    +0.172 C 
ATOM     24  O   UNL     1       7.673  -8.372  -1.108  0.00  0.00    -0.291 OA
BRANCH  23  25
ATOM     25  C   UNL     1       8.312  -8.491   1.073  0.00  0.00    +0.024 C 
ATOM     26  C   UNL     1       9.672  -8.684   0.906  0.00  0.00    +0.006 A 
ATOM     27  C   UNL     1      10.496  -8.785  -0.239  0.00  0.00    +0.010 A 
ATOM     28  C   UNL     1      11.828  -8.978  -0.105  0.00  0.00    +0.001 A 
ATOM     29  C   UNL     1      12.451  -9.086   1.149  0.00  0.00    +0.002 A 
ATOM     30  C   UNL     1      11.755  -9.003   2.303  0.00  0.00    +0.026 A 
ATOM     31  C   UNL     1      10.299  -8.793   2.247  0.00  0.00    +0.043 A 
ATOM     32  N   UNL     1       9.400  -8.678   3.182  0.00  0.00    -0.380 N 
ATOM     33  C   UNL     1       8.084  -8.474   2.568  0.00  0.00    +0.152 C 
ATOM     34  H   UNL     1       9.575  -8.717   4.136  0.00  0.00    +0.160 HD
ENDBRANCH  23  25
ENDBRANCH  22  23
ENDBRANCH  21  22
ENDBRANCH   4  21
TORSDOF 8
