REMARK  Name = ZINC50389488
REMARK  6 active torsions:
REMARK  status: ('A' for Active; 'I' for Inactive)
REMARK    1  A    between atoms: C_1  and  C_2
REMARK    2  A    between atoms: C_2  and  C_4
REMARK    3  A    between atoms: C_2  and  N_9
REMARK    4  A    between atoms: C_4  and  C_5
REMARK    5  A    between atoms: N_6  and  O_7
REMARK    6  A    between atoms: N_12  and  C_13
REMARK                            x       y       z     vdW  Elec       q    Type
REMARK                         _______ _______ _______ _____ _____    ______ ____
ROOT
ATOM      1  N   UNL     1      -1.375  -0.506   0.012  0.00  0.00    -0.296 N 
ATOM      2  C   UNL     1      -2.028  -0.657   1.181  0.00  0.00    +0.304 C 
ATOM      3  O   UNL     1      -1.476  -0.374   2.227  0.00  0.00    -0.253 OA
ATOM      4  N   UNL     1      -3.293  -1.122   1.190  0.00  0.00    -0.269 N 
ATOM      5  H   UNL     1      -1.815  -0.731  -0.823  0.00  0.00    +0.151 HD
ATOM      6  H   UNL     1      -3.756  -1.284   0.354  0.00  0.00    +0.156 HD
ENDROOT
BRANCH   4   7
ATOM      7  C   UNL     1      -3.938  -1.371   2.408  0.00  0.00    +0.035 A 
ATOM      8  C   UNL     1      -4.820  -2.437   2.522  0.00  0.00    +0.025 A 
ATOM      9  C   UNL     1      -5.455  -2.680   3.724  0.00  0.00    +0.022 A 
ATOM     10  C   UNL     1      -5.213  -1.862   4.814  0.00  0.00    +0.041 A 
ATOM     11  C   UNL     1      -4.335  -0.799   4.702  0.00  0.00    +0.022 A 
ATOM     12  C   UNL     1      -3.693  -0.555   3.504  0.00  0.00    +0.025 A 
ATOM     13 CL   UNL     1      -6.013  -2.171   6.323  0.00  0.00    -0.084 Cl
ENDBRANCH   4   7
BRANCH   1  15
ATOM     14  C   UNL     1      -0.018   1.529   0.020  0.00  0.00    +0.028 C 
ATOM     15  C   UNL     1       0.001  -0.001   0.001  0.00  0.00    +0.078 C 
BRANCH  15  16
ATOM     16  C   UNL     1       0.713  -0.486  -1.263  0.00  0.00    +0.096 C 
BRANCH  16  17
ATOM     17  C   UNL     1       0.840  -1.987  -1.222  0.00  0.00    +0.133 C 
ATOM     18  N   UNL     1       0.375  -2.648  -0.214  0.00  0.00    -0.077 NA
ATOM     19  N   UNL     1       1.451  -2.655  -2.260  0.00  0.00    -0.344 N 
ATOM     20  H   UNL     1       1.800  -2.159  -3.017  0.00  0.00    +0.144 HD
ATOM     21  H   UNL     1       1.533  -3.621  -2.234  0.00  0.00    +0.144 HD
BRANCH  18  22
ATOM     22  O   UNL     1       0.495  -4.058  -0.176  0.00  0.00    -0.408 OA
ATOM     23  H   UNL     1       0.118  -4.464   0.617  0.00  0.00    +0.328 HD
ENDBRANCH  18  22
ENDBRANCH  16  17
ENDBRANCH  15  16
ENDBRANCH   1  15
TORSDOF 5
