REMARK  Name = ZINC29769984
REMARK  7 active torsions:
REMARK  status: ('A' for Active; 'I' for Inactive)
REMARK    1  A    between atoms: C_1  and  C_2
REMARK    2  A    between atoms: C_4  and  C_25
REMARK    3  A    between atoms: C_12  and  C_14
REMARK    4  A    between atoms: C_16  and  S_20
REMARK    5  A    between atoms: N_18  and  C_19
REMARK    6  A    between atoms: S_20  and  N_23
REMARK    7  A    between atoms: N_23  and  C_24
REMARK                            x       y       z     vdW  Elec       q    Type
REMARK                         _______ _______ _______ _____ _____    ______ ____
ROOT
ATOM      1  C   UNL     1      -0.194   1.500   0.008  0.00  0.00    +0.044 C 
ATOM      2  C   UNL     1      -0.149  -0.006   0.000  0.00  0.00    -0.049 A 
ATOM      3  C   UNL     1      -0.138  -0.700  -1.201  0.00  0.00    +0.009 A 
ATOM      4  C   UNL     1      -0.097  -2.069  -1.236  0.00  0.00    -0.024 A 
ATOM      5  C   UNL     1      -0.064  -2.822  -0.040  0.00  0.00    +0.083 A 
ATOM      6  C   UNL     1      -0.076  -2.082   1.164  0.00  0.00    +0.041 A 
ATOM      7  C   UNL     1      -0.111  -0.710   1.190  0.00  0.00    +0.020 A 
ATOM      8  S   UNL     1      -0.026  -3.361   2.396  0.00  0.00    -0.052 S 
ATOM      9  C   UNL     1       0.006  -4.752   1.274  0.00  0.00    +0.166 A 
ATOM     10  N   UNL     1      -0.022  -4.165   0.100  0.00  0.00    -0.224 NA
ATOM     11  N   UNL     1       0.050  -6.104   1.568  0.00  0.00    -0.259 N 
ATOM     12  C   UNL     1       0.073  -6.514   2.851  0.00  0.00    +0.266 C 
ATOM     13  O   UNL     1       0.154  -5.697   3.750  0.00  0.00    -0.268 OA
ATOM     14  C   UNL     1      -0.087  -2.781  -2.565  0.00  0.00    +0.046 C 
ATOM     15  H   UNL     1       0.064  -6.756   0.850  0.00  0.00    +0.157 HD
ENDROOT
BRANCH  12  16
ATOM     16  C   UNL     1       0.002  -7.944   3.166  0.00  0.00    +0.106 A 
ATOM     17  C   UNL     1       0.005  -8.980   2.255  0.00  0.00    +0.061 A 
ATOM     18  C   UNL     1      -0.077 -10.169   2.985  0.00  0.00    +0.123 A 
ATOM     19  C   UNL     1      -0.128  -9.847   4.300  0.00  0.00    +0.114 A 
ATOM     20  N   UNL     1      -0.074  -8.498   4.423  0.00  0.00    -0.344 N 
ATOM     21  C   UNL     1      -0.098  -7.753   5.685  0.00  0.00    +0.149 C 
BRANCH  18  22
ATOM     22  S   UNL     1      -0.110 -11.798   2.315  0.00  0.00    +0.060 S 
ATOM     23  O   UNL     1      -0.741 -12.624   3.284  0.00  0.00    -0.153 OA
ATOM     24  O   UNL     1      -0.593 -11.680   0.984  0.00  0.00    -0.153 OA
BRANCH  22  25
ATOM     25  N   UNL     1       1.460 -12.314   2.204  0.00  0.00    -0.193 NA
ATOM     26  C   UNL     1       2.254 -12.510   3.420  0.00  0.00    +0.127 C 
ATOM     27  H   UNL     1       1.854 -12.486   1.335  0.00  0.00    +0.148 HD
ENDBRANCH  22  25
ENDBRANCH  18  22
ENDBRANCH  12  16
TORSDOF 3
