REMARK  Name = ZINC39370793
REMARK  9 active torsions:
REMARK  status: ('A' for Active; 'I' for Inactive)
REMARK    1  A    between atoms: C_1  and  C_2
REMARK    2  A    between atoms: C_5  and  C_21
REMARK    3  A    between atoms: C_6  and  C_20
REMARK    4  A    between atoms: N_8  and  C_9
REMARK    5  A    between atoms: C_12  and  N_17
REMARK    6  A    between atoms: C_14  and  O_15
REMARK    7  A    between atoms: O_15  and  C_16
REMARK    8  A    between atoms: C_22  and  C_23
REMARK    9  A    between atoms: C_22  and  C_25
REMARK                            x       y       z     vdW  Elec       q    Type
REMARK                         _______ _______ _______ _____ _____    ______ ____
ROOT
ATOM      1  C   UNL     1      -0.071   1.606   0.083  0.00  0.00    +0.032 C 
ATOM      2  C   UNL     1      -0.050   0.079   0.004  0.00  0.00    +0.094 C 
ATOM      3  C   UNL     1      -1.455  -0.457   0.073  0.00  0.00    +0.000 C 
ATOM      4  C   UNL     1      -1.583  -1.246   1.135  0.00  0.00    -0.028 C 
ATOM      5  C   UNL     1      -0.275  -1.312   1.879  0.00  0.00    +0.101 C 
ATOM      6  N   UNL     1       0.687  -0.470   1.150  0.00  0.00    -0.314 N 
ATOM      7  C   UNL     1       0.225  -2.758   1.922  0.00  0.00    +0.033 C 
ENDROOT
BRANCH   6   8
ATOM      8  C   UNL     1       2.028  -0.239   1.479  0.00  0.00    +0.073 A 
ATOM      9  C   UNL     1       2.367   0.819   2.310  0.00  0.00    +0.029 A 
ATOM     10  C   UNL     1       3.692   1.045   2.634  0.00  0.00    +0.035 A 
ATOM     11  C   UNL     1       4.681   0.220   2.130  0.00  0.00    +0.130 A 
ATOM     12  C   UNL     1       4.350  -0.835   1.300  0.00  0.00    +0.080 A 
ATOM     13  C   UNL     1       3.025  -1.073   0.977  0.00  0.00    +0.143 A 
BRANCH  11  14
ATOM     14  N   UNL     1       6.098   0.468   2.480  0.00  0.00    +0.057 N 
ATOM     15  O   UNL     1       6.389   1.391   3.205  0.00  0.00    -0.126 OA
ATOM     16  O   UNL     1       6.963  -0.252   2.041  0.00  0.00    -0.126 OA
ENDBRANCH  11  14
BRANCH  13  17
ATOM     17  O   UNL     1       2.697  -2.115   0.166  0.00  0.00    -0.493 OA
ATOM     18  C   UNL     1       3.771  -2.928  -0.311  0.00  0.00    +0.277 C 
ENDBRANCH  13  17
ENDBRANCH   6   8
BRANCH   4  19
ATOM     19  C   UNL     1      -2.810  -1.943   1.524  0.00  0.00    +0.023 C 
ATOM     20  C   UNL     1      -3.514  -2.637   0.603  0.00  0.00    +0.072 C 
BRANCH  20  21
ATOM     21  C   UNL     1      -4.850  -3.231   0.966  0.00  0.00    +0.216 C 
ATOM     22  N   UNL     1      -4.840  -4.679   0.724  0.00  0.00    -0.359 N 
ATOM     23  C   UNL     1      -5.761  -4.934  -0.160  0.00  0.00    +0.060 A 
ATOM     24  C   UNL     1      -6.220  -6.177  -0.794  0.00  0.00    +0.027 A 
ATOM     25  C   UNL     1      -7.219  -6.133  -1.698  0.00  0.00    +0.002 A 
ATOM     26  C   UNL     1      -7.853  -4.934  -2.070  0.00  0.00    +0.002 A 
ATOM     27  C   UNL     1      -7.509  -3.739  -1.549  0.00  0.00    +0.027 A 
ATOM     28  C   UNL     1      -6.432  -3.665  -0.552  0.00  0.00    +0.060 A 
ATOM     29  N   UNL     1      -5.900  -2.675   0.104  0.00  0.00    -0.359 N 
ATOM     30  H   UNL     1      -4.255  -5.328   1.146  0.00  0.00    +0.162 HD
ATOM     31  H   UNL     1      -6.152  -1.740   0.037  0.00  0.00    +0.162 HD
ENDBRANCH  20  21
BRANCH  20  32
ATOM     32  C   UNL     1      -2.990  -2.808  -0.719  0.00  0.00    +0.099 C 
ATOM     33  N   UNL     1      -2.575  -2.943  -1.768  0.00  0.00    -0.191 NA
ENDBRANCH  20  32
ENDBRANCH   4  19
TORSDOF 6
