REMARK  Name = ZINC62937152
REMARK  5 active torsions:
REMARK  status: ('A' for Active; 'I' for Inactive)
REMARK    1  A    between atoms: C_1  and  C_2
REMARK    2  A    between atoms: C_2  and  C_3
REMARK    3  A    between atoms: C_3  and  C_19
REMARK    4  A    between atoms: N_6  and  C_8
REMARK    5  A    between atoms: C_8  and  C_9
REMARK                            x       y       z     vdW  Elec       q    Type
REMARK                         _______ _______ _______ _____ _____    ______ ____
ROOT
ATOM      1  C   UNL     1       0.718  -0.497  -1.257  0.00  0.00    +0.056 C 
ATOM      2  C   UNL     1       2.199  -0.066  -1.235  0.00  0.00    -0.002 C 
ATOM      3  C   UNL     1       3.002  -1.385  -1.252  0.00  0.00    -0.077 C 
ATOM      4  N   UNL     1       2.067  -2.398  -0.698  0.00  0.00    +0.384 N 
ATOM      5  C   UNL     1       0.750  -2.041  -1.285  0.00  0.00    -0.060 C 
ATOM      6  H   UNL     1       2.034  -2.335   0.308  0.00  0.00    -0.081 HD
ENDROOT
BRANCH   1   7
ATOM      7  C   UNL     1       0.034   0.035  -2.490  0.00  0.00    +0.360 C 
ATOM      8  O   UNL     1      -0.066   1.238  -2.660  0.00  0.00    -0.246 OA
ATOM      9  O   UNL     1      -0.420  -0.738  -3.317  0.00  0.00    -0.246 OA
ENDBRANCH   1   7
BRANCH   1  11
ATOM     10  C   UNL     1      -0.019   1.526   0.010  0.00  0.00    +0.005 C 
ATOM     11  C   UNL     1       0.002  -0.004   0.002  0.00  0.00    +0.013 C 
ENDBRANCH   1  11
BRANCH   4  12
ATOM     12  C   UNL     1       2.467  -3.749  -1.117  0.00  0.00    -0.022 C 
BRANCH  12  13
ATOM     13  C   UNL     1       3.789  -4.100  -0.485  0.00  0.00    +0.033 A 
ATOM     14  C   UNL     1       3.880  -5.130   0.426  0.00  0.00    +0.093 A 
ATOM     15  C   UNL     1       5.114  -5.440   1.000  0.00  0.00    +0.275 A 
ATOM     16  O   UNL     1       5.201  -6.352   1.808  0.00  0.00    -0.266 OA
ATOM     17  N   UNL     1       6.223  -4.722   0.656  0.00  0.00    -0.171 N 
ATOM     18  C   UNL     1       6.044  -3.718  -0.255  0.00  0.00    +0.199 A 
ATOM     19  N   UNL     1       4.891  -3.424  -0.802  0.00  0.00    -0.228 NA
ATOM     20  S   UNL     1       7.685  -3.052  -0.421  0.00  0.00    -0.036 S 
ATOM     21  C   UNL     1       8.500  -4.149   0.728  0.00  0.00    +0.182 A 
ATOM     22  N   UNL     1       7.520  -4.898   1.131  0.00  0.00    -0.163 NA
ENDBRANCH  12  13
ENDBRANCH   4  12
TORSDOF 4
