REMARK  Name = ZINC06443665
REMARK  9 active torsions:
REMARK  status: ('A' for Active; 'I' for Inactive)
REMARK    1  A    between atoms: C_1  and  C_2
REMARK    2  A    between atoms: C_12  and  C_14
REMARK    3  A    between atoms: C_14  and  C_16
REMARK    4  A    between atoms: C_14  and  N_71
REMARK    5  A    between atoms: N_20  and  C_21
REMARK    6  A    between atoms: C_27  and  C_28
REMARK    7  A    between atoms: C_27  and  N_71
REMARK    8  A    between atoms: C_33  and  C_34
REMARK    9  A    between atoms: C_33  and  N_71
REMARK                            x       y       z     vdW  Elec       q    Type
REMARK                         _______ _______ _______ _____ _____    ______ ____
ROOT
ATOM      1  C   UNL     1      -3.489   6.907  -0.302  0.00  0.00    +0.039 C 
ENDROOT
BRANCH   1  13
ATOM      2  C   UNL     1       3.019   7.792  -0.575  0.00  0.00    +0.046 C 
ATOM      3  C   UNL     1       2.184   6.537  -0.567  0.00  0.00    -0.026 A 
ATOM      4  C   UNL     1       2.793   5.301  -0.624  0.00  0.00    +0.005 A 
ATOM      5  C   UNL     1       2.035   4.138  -0.617  0.00  0.00    +0.001 A 
ATOM      6  C   UNL     1       0.672   4.197  -0.559  0.00  0.00    +0.010 A 
ATOM      7  C   UNL     1       0.033   5.439  -0.496  0.00  0.00    -0.001 A 
ATOM      8  C   UNL     1       0.798   6.621  -0.502  0.00  0.00    +0.052 A 
ATOM      9  N   UNL     1       0.163   7.844  -0.445  0.00  0.00    -0.322 N 
ATOM     10  H   UNL     1       0.691   8.658  -0.449  0.00  0.00    +0.169 HD
ATOM     11  C   UNL     1      -1.178   7.925  -0.382  0.00  0.00    +0.251 A 
ATOM     12  O   UNL     1      -1.705   9.022  -0.332  0.00  0.00    -0.268 OA
ATOM     13  C   UNL     1      -1.990   6.770  -0.373  0.00  0.00    +0.011 A 
ATOM     14  C   UNL     1      -1.426   5.538  -0.428  0.00  0.00    +0.017 A 
ENDBRANCH   1  13
BRANCH   1  15
ATOM     15  C   UNL     1      -3.872   7.570   0.996  0.00  0.00    +0.143 A 
ATOM     16  N   UNL     1      -3.473   8.742   1.424  0.00  0.00    -0.115 NA
ATOM     17  N   UNL     1      -4.019   8.954   2.572  0.00  0.00    -0.023 NA
ATOM     18  N   UNL     1      -4.750   7.944   2.890  0.00  0.00    -0.044 NA
ATOM     19  N   UNL     1      -4.685   7.069   1.944  0.00  0.00    -0.227 N 
BRANCH  19  20
ATOM     20  C   UNL     1      -5.369   5.774   1.909  0.00  0.00    +0.111 C 
ATOM     21  C   UNL     1      -6.882   5.997   1.858  0.00  0.00    +0.027 C 
ATOM     22  C   UNL     1      -7.596   4.644   1.821  0.00  0.00    +0.002 C 
ATOM     23  C   UNL     1      -7.240   3.845   3.076  0.00  0.00    +0.000 C 
ATOM     24  C   UNL     1      -5.728   3.622   3.127  0.00  0.00    +0.002 C 
ATOM     25  C   UNL     1      -5.013   4.974   3.164  0.00  0.00    +0.027 C 
ENDBRANCH  19  20
ENDBRANCH   1  15
BRANCH   1  26
ATOM     26  N   UNL     1      -3.944   7.751  -1.427  0.00  0.00    +0.396 N 
ATOM     27  H   UNL     1      -3.396   8.619  -1.437  0.00  0.00    -0.080 HD
BRANCH  26  28
ATOM     28  C   UNL     1      -3.740   7.040  -2.707  0.00  0.00    -0.002 C 
BRANCH  28  29
ATOM     29  C   UNL     1      -2.287   7.152  -3.094  0.00  0.00    +0.089 A 
ATOM     30  C   UNL     1      -1.434   6.124  -3.251  0.00  0.00    +0.042 A 
ATOM     31  C   UNL     1      -0.185   6.679  -3.613  0.00  0.00    +0.041 A 
ATOM     32  C   UNL     1      -0.350   8.014  -3.655  0.00  0.00    +0.195 A 
ATOM     33  O   UNL     1      -1.627   8.294  -3.346  0.00  0.00    -0.470 OA
ENDBRANCH  28  29
ENDBRANCH  26  28
BRANCH  26  34
ATOM     34  C   UNL     1      -5.373   8.088  -1.260  0.00  0.00    -0.045 C 
BRANCH  34  35
ATOM     35  C   UNL     1      -5.475   9.410  -0.496  0.00  0.00    +0.102 C 
ATOM     36  C   UNL     1      -6.954   9.832  -0.344  0.00  0.00    +0.032 C 
ATOM     37  C   UNL     1      -6.924  11.369  -0.497  0.00  0.00    +0.030 C 
ATOM     38  C   UNL     1      -5.431  11.694  -0.723  0.00  0.00    +0.160 C 
ATOM     39  O   UNL     1      -4.864  10.477  -1.254  0.00  0.00    -0.378 OA
ENDBRANCH  34  35
ENDBRANCH  26  34
ENDBRANCH   1  26
TORSDOF 8
