REMARK  Name = ZINC20738453
REMARK  4 active torsions:
REMARK  status: ('A' for Active; 'I' for Inactive)
REMARK    1  A    between atoms: C_3  and  O_19
REMARK    2  A    between atoms: C_6  and  C_7
REMARK    3  A    between atoms: O_19  and  C_20
REMARK    4  A    between atoms: C_20  and  C_21
REMARK                            x       y       z     vdW  Elec       q    Type
REMARK                         _______ _______ _______ _____ _____    ______ ____
ROOT
ATOM      1  C   UNL     1      -0.017   1.378   0.010  0.00  0.00    +0.008 A 
ATOM      2  C   UNL     1       1.169   2.087   0.002  0.00  0.00    +0.046 A 
ATOM      3  C   UNL     1       2.380   1.409  -0.013  0.00  0.00    +0.121 A 
ATOM      4  C   UNL     1       2.396   0.022  -0.021  0.00  0.00    +0.046 A 
ATOM      5  C   UNL     1       1.207  -0.681  -0.013  0.00  0.00    +0.008 A 
ATOM      6  C   UNL     1       0.002  -0.004   0.002  0.00  0.00    -0.039 A 
ENDROOT
BRANCH   6   7
ATOM      7  C   UNL     1      -1.293  -0.774   0.011  0.00  0.00    +0.063 C 
ATOM      8  C   UNL     1      -1.350  -1.674   1.248  0.00  0.00    +0.109 C 
ATOM      9  C   UNL     1      -0.468  -2.879   1.104  0.00  0.00    +0.219 C 
ATOM     10  O   UNL     1       0.134  -3.277   2.079  0.00  0.00    -0.275 OA
ATOM     11  N   UNL     1      -0.316  -3.540  -0.063  0.00  0.00    -0.269 N 
ATOM     12  C   UNL     1      -0.894  -2.980  -1.213  0.00  0.00    +0.150 A 
ATOM     13  C   UNL     1      -1.374  -1.647  -1.215  0.00  0.00    +0.020 A 
ATOM     14  C   UNL     1      -1.862  -1.384  -2.435  0.00  0.00    +0.111 A 
ATOM     15  N   UNL     1      -1.708  -2.498  -3.189  0.00  0.00    -0.283 N 
ATOM     16  H   UNL     1      -1.973  -2.598  -4.117  0.00  0.00    +0.188 HD
ATOM     17  N   UNL     1      -1.098  -3.484  -2.393  0.00  0.00    -0.158 NA
ATOM     18  H   UNL     1       0.177  -4.374  -0.106  0.00  0.00    +0.156 HD
ENDBRANCH   6   7
BRANCH   3  19
ATOM     19  O   UNL     1       3.548   2.104  -0.021  0.00  0.00    -0.483 OA
BRANCH  19  20
ATOM     20  C   UNL     1       4.756   1.341  -0.036  0.00  0.00    +0.324 C 
BRANCH  20  21
ATOM     21  C   UNL     1       5.940   2.274  -0.043  0.00  0.00    +0.248 C 
ATOM     22  O   UNL     1       5.766   3.474  -0.036  0.00  0.00    -0.272 OA
ATOM     23  N   UNL     1       7.192   1.774  -0.058  0.00  0.00    -0.327 N 
ATOM     24  H   UNL     1       7.331   0.814  -0.064  0.00  0.00    +0.145 HD
ATOM     25  H   UNL     1       7.953   2.375  -0.062  0.00  0.00    +0.145 HD
ENDBRANCH  20  21
ENDBRANCH  19  20
ENDBRANCH   3  19
TORSDOF 4
