REMARK  Name = ZINC40169333
REMARK  3 active torsions:
REMARK  status: ('A' for Active; 'I' for Inactive)
REMARK    1  A    between atoms: C_3  and  N_21
REMARK    2  A    between atoms: C_6  and  N_7
REMARK    3  A    between atoms: N_10  and  C_11
REMARK                            x       y       z     vdW  Elec       q    Type
REMARK                         _______ _______ _______ _____ _____    ______ ____
ROOT
ATOM      1  N   UNL     1      -1.199  -0.722   0.010  0.00  0.00    -0.269 N 
ATOM      2  C   UNL     1      -1.183  -2.065  -0.099  0.00  0.00    +0.304 C 
ATOM      3  O   UNL     1      -0.123  -2.661  -0.113  0.00  0.00    -0.252 OA
ATOM      4  N   UNL     1      -2.341  -2.748  -0.193  0.00  0.00    -0.293 N 
ATOM      5  H   UNL     1      -2.044  -0.253   0.099  0.00  0.00    +0.156 HD
ATOM      6  H   UNL     1      -3.186  -2.272  -0.182  0.00  0.00    +0.151 HD
ENDROOT
BRANCH   4   7
ATOM      7  C   UNL     1      -2.323  -4.208  -0.311  0.00  0.00    +0.115 C 
ATOM      8  C   UNL     1      -2.245  -4.838   1.107  0.00  0.00    +0.189 C 
ATOM      9  S   UNL     1      -2.867  -6.534   0.725  0.00  0.00    -0.028 S 
ATOM     10  O   UNL     1      -3.596  -7.027   1.841  0.00  0.00    -0.174 OA
ATOM     11  O   UNL     1      -1.808  -7.309   0.180  0.00  0.00    -0.174 OA
ATOM     12  C   UNL     1      -4.045  -6.086  -0.618  0.00  0.00    +0.187 C 
ATOM     13  C   UNL     1      -3.590  -4.673  -1.027  0.00  0.00    +0.123 C 
ATOM     14 CL   UNL     1      -4.919  -3.510  -0.663  0.00  0.00    -0.118 Cl
ENDBRANCH   4   7
BRANCH   1  20
ATOM     15  C   UNL     1       1.072  -0.453  -0.767  0.00  0.00    +0.025 A 
ATOM     16  C   UNL     1       2.256   0.259  -0.780  0.00  0.00    +0.034 A 
ATOM     17  C   UNL     1       2.376   1.417  -0.034  0.00  0.00    +0.126 A 
ATOM     18  C   UNL     1       1.312   1.867   0.726  0.00  0.00    +0.034 A 
ATOM     19  C   UNL     1       0.126   1.160   0.743  0.00  0.00    +0.025 A 
ATOM     20  C   UNL     1       0.002  -0.004  -0.005  0.00  0.00    +0.035 A 
BRANCH  17  21
ATOM     21  N   UNL     1       3.646   2.176  -0.050  0.00  0.00    +0.056 N 
ATOM     22  O   UNL     1       4.577   1.784  -0.714  0.00  0.00    -0.126 OA
ATOM     23  O   UNL     1       3.753   3.189   0.602  0.00  0.00    -0.126 OA
ENDBRANCH  17  21
ENDBRANCH   1  20
TORSDOF 3
