REMARK  Name = ZINC20722276
REMARK  10 active torsions:
REMARK  status: ('A' for Active; 'I' for Inactive)
REMARK    1  A    between atoms: C_1  and  O_2
REMARK    2  A    between atoms: O_2  and  C_3
REMARK    3  A    between atoms: C_3  and  C_5
REMARK    4  A    between atoms: C_5  and  C_6
REMARK    5  A    between atoms: C_6  and  C_7
REMARK    6  A    between atoms: C_7  and  C_9
REMARK    7  A    between atoms: C_7  and  N_13
REMARK    8  A    between atoms: C_9  and  O_11
REMARK    9  A    between atoms: O_11  and  C_12
REMARK   10  A    between atoms: C_25  and  C_27
REMARK                            x       y       z     vdW  Elec       q    Type
REMARK                         _______ _______ _______ _____ _____    ______ ____
ROOT
ATOM      1  N   UNL     1      -1.681  -6.747  -0.170  0.00  0.00    -0.286 N 
ATOM      2  C   UNL     1      -1.695  -5.921  -1.236  0.00  0.00    +0.304 C 
ATOM      3  O   UNL     1      -2.246  -4.840  -1.159  0.00  0.00    -0.253 OA
ATOM      4  N   UNL     1      -1.099  -6.295  -2.385  0.00  0.00    -0.273 N 
ATOM      5  C   UNL     1      -1.003  -5.364  -3.520  0.00  0.00    +0.116 C 
ATOM      6  C   UNL     1      -1.816  -5.921  -4.696  0.00  0.00    +0.074 C 
ATOM      7  C   UNL     1      -1.510  -7.388  -4.846  0.00  0.00    +0.040 A 
ATOM      8  C   UNL     1      -0.943  -8.160  -3.893  0.00  0.00    +0.062 A 
ATOM      9  N   UNL     1      -0.829  -9.399  -4.375  0.00  0.00    -0.348 N 
ATOM     10  C   UNL     1      -1.300  -9.429  -5.595  0.00  0.00    +0.171 A 
ATOM     11  N   UNL     1      -1.734  -8.190  -5.924  0.00  0.00    -0.349 N 
ATOM     12  H   UNL     1      -2.129  -7.923  -6.769  0.00  0.00    +0.166 HD
ATOM     13  C   UNL     1      -0.522  -7.643  -2.533  0.00  0.00    +0.159 C 
ATOM     14  H   UNL     1      -1.302  -7.636  -0.251  0.00  0.00    +0.151 HD
ATOM     15  H   UNL     1      -0.457 -10.156  -3.897  0.00  0.00    +0.167 HD
ENDROOT
BRANCH  13  16
ATOM     16  C   UNL     1       0.981  -7.569  -2.451  0.00  0.00    +0.015 A 
ATOM     17  C   UNL     1       1.740  -7.640  -3.603  0.00  0.00    +0.028 A 
ATOM     18  C   UNL     1       3.120  -7.573  -3.528  0.00  0.00    +0.041 A 
ATOM     19  C   UNL     1       3.740  -7.434  -2.299  0.00  0.00    +0.023 A 
ATOM     20  C   UNL     1       2.982  -7.363  -1.146  0.00  0.00    +0.040 A 
ATOM     21  C   UNL     1       1.601  -7.425  -1.222  0.00  0.00    +0.129 A 
ATOM     22  F   UNL     1       0.858  -7.350  -0.095  0.00  0.00    -0.205 F 
ATOM     23 CL   UNL     1       4.073  -7.662  -4.976  0.00  0.00    -0.084 Cl
ENDBRANCH  13  16
BRANCH   1  24
ATOM     24  C   UNL     1      -2.236  -6.301   1.110  0.00  0.00    +0.184 C 
BRANCH  24  25
ATOM     25  C   UNL     1      -1.188  -5.532   1.873  0.00  0.00    +0.327 C 
ATOM     26  O   UNL     1      -0.089  -5.374   1.396  0.00  0.00    -0.249 OA
BRANCH  25  27
ATOM     27  O   UNL     1      -1.475  -5.024   3.081  0.00  0.00    -0.467 OA
ATOM     28  C   UNL     1      -0.433  -4.308   3.748  0.00  0.00    +0.280 C 
ENDBRANCH  25  27
ENDBRANCH  24  25
BRANCH  24  29
ATOM     29  C   UNL     1      -2.673  -7.517   1.928  0.00  0.00    +0.045 C 
BRANCH  29  30
ATOM     30  C   UNL     1      -3.824  -8.227   1.212  0.00  0.00    +0.123 C 
BRANCH  30  31
ATOM     31  C   UNL     1      -4.254  -9.425   2.018  0.00  0.00    +0.307 C 
ATOM     32  O   UNL     1      -3.697  -9.685   3.058  0.00  0.00    -0.251 OA
BRANCH  31  34
ATOM     33  C   UNL     1      -5.611 -11.323   2.395  0.00  0.00    +0.280 C 
ATOM     34  O   UNL     1      -5.256 -10.204   1.580  0.00  0.00    -0.468 OA
ENDBRANCH  31  34
ENDBRANCH  30  31
ENDBRANCH  29  30
ENDBRANCH  24  29
ENDBRANCH   1  24
TORSDOF 8
