REMARK  Name = ZINC06452107
REMARK  5 active torsions:
REMARK  status: ('A' for Active; 'I' for Inactive)
REMARK    1  A    between atoms: C_3  and  C_10
REMARK    2  A    between atoms: C_5  and  N_7
REMARK    3  A    between atoms: C_11  and  C_12
REMARK    4  A    between atoms: N_14  and  N_15
REMARK    5  A    between atoms: C_16  and  C_18
REMARK                            x       y       z     vdW  Elec       q    Type
REMARK                         _______ _______ _______ _____ _____    ______ ____
ROOT
ATOM      1  C   UNL     1      -1.266   7.440   0.053  0.00  0.00    +0.253 C 
ATOM      2  O   UNL     1      -0.221   8.062   0.046  0.00  0.00    -0.269 OA
ATOM      3  N   UNL     1      -2.442   8.098   0.067  0.00  0.00    -0.231 N 
ATOM      4  H   UNL     1      -3.276   7.601   0.072  0.00  0.00    +0.173 HD
ENDROOT
BRANCH   3   5
ATOM      5  N   UNL     1      -2.462   9.498   0.075  0.00  0.00    -0.230 N 
ATOM      6  C   UNL     1      -3.638  10.156   0.089  0.00  0.00    +0.267 C 
ATOM      7  O   UNL     1      -4.683   9.534   0.095  0.00  0.00    -0.268 OA
ATOM      8  H   UNL     1      -1.628   9.995   0.070  0.00  0.00    +0.173 HD
BRANCH   6   9
ATOM      9  C   UNL     1      -3.658  11.622   0.097  0.00  0.00    +0.075 A 
ATOM     10  C   UNL     1      -4.745  12.481   0.106  0.00  0.00    +0.021 A 
ATOM     11  C   UNL     1      -4.479  13.828   0.117  0.00  0.00    +0.008 A 
ATOM     12  C   UNL     1      -3.187  14.248   0.107  0.00  0.00    +0.046 A 
ATOM     13  S   UNL     1      -2.288  12.765   0.090  0.00  0.00    -0.092 S 
ENDBRANCH   6   9
ENDBRANCH   3   5
BRANCH   1  15
ATOM     14  C   UNL     1      -0.070   5.317   0.030  0.00  0.00    +0.013 C 
ATOM     15  C   UNL     1      -1.246   5.976   0.045  0.00  0.00    +0.069 C 
BRANCH  14  18
ATOM     16  C   UNL     1      -1.222   1.748   0.017  0.00  0.00    +0.003 A 
ATOM     17  C   UNL     1      -1.249   3.127   0.030  0.00  0.00    +0.008 A 
ATOM     18  C   UNL     1      -0.050   3.846   0.022  0.00  0.00    -0.023 A 
ATOM     19  C   UNL     1       1.168   3.159   0.007  0.00  0.00    +0.040 A 
ATOM     20  C   UNL     1       1.179   1.781   0.000  0.00  0.00    +0.127 A 
ATOM     21  C   UNL     1      -0.013   1.076   0.008  0.00  0.00    +0.033 A 
BRANCH  20  22
ATOM     22  N   UNL     1       2.467   1.052  -0.016  0.00  0.00    +0.056 N 
ATOM     23  O   UNL     1       2.478  -0.166  -0.022  0.00  0.00    -0.126 OA
ATOM     24  O   UNL     1       3.517   1.671  -0.022  0.00  0.00    -0.126 OA
ENDBRANCH  20  22
ENDBRANCH  14  18
ENDBRANCH   1  15
TORSDOF 5
