REMARK  Name = ZINC01783787
REMARK  5 active torsions:
REMARK  status: ('A' for Active; 'I' for Inactive)
REMARK    1  A    between atoms: C_1  and  C_2
REMARK    2  A    between atoms: C_2  and  C_4
REMARK    3  A    between atoms: C_2  and  N_19
REMARK    4  A    between atoms: N_6  and  N_7
REMARK    5  A    between atoms: N_15  and  C_18
REMARK                            x       y       z     vdW  Elec       q    Type
REMARK                         _______ _______ _______ _____ _____    ______ ____
ROOT
ATOM      1  C   UNL     1      -0.019   1.526   0.010  0.00  0.00    +0.041 C 
ATOM      2  C   UNL     1       0.002  -0.004   0.002  0.00  0.00    +0.176 C 
ENDROOT
BRANCH   2   3
ATOM      3  N   UNL     1      -1.372  -0.511   0.012  0.00  0.00    -0.287 N 
ATOM      4  C   UNL     1      -2.209  -0.185  -1.006  0.00  0.00    +0.204 A 
ATOM      5  N   UNL     1      -3.442  -0.617  -1.033  0.00  0.00    -0.230 NA
ATOM      6  C   UNL     1      -3.916  -1.392  -0.062  0.00  0.00    +0.116 A 
ATOM      7  C   UNL     1      -3.126  -1.782   1.032  0.00  0.00    +0.076 A 
ATOM      8  C   UNL     1      -1.778  -1.295   1.028  0.00  0.00    +0.263 A 
ATOM      9  O   UNL     1      -1.013  -1.583   1.933  0.00  0.00    -0.267 OA
ATOM     10  C   UNL     1      -3.782  -2.634   2.023  0.00  0.00    -0.023 A 
ATOM     11  C   UNL     1      -5.071  -2.961   1.793  0.00  0.00    -0.004 A 
ATOM     12  S   UNL     1      -5.481  -2.163   0.264  0.00  0.00    -0.073 S 
ATOM     13  C   UNL     1      -5.958  -3.813   2.648  0.00  0.00    +0.043 C 
ATOM     14  C   UNL     1      -5.078  -4.574   3.651  0.00  0.00    +0.005 C 
ATOM     15  C   UNL     1      -4.101  -3.586   4.296  0.00  0.00    +0.005 C 
ATOM     16  C   UNL     1      -3.059  -3.141   3.268  0.00  0.00    +0.037 C 
ENDBRANCH   2   3
BRANCH   2  17
ATOM     17  C   UNL     1       0.707  -0.490  -1.238  0.00  0.00    +0.255 C 
ATOM     18  O   UNL     1       0.120  -1.191  -2.034  0.00  0.00    -0.272 OA
ATOM     19  N   UNL     1       1.991  -0.146  -1.462  0.00  0.00    -0.205 N 
ATOM     20  H   UNL     1       2.461   0.415  -0.825  0.00  0.00    +0.177 HD
BRANCH  19  21
ATOM     21  N   UNL     1       2.647  -0.598  -2.614  0.00  0.00    -0.174 NA
ATOM     22  C   UNL     1       3.895  -0.263  -2.832  0.00  0.00    +0.153 C 
ATOM     23  C   UNL     1       4.742  -0.638  -3.988  0.00  0.00    +0.028 A 
ATOM     24  C   UNL     1       4.514  -1.403  -5.127  0.00  0.00    +0.012 A 
ATOM     25  C   UNL     1       5.526  -1.577  -6.049  0.00  0.00    +0.001 A 
ATOM     26  C   UNL     1       6.763  -0.992  -5.840  0.00  0.00    +0.002 A 
ATOM     27  C   UNL     1       7.000  -0.231  -4.713  0.00  0.00    +0.024 A 
ATOM     28  C   UNL     1       5.992  -0.044  -3.773  0.00  0.00    +0.046 A 
ATOM     29  N   UNL     1       5.966   0.661  -2.575  0.00  0.00    -0.269 N 
ATOM     30  C   UNL     1       4.763   0.577  -1.981  0.00  0.00    +0.271 C 
ATOM     31  O   UNL     1       4.447   1.096  -0.927  0.00  0.00    -0.268 OA
ATOM     32  C   UNL     1       7.103   1.409  -2.032  0.00  0.00    +0.138 C 
ENDBRANCH  19  21
ENDBRANCH   2  17
TORSDOF 3
