REMARK  Name = ZINC24912261
REMARK  4 active torsions:
REMARK  status: ('A' for Active; 'I' for Inactive)
REMARK    1  A    between atoms: C_1  and  N_2
REMARK    2  A    between atoms: C_11  and  S_12
REMARK    3  A    between atoms: S_12  and  C_13
REMARK    4  A    between atoms: C_13  and  C_14
REMARK                            x       y       z     vdW  Elec       q    Type
REMARK                         _______ _______ _______ _____ _____    ______ ____
ROOT
ATOM      1  C   UNL     1      -1.956  -3.193   0.005  0.00  0.00    +0.154 C 
ATOM      2  N   UNL     1      -0.839  -2.246  -0.001  0.00  0.00    -0.290 N 
ATOM      3  C   UNL     1      -1.093  -0.924   0.008  0.00  0.00    +0.263 A 
ATOM      4  O   UNL     1      -2.242  -0.517   0.021  0.00  0.00    -0.267 OA
ATOM      5  C   UNL     1       0.002  -0.004   0.002  0.00  0.00    +0.072 A 
ATOM      6  C   UNL     1      -0.018   1.449   0.010  0.00  0.00    +0.023 A 
ATOM      7  C   UNL     1       1.144   2.119   0.003  0.00  0.00    +0.048 A 
ATOM      8  S   UNL     1       2.369   0.825  -0.016  0.00  0.00    -0.077 S 
ATOM      9  C   UNL     1       1.286  -0.580  -0.013  0.00  0.00    +0.116 A 
ATOM     10  N   UNL     1       1.468  -1.895  -0.022  0.00  0.00    -0.216 NA
ATOM     11  C   UNL     1       0.441  -2.720  -0.016  0.00  0.00    +0.173 A 
ENDROOT
BRANCH  11  12
ATOM     12  S   UNL     1       0.723  -4.460  -0.027  0.00  0.00    -0.078 S 
BRANCH  12  13
ATOM     13  C   UNL     1       2.533  -4.484  -0.044  0.00  0.00    +0.173 C 
BRANCH  13  14
ATOM     14  C   UNL     1       3.016  -5.912  -0.056  0.00  0.00    +0.233 C 
ATOM     15  O   UNL     1       2.215  -6.822  -0.052  0.00  0.00    -0.274 OA
ATOM     16  N   UNL     1       4.337  -6.176  -0.069  0.00  0.00    -0.224 N 
ATOM     17  C   UNL     1       4.938  -7.519  -0.081  0.00  0.00    +0.136 C 
ATOM     18  C   UNL     1       6.454  -7.245  -0.094  0.00  0.00    +0.125 C 
ATOM     19  N   UNL     1       6.547  -5.777  -0.088  0.00  0.00    -0.297 N 
ATOM     20  C   UNL     1       5.312  -5.258  -0.080  0.00  0.00    +0.309 C 
ATOM     21  O   UNL     1       5.096  -4.062  -0.078  0.00  0.00    -0.252 OA
ATOM     22  H   UNL     1       7.533  -5.288  -0.091  0.00  0.00    +0.150 HD
ENDBRANCH  13  14
ENDBRANCH  12  13
ENDBRANCH  11  12
TORSDOF 3
