REMARK  Name = ZINC50564961
REMARK  5 active torsions:
REMARK  status: ('A' for Active; 'I' for Inactive)
REMARK    1  A    between atoms: C_1  and  C_2
REMARK    2  A    between atoms: N_7  and  C_11
REMARK    3  A    between atoms: C_8  and  C_10
REMARK    4  A    between atoms: C_16  and  C_17
REMARK    5  A    between atoms: N_18  and  O_19
REMARK                            x       y       z     vdW  Elec       q    Type
REMARK                         _______ _______ _______ _____ _____    ______ ____
ROOT
ATOM      1  C   UNL     1       0.433  -2.788   2.194  0.00  0.00    +0.041 A 
ATOM      2  C   UNL     1      -0.899  -3.173   2.267  0.00  0.00    +0.024 A 
ATOM      3  C   UNL     1      -1.330  -3.979   3.302  0.00  0.00    +0.002 A 
ATOM      4  C   UNL     1      -0.440  -4.409   4.272  0.00  0.00    +0.001 A 
ATOM      5  C   UNL     1       0.886  -4.037   4.214  0.00  0.00    +0.013 A 
ATOM      6  C   UNL     1       1.337  -3.227   3.171  0.00  0.00    +0.039 A 
ENDROOT
BRANCH   1  12
ATOM      7  C   UNL     1       0.117   1.588   0.113  0.00  0.00    +0.009 C 
ATOM      8  C   UNL     1       0.060   0.059   0.074  0.00  0.00    +0.006 C 
ATOM      9  C   UNL     1       0.702  -0.443  -1.220  0.00  0.00    +0.006 C 
ATOM     10  C   UNL     1       0.616  -1.970  -1.276  0.00  0.00    +0.019 C 
ATOM     11  C   UNL     1       1.386  -2.564  -0.092  0.00  0.00    +0.105 C 
ATOM     12  N   UNL     1       0.870  -1.975   1.151  0.00  0.00    -0.326 N 
ATOM     13  C   UNL     1       0.823  -0.512   1.274  0.00  0.00    +0.073 C 
ATOM     14  C   UNL     1       0.104  -0.128   2.569  0.00  0.00    +0.028 C 
ENDBRANCH   1  12
BRANCH   6  15
ATOM     15  C   UNL     1       2.759  -2.829   3.100  0.00  0.00    +0.164 C 
ATOM     16  N   UNL     1       3.156  -1.992   2.186  0.00  0.00    -0.071 NA
ATOM     17  N   UNL     1       3.669  -3.349   4.005  0.00  0.00    -0.340 N 
ATOM     18  H   UNL     1       3.374  -3.973   4.686  0.00  0.00    +0.144 HD
ATOM     19  H   UNL     1       4.602  -3.088   3.958  0.00  0.00    +0.144 HD
BRANCH  16  20
ATOM     20  O   UNL     1       4.518  -1.611   2.118  0.00  0.00    -0.408 OA
ATOM     21  H   UNL     1       4.716  -0.986   1.407  0.00  0.00    +0.328 HD
ENDBRANCH  16  20
ENDBRANCH   6  15
TORSDOF 3
