REMARK  Name = ZINC32801536
REMARK  5 active torsions:
REMARK  status: ('A' for Active; 'I' for Inactive)
REMARK    1  A    between atoms: C_1  and  C_2
REMARK    2  A    between atoms: C_5  and  C_7
REMARK    3  A    between atoms: N_9  and  C_10
REMARK    4  A    between atoms: C_14  and  C_16
REMARK    5  A    between atoms: N_18  and  C_19
REMARK                            x       y       z     vdW  Elec       q    Type
REMARK                         _______ _______ _______ _____ _____    ______ ____
ROOT
ATOM      1  C   UNL     1       8.663   1.019  -0.242  0.00  0.00    +0.248 C 
ATOM      2  O   UNL     1       8.811   2.222  -0.145  0.00  0.00    -0.270 OA
ATOM      3  N   UNL     1       9.739   0.214  -0.345  0.00  0.00    -0.281 N 
ATOM      4  H   UNL     1       9.605  -0.865  -0.510  0.00  0.00    +0.155 HD
ENDROOT
BRANCH   3   5
ATOM      5  C   UNL     1      11.028   0.752  -0.244  0.00  0.00    +0.036 A 
ATOM      6  C   UNL     1      12.040   0.017   0.362  0.00  0.00    +0.025 A 
ATOM      7  C   UNL     1      13.313   0.540   0.465  0.00  0.00    +0.029 A 
ATOM      8  C   UNL     1      13.584   1.804  -0.038  0.00  0.00    +0.067 A 
ATOM      9  C   UNL     1      12.569   2.546  -0.647  0.00  0.00    +0.069 A 
ATOM     10  C   UNL     1      11.293   2.014  -0.753  0.00  0.00    +0.051 A 
ATOM     11  N   UNL     1      13.136   3.754  -1.045  0.00  0.00    -0.306 N 
ATOM     12  H   UNL     1      12.520   4.510  -1.554  0.00  0.00    +0.170 HD
ATOM     13  C   UNL     1      14.436   3.749  -0.694  0.00  0.00    +0.325 A 
ATOM     14  O   UNL     1      15.220   4.658  -0.897  0.00  0.00    -0.247 OA
ATOM     15  N   UNL     1      14.737   2.587  -0.085  0.00  0.00    -0.306 N 
ATOM     16  H   UNL     1      15.678   2.207   0.340  0.00  0.00    +0.170 HD
ENDBRANCH   3   5
BRANCH   1  21
ATOM     17  C   UNL     1       4.916   0.720  -0.143  0.00  0.00    +0.034 A 
ATOM     18  C   UNL     1       4.755  -0.657  -0.249  0.00  0.00    +0.023 A 
ATOM     19  C   UNL     1       5.860  -1.480  -0.360  0.00  0.00    +0.003 A 
ATOM     20  C   UNL     1       7.131  -0.941  -0.357  0.00  0.00    +0.013 A 
ATOM     21  C   UNL     1       7.303   0.440  -0.246  0.00  0.00    +0.039 A 
ATOM     22  C   UNL     1       6.188   1.271  -0.139  0.00  0.00    +0.036 A 
BRANCH  17  25
ATOM     23  C   UNL     1       3.801   2.770  -0.607  0.00  0.00    +0.221 C 
ATOM     24  O   UNL     1       4.808   3.184  -1.142  0.00  0.00    -0.275 OA
ATOM     25  N   UNL     1       3.794   1.549  -0.036  0.00  0.00    -0.285 N 
ATOM     26  H   UNL     1       2.906   1.205   0.514  0.00  0.00    +0.155 HD
BRANCH  23  30
ATOM     27  C   UNL     1       1.831   6.134  -0.607  0.00  0.00    +0.008 C 
ATOM     28  C   UNL     1       2.630   4.997  -1.247  0.00  0.00    -0.002 C 
ATOM     29  C   UNL     1       1.842   3.867  -1.911  0.00  0.00    +0.017 C 
ATOM     30  C   UNL     1       2.558   3.622  -0.582  0.00  0.00    +0.078 C 
ENDBRANCH  23  30
ENDBRANCH  17  25
ENDBRANCH   1  21
TORSDOF 4
