REMARK  Name = ZINC10416987
REMARK  11 active torsions:
REMARK  status: ('A' for Active; 'I' for Inactive)
REMARK    1  A    between atoms: C_1  and  C_2
REMARK    2  A    between atoms: C_2  and  C_4
REMARK    3  A    between atoms: C_2  and  O_20
REMARK    4  A    between atoms: N_6  and  C_7
REMARK    5  A    between atoms: C_10  and  S_13
REMARK    6  A    between atoms: S_13  and  N_16
REMARK    7  A    between atoms: N_16  and  C_17
REMARK    8  A    between atoms: C_17  and  C_18
REMARK    9  A    between atoms: C_17  and  C_19
REMARK   10  A    between atoms: O_20  and  C_21
REMARK   11  A    between atoms: C_21  and  C_23
REMARK                            x       y       z     vdW  Elec       q    Type
REMARK                         _______ _______ _______ _____ _____    ______ ____
ROOT
ATOM      1  C   UNL     1       0.708  -0.491  -1.237  0.00  0.00    +0.258 C 
ATOM      2  O   UNL     1       0.098  -1.123  -2.073  0.00  0.00    -0.271 OA
ATOM      3  N   UNL     1       2.018  -0.231  -1.413  0.00  0.00    -0.282 N 
ATOM      4  H   UNL     1       2.491   0.331  -0.778  0.00  0.00    +0.155 HD
ENDROOT
BRANCH   3   5
ATOM      5  C   UNL     1       2.698  -0.770  -2.511  0.00  0.00    +0.034 A 
ATOM      6  C   UNL     1       4.024  -1.163  -2.384  0.00  0.00    +0.025 A 
ATOM      7  C   UNL     1       4.692  -1.695  -3.470  0.00  0.00    +0.030 A 
ATOM      8  C   UNL     1       4.041  -1.836  -4.682  0.00  0.00    +0.105 A 
ATOM      9  C   UNL     1       2.721  -1.445  -4.811  0.00  0.00    +0.030 A 
ATOM     10  C   UNL     1       2.046  -0.918  -3.728  0.00  0.00    +0.025 A 
BRANCH   8  11
ATOM     11  S   UNL     1       4.897  -2.515  -6.064  0.00  0.00    +0.059 S 
ATOM     12  O   UNL     1       4.234  -2.037  -7.227  0.00  0.00    -0.153 OA
ATOM     13  O   UNL     1       6.282  -2.296  -5.833  0.00  0.00    -0.153 OA
BRANCH  11  14
ATOM     14  N   UNL     1       4.664  -4.154  -6.027  0.00  0.00    -0.187 NA
ATOM     15  H   UNL     1       5.418  -4.748  -5.884  0.00  0.00    +0.148 HD
BRANCH  14  16
ATOM     16  C   UNL     1       3.320  -4.708  -6.211  0.00  0.00    +0.070 C 
ATOM     17  C   UNL     1       3.413  -6.030  -6.975  0.00  0.00    +0.025 C 
ATOM     18  C   UNL     1       2.679  -4.954  -4.843  0.00  0.00    +0.025 C 
ENDBRANCH  14  16
ENDBRANCH  11  14
ENDBRANCH   8  11
ENDBRANCH   3   5
BRANCH   1  20
ATOM     19  C   UNL     1      -0.023   1.532  -0.004  0.00  0.00    +0.062 C 
ATOM     20  C   UNL     1       0.001   0.002  -0.001  0.00  0.00    +0.259 C 
BRANCH  20  21
ATOM     21  O   UNL     1      -1.339  -0.495   0.012  0.00  0.00    -0.450 OA
BRANCH  21  22
ATOM     22  C   UNL     1      -1.900  -0.705   1.213  0.00  0.00    +0.349 C 
ATOM     23  O   UNL     1      -1.274  -0.474   2.220  0.00  0.00    -0.247 OA
BRANCH  22  24
ATOM     24  C   UNL     1      -3.310  -1.229   1.305  0.00  0.00    +0.289 C 
ATOM     25  C   UNL     1      -4.277  -0.193   0.731  0.00  0.00    +0.092 C 
ATOM     26  C   UNL     1      -5.700  -0.587   1.029  0.00  0.00    -0.029 A 
ATOM     27  C   UNL     1      -6.733  -0.075   0.271  0.00  0.00    +0.004 A 
ATOM     28  C   UNL     1      -8.040  -0.435   0.546  0.00  0.00    +0.000 A 
ATOM     29  C   UNL     1      -8.324  -1.308   1.582  0.00  0.00    +0.001 A 
ATOM     30  C   UNL     1      -7.301  -1.828   2.349  0.00  0.00    +0.015 A 
ATOM     31  C   UNL     1      -5.983  -1.469   2.072  0.00  0.00    +0.062 A 
ATOM     32  C   UNL     1      -4.867  -2.021   2.876  0.00  0.00    +0.340 C 
ATOM     33  O   UNL     1      -5.043  -2.918   3.675  0.00  0.00    -0.245 OA
ATOM     34  O   UNL     1      -3.638  -1.478   2.679  0.00  0.00    -0.446 OA
ENDBRANCH  22  24
ENDBRANCH  21  22
ENDBRANCH  20  21
ENDBRANCH   1  20
TORSDOF 8
