REMARK  Name = ZINC17722877
REMARK  5 active torsions:
REMARK  status: ('A' for Active; 'I' for Inactive)
REMARK    1  A    between atoms: C_1  and  C_2
REMARK    2  A    between atoms: C_4  and  N_33
REMARK    3  A    between atoms: C_7  and  N_8
REMARK    4  A    between atoms: N_17  and  C_27
REMARK    5  A    between atoms: C_19  and  C_20
REMARK                            x       y       z     vdW  Elec       q    Type
REMARK                         _______ _______ _______ _____ _____    ______ ____
ROOT
ATOM      1  N   UNL     1      -0.360   0.496   2.209  0.00  0.00    -0.204 N 
ATOM      2  C   UNL     1      -1.379   0.777   3.040  0.00  0.00    +0.257 C 
ATOM      3  O   UNL     1      -2.550   0.531   2.814  0.00  0.00    -0.269 OA
ATOM      4  C   UNL     1      -0.903   1.391   4.199  0.00  0.00    +0.069 C 
ATOM      5  H   UNL     1       0.416   2.892   6.652  0.00  0.00    +0.170 HD
ATOM      6  C   UNL     1       0.582   0.996   4.221  0.00  0.00    +0.217 C 
ATOM      7  C   UNL     1       0.850   0.703   2.776  0.00  0.00    +0.253 C 
ATOM      8  O   UNL     1       1.931   0.663   2.228  0.00  0.00    -0.272 OA
ATOM      9  N   UNL     1       1.163   2.245   4.741  0.00  0.00    -0.237 N 
ATOM     10  N   UNL     1       0.218   2.534   5.772  0.00  0.00    -0.262 N 
ATOM     11  C   UNL     1      -1.035   2.208   5.277  0.00  0.00    +0.062 C 
ENDROOT
BRANCH   1  18
ATOM     12  C   UNL     1      -0.539   2.415   0.115  0.00  0.00    +0.046 C 
ATOM     13  C   UNL     1      -0.625   0.935  -0.153  0.00  0.00    -0.026 A 
ATOM     14  C   UNL     1      -0.791   0.474  -1.445  0.00  0.00    +0.038 A 
ATOM     15  C   UNL     1      -0.870  -0.884  -1.691  0.00  0.00    +0.127 A 
ATOM     16  C   UNL     1      -0.783  -1.785  -0.646  0.00  0.00    +0.034 A 
ATOM     17  C   UNL     1      -0.618  -1.331   0.648  0.00  0.00    +0.026 A 
ATOM     18  C   UNL     1      -0.533   0.032   0.898  0.00  0.00    +0.047 A 
BRANCH  15  19
ATOM     19  N   UNL     1      -1.048  -1.374  -3.076  0.00  0.00    +0.056 N 
ATOM     20  O   UNL     1      -1.124  -0.587  -3.991  0.00  0.00    -0.126 OA
ATOM     21  O   UNL     1      -1.117  -2.561  -3.293  0.00  0.00    -0.126 OA
ENDBRANCH  15  19
ENDBRANCH   1  18
BRANCH  11  22
ATOM     22  C   UNL     1      -2.319   2.678   5.836  0.00  0.00    -0.002 A 
ATOM     23  C   UNL     1      -3.525   2.279   5.255  0.00  0.00    +0.011 A 
ATOM     24  C   UNL     1      -4.720   2.721   5.782  0.00  0.00    +0.016 A 
ATOM     25  C   UNL     1      -4.726   3.559   6.885  0.00  0.00    +0.018 A 
ATOM     26  C   UNL     1      -3.534   3.958   7.465  0.00  0.00    +0.016 A 
ATOM     27  C   UNL     1      -2.332   3.519   6.952  0.00  0.00    +0.011 A 
ATOM     28 BR   UNL     1      -6.370   4.161   7.600  0.00  0.00    -0.050 Br
ENDBRANCH  11  22
BRANCH   9  29
ATOM     29  C   UNL     1       2.305   2.942   4.342  0.00  0.00    +0.049 A 
ATOM     30  C   UNL     1       2.249   4.317   4.148  0.00  0.00    +0.025 A 
ATOM     31  C   UNL     1       3.381   5.004   3.755  0.00  0.00    +0.002 A 
ATOM     32  C   UNL     1       4.568   4.325   3.553  0.00  0.00    +0.000 A 
ATOM     33  C   UNL     1       4.628   2.957   3.744  0.00  0.00    +0.002 A 
ATOM     34  C   UNL     1       3.501   2.264   4.144  0.00  0.00    +0.025 A 
ENDBRANCH   9  29
TORSDOF 4
