REMARK  Name = ZINC02283582
REMARK  11 active torsions:
REMARK  status: ('A' for Active; 'I' for Inactive)
REMARK    1  A    between atoms: C_1  and  C_2
REMARK    2  A    between atoms: C_8  and  N_16
REMARK    3  A    between atoms: C_9  and  C_12
REMARK    4  A    between atoms: C_12  and  O_14
REMARK    5  A    between atoms: O_14  and  C_15
REMARK    6  A    between atoms: C_17  and  C_19
REMARK    7  A    between atoms: C_19  and  C_20
REMARK    8  A    between atoms: C_20  and  N_65
REMARK    9  A    between atoms: N_23  and  C_26
REMARK   10  A    between atoms: C_30  and  C_33
REMARK   11  A    between atoms: C_31  and  C_32
REMARK                            x       y       z     vdW  Elec       q    Type
REMARK                         _______ _______ _______ _____ _____    ______ ____
ROOT
ATOM      1  N   UNL     1      -1.300  -0.713  -0.531  0.00  0.00    -0.283 N 
ATOM      2  C   UNL     1      -0.529   0.117   0.199  0.00  0.00    +0.215 C 
ATOM      3  O   UNL     1       0.160  -0.326   1.094  0.00  0.00    -0.276 OA
ATOM      4  H   UNL     1      -1.921  -0.350  -1.182  0.00  0.00    +0.155 HD
ENDROOT
BRANCH   1  12
ATOM      5  C   UNL     1       3.573  -3.375  -1.627  0.00  0.00    +0.044 C 
ATOM      6  C   UNL     1       2.174  -3.670  -1.151  0.00  0.00    -0.050 A 
ATOM      7  C   UNL     1       1.811  -4.975  -0.843  0.00  0.00    +0.005 A 
ATOM      8  C   UNL     1       0.541  -5.264  -0.398  0.00  0.00    +0.026 A 
ATOM      9  C   UNL     1      -0.398  -4.243  -0.269  0.00  0.00    +0.049 A 
ATOM     10  C   UNL     1      -0.027  -2.924  -0.588  0.00  0.00    +0.022 A 
ATOM     11  C   UNL     1       1.272  -2.652  -1.028  0.00  0.00    +0.015 A 
ATOM     12  C   UNL     1      -1.207  -2.089  -0.351  0.00  0.00    +0.073 A 
ATOM     13  C   UNL     1      -2.208  -2.934   0.079  0.00  0.00    +0.147 A 
ATOM     14  N   UNL     1      -1.715  -4.229   0.126  0.00  0.00    -0.348 N 
ATOM     15  H   UNL     1      -2.224  -5.010   0.398  0.00  0.00    +0.166 HD
BRANCH  13  16
ATOM     16  C   UNL     1      -3.529  -2.542   0.419  0.00  0.00    +0.357 C 
ATOM     17  O   UNL     1      -3.814  -1.361   0.484  0.00  0.00    -0.243 OA
BRANCH  16  18
ATOM     18  O   UNL     1      -4.467  -3.478   0.669  0.00  0.00    -0.463 OA
ATOM     19  C   UNL     1      -5.776  -3.012   1.005  0.00  0.00    +0.280 C 
ENDBRANCH  16  18
ENDBRANCH  13  16
ENDBRANCH   1  12
BRANCH   2  20
ATOM     20  C   UNL     1      -0.521   1.594  -0.096  0.00  0.00    +0.077 C 
BRANCH  20  21
ATOM     21  C   UNL     1       0.431   2.303   0.869  0.00  0.00    -0.069 C 
BRANCH  21  27
ATOM     22  C   UNL     1       1.022   4.013  -0.740  0.00  0.00    -0.060 C 
ATOM     23  C   UNL     1       0.939   5.512  -1.035  0.00  0.00    +0.086 C 
ATOM     24  N   UNL     1       1.652   6.255   0.013  0.00  0.00    -0.333 N 
ATOM     25  C   UNL     1       1.069   5.986   1.335  0.00  0.00    +0.086 C 
ATOM     26  C   UNL     1       1.152   4.486   1.630  0.00  0.00    -0.060 C 
ATOM     27  N   UNL     1       0.412   3.753   0.581  0.00  0.00    +0.382 N 
ATOM     28  H   UNL     1      -0.561   4.078   0.569  0.00  0.00    -0.082 HD
BRANCH  24  29
ATOM     29  C   UNL     1       1.659   7.625  -0.261  0.00  0.00    +0.033 A 
ATOM     30  C   UNL     1       0.465   8.334  -0.296  0.00  0.00    +0.023 A 
ATOM     31  C   UNL     1       0.475   9.688  -0.567  0.00  0.00    +0.002 A 
ATOM     32  C   UNL     1       1.673  10.338  -0.803  0.00  0.00    +0.004 A 
ATOM     33  C   UNL     1       2.863   9.636  -0.768  0.00  0.00    -0.046 A 
ATOM     34  C   UNL     1       2.860   8.282  -0.492  0.00  0.00    -0.027 A 
ATOM     35  C   UNL     1       4.159   7.518  -0.449  0.00  0.00    +0.046 C 
ATOM     36  C   UNL     1       4.166  10.348  -1.026  0.00  0.00    +0.044 C 
ENDBRANCH  24  29
ENDBRANCH  21  27
ENDBRANCH  20  21
ENDBRANCH   2  20
TORSDOF 7
