REMARK  Name = ZINC13124537
REMARK  7 active torsions:
REMARK  status: ('A' for Active; 'I' for Inactive)
REMARK    1  A    between atoms: C_1  and  O_2
REMARK    2  A    between atoms: O_2  and  C_3
REMARK    3  A    between atoms: C_3  and  C_5
REMARK    4  A    between atoms: C_10  and  N_11
REMARK    5  A    between atoms: C_12  and  C_14
REMARK    6  A    between atoms: C_19  and  C_28
REMARK    7  A    between atoms: C_22  and  C_25
REMARK                            x       y       z     vdW  Elec       q    Type
REMARK                         _______ _______ _______ _____ _____    ______ ____
ROOT
ATOM      1  C   UNL     1       2.749  -1.925  -5.575  0.00  0.00    +0.149 A 
ATOM      2  C   UNL     1       3.217  -2.474  -6.791  0.00  0.00    +0.078 A 
ATOM      3  C   UNL     1       3.720  -1.464  -7.527  0.00  0.00    +0.119 A 
ATOM      4  N   UNL     1       3.581  -0.307  -6.814  0.00  0.00    -0.242 N 
ATOM      5  N   UNL     1       2.968  -0.621  -5.602  0.00  0.00    -0.164 NA
ATOM      6  C   UNL     1       4.014   1.006  -7.301  0.00  0.00    +0.177 C 
ATOM      7  C   UNL     1       4.167   0.943  -8.825  0.00  0.00    +0.060 C 
ATOM      8  C   UNL     1       5.015  -0.273  -9.215  0.00  0.00    +0.140 C 
ATOM      9  N   UNL     1       4.302  -1.496  -8.797  0.00  0.00    -0.321 N 
ATOM     10  H   UNL     1       4.241  -2.276  -9.371  0.00  0.00    +0.148 HD
ENDROOT
BRANCH   1  12
ATOM     11  N   UNL     1       1.710  -2.027  -3.362  0.00  0.00    -0.279 N 
ATOM     12  C   UNL     1       2.119  -2.675  -4.470  0.00  0.00    +0.268 C 
ATOM     13  O   UNL     1       1.969  -3.878  -4.561  0.00  0.00    -0.268 OA
ATOM     14  H   UNL     1       1.759  -1.059  -3.321  0.00  0.00    +0.155 HD
BRANCH  11  20
ATOM     15  C   UNL     1       0.185  -2.215  -1.489  0.00  0.00    +0.080 A 
ATOM     16  C   UNL     1      -0.304  -2.949  -0.406  0.00  0.00    +0.017 A 
ATOM     17  C   UNL     1       0.232  -4.185  -0.115  0.00  0.00    +0.001 A 
ATOM     18  C   UNL     1       1.256  -4.704  -0.892  0.00  0.00    +0.002 A 
ATOM     19  C   UNL     1       1.750  -3.990  -1.964  0.00  0.00    +0.024 A 
ATOM     20  C   UNL     1       1.218  -2.745  -2.277  0.00  0.00    +0.048 A 
BRANCH  15  21
ATOM     21  C   UNL     1      -0.385  -0.893  -1.806  0.00  0.00    +0.341 C 
ATOM     22  O   UNL     1       0.099  -0.220  -2.695  0.00  0.00    -0.245 OA
BRANCH  21  24
ATOM     23  C   UNL     1      -1.942   0.859  -1.471  0.00  0.00    +0.280 C 
ATOM     24  O   UNL     1      -1.442  -0.430  -1.110  0.00  0.00    -0.464 OA
ENDBRANCH  21  24
ENDBRANCH  15  21
ENDBRANCH  11  20
ENDBRANCH   1  12
BRANCH   8  25
ATOM     25  C   UNL     1       5.225  -0.288 -10.730  0.00  0.00    +0.361 C 
ATOM     26  F   UNL     1       5.999  -1.399 -11.083  0.00  0.00    -0.207 F 
ATOM     27  F   UNL     1       3.985  -0.361 -11.373  0.00  0.00    -0.207 F 
ENDBRANCH   8  25
BRANCH   6  28
ATOM     28  C   UNL     1       2.969   2.060  -6.931  0.00  0.00    +0.365 C 
ATOM     29  F   UNL     1       2.823   2.105  -5.541  0.00  0.00    -0.207 F 
ATOM     30  F   UNL     1       3.385   3.312  -7.397  0.00  0.00    -0.207 F 
ENDBRANCH   6  28
TORSDOF 6
