REMARK  Name = ZINC02202305
REMARK  14 active torsions:
REMARK  status: ('A' for Active; 'I' for Inactive)
REMARK    1  A    between atoms: C_1  and  C_2
REMARK    2  A    between atoms: C_2  and  C_4
REMARK    3  A    between atoms: C_2  and  O_34
REMARK    4  A    between atoms: C_4  and  N_5
REMARK    5  A    between atoms: N_5  and  C_6
REMARK    6  A    between atoms: C_6  and  C_7
REMARK    7  A    between atoms: C_7  and  C_9
REMARK    8  A    between atoms: C_7  and  O_10
REMARK    9  A    between atoms: C_17  and  C_21
REMARK   10  A    between atoms: C_21  and  C_22
REMARK   11  A    between atoms: C_22  and  C_23
REMARK   12  A    between atoms: C_22  and  C_24
REMARK   13  A    between atoms: C_27  and  C_29
REMARK   14  A    between atoms: C_27  and  C_30
REMARK                            x       y       z     vdW  Elec       q    Type
REMARK                         _______ _______ _______ _____ _____    ______ ____
ROOT
ATOM      1  N   UNL     1       0.866  -1.969   1.174  0.00  0.00    -0.307 N 
ATOM      2  C   UNL     1      -0.121  -2.775   1.719  0.00  0.00    +0.168 A 
ATOM      3  C   UNL     1      -0.013  -4.170   1.667  0.00  0.00    +0.196 A 
ATOM      4  C   UNL     1      -1.043  -4.928   2.235  0.00  0.00    +0.124 A 
ATOM      5  C   UNL     1      -0.658  -6.333   2.031  0.00  0.00    +0.070 A 
ATOM      6  C   UNL     1      -1.235  -7.560   2.353  0.00  0.00    -0.023 A 
ATOM      7  C   UNL     1      -0.570  -8.712   1.990  0.00  0.00    +0.004 A 
ATOM      8  C   UNL     1       0.645  -8.608   1.327  0.00  0.00    +0.051 A 
ATOM      9  N   UNL     1       1.172  -7.439   1.035  0.00  0.00    -0.217 NA
ATOM     10  C   UNL     1       0.573  -6.300   1.357  0.00  0.00    +0.231 A 
ATOM     11  O   UNL     1       0.915  -5.009   1.162  0.00  0.00    -0.432 OA
ATOM     12  C   UNL     1      -1.135 -10.074   2.291  0.00  0.00    +0.197 C 
ATOM     13  O   UNL     1      -2.165  -9.974   3.274  0.00  0.00    -0.369 OA
ATOM     14  C   UNL     1      -3.165  -9.002   2.948  0.00  0.00    +0.068 C 
ATOM     15  C   UNL     1      -2.550  -7.607   3.082  0.00  0.00    +0.070 C 
ATOM     16  C   UNL     1      -4.347  -9.137   3.910  0.00  0.00    +0.041 C 
ATOM     17  C   UNL     1      -3.641  -9.217   1.510  0.00  0.00    +0.041 C 
ATOM     18  N   UNL     1      -2.076  -4.308   2.799  0.00  0.00    -0.231 NA
ATOM     19  C   UNL     1      -2.136  -2.993   2.825  0.00  0.00    +0.224 A 
ATOM     20  N   UNL     1      -1.186  -2.238   2.306  0.00  0.00    -0.217 NA
ENDROOT
BRANCH   1  21
ATOM     21  C   UNL     1       0.742  -0.511   1.242  0.00  0.00    +0.137 C 
BRANCH  21  23
ATOM     22  C   UNL     1      -0.019   1.526   0.010  0.00  0.00    +0.039 C 
ATOM     23  C   UNL     1       0.002  -0.004   0.002  0.00  0.00    +0.129 C 
BRANCH  23  24
ATOM     24  O   UNL     1      -1.339  -0.499   0.012  0.00  0.00    -0.391 OA
ATOM     25  H   UNL     1      -1.868  -0.216  -0.746  0.00  0.00    +0.210 HD
ENDBRANCH  23  24
ENDBRANCH  21  23
ENDBRANCH   1  21
BRANCH   1  26
ATOM     26  C   UNL     1       2.034  -2.575   0.530  0.00  0.00    +0.137 C 
BRANCH  26  27
ATOM     27  C   UNL     1       3.138  -2.786   1.569  0.00  0.00    +0.129 C 
ATOM     28  C   UNL     1       4.400  -3.303   0.875  0.00  0.00    +0.039 C 
BRANCH  27  29
ATOM     29  O   UNL     1       2.703  -3.740   2.539  0.00  0.00    -0.391 OA
ATOM     30  H   UNL     1       2.490  -4.608   2.169  0.00  0.00    +0.210 HD
ENDBRANCH  27  29
ENDBRANCH  26  27
ENDBRANCH   1  26
BRANCH   8  31
ATOM     31  C   UNL     1       1.378  -9.865   0.934  0.00  0.00    +0.059 C 
BRANCH  31  32
ATOM     32  C   UNL     1       0.936 -10.296  -0.466  0.00  0.00    -0.011 C 
ATOM     33  C   UNL     1       1.768 -11.498  -0.916  0.00  0.00    +0.007 C 
ATOM     34  C   UNL     1      -0.544 -10.683  -0.437  0.00  0.00    +0.007 C 
ENDBRANCH  31  32
ENDBRANCH   8  31
TORSDOF 8
