REMARK  Name = ZINC32964468
REMARK  4 active torsions:
REMARK  status: ('A' for Active; 'I' for Inactive)
REMARK    1  A    between atoms: C_3  and  C_16
REMARK    2  A    between atoms: N_4  and  C_6
REMARK    3  A    between atoms: C_9  and  N_13
REMARK    4  A    between atoms: C_26  and  C_28
REMARK                            x       y       z     vdW  Elec       q    Type
REMARK                         _______ _______ _______ _____ _____    ______ ____
ROOT
ATOM      1  C   UNL     1       2.439   0.829  -0.107  0.00  0.00    +0.042 C 
ATOM      2  C   UNL     1       3.030  -0.420  -0.018  0.00  0.00    +0.082 C 
ATOM      3  C   UNL     1       2.227  -1.651   0.217  0.00  0.00    +0.153 C 
ATOM      4  N   UNL     1       1.012  -1.813  -0.238  0.00  0.00    -0.283 NA
ATOM      5  N   UNL     1       2.906  -2.626   0.977  0.00  0.00    -0.152 N 
ATOM      6  C   UNL     1       4.284  -2.583   0.982  0.00  0.00    +0.181 C 
ATOM      7  N   UNL     1       5.056  -1.678   0.434  0.00  0.00    -0.152 NA
ATOM      8  C   UNL     1       4.493  -0.603  -0.158  0.00  0.00    +0.273 C 
ATOM      9  O   UNL     1       5.168   0.196  -0.787  0.00  0.00    -0.268 OA
ATOM     10  S   UNL     1       4.698  -4.029   1.921  0.00  0.00    -0.038 S 
ATOM     11  C   UNL     1       3.030  -4.531   2.325  0.00  0.00    +0.103 C 
ATOM     12  N   UNL     1       2.315  -3.632   1.712  0.00  0.00    -0.169 NA
ATOM     13  H   UNL     1       0.505  -2.604   0.003  0.00  0.00    +0.188 HD
ENDROOT
BRANCH  11  14
ATOM     14  C   UNL     1       2.570  -5.697   3.161  0.00  0.00    +0.046 C 
ATOM     15  C   UNL     1       1.181  -6.141   2.697  0.00  0.00    +0.010 C 
ATOM     16  C   UNL     1       0.713  -7.325   3.545  0.00  0.00    +0.001 C 
ATOM     17  C   UNL     1       0.650  -6.905   5.015  0.00  0.00    +0.000 C 
ATOM     18  C   UNL     1       2.039  -6.462   5.480  0.00  0.00    +0.001 C 
ATOM     19  C   UNL     1       2.506  -5.278   4.631  0.00  0.00    +0.010 C 
ENDBRANCH  11  14
BRANCH   1  22
ATOM     20  C   UNL     1      -0.830   0.733   1.416  0.00  0.00    +0.020 A 
ATOM     21  C   UNL     1       0.396   0.126   1.139  0.00  0.00    +0.027 A 
ATOM     22  C   UNL     1       1.138   1.030   0.390  0.00  0.00    +0.047 A 
ATOM     23  N   UNL     1       0.364   2.161   0.224  0.00  0.00    -0.315 N 
ATOM     24  C   UNL     1      -0.825   1.967   0.850  0.00  0.00    +0.092 A 
BRANCH  23  25
ATOM     25  C   UNL     1       0.742   3.316  -0.474  0.00  0.00    +0.065 A 
ATOM     26  C   UNL     1       0.915   4.514   0.205  0.00  0.00    +0.030 A 
ATOM     27  C   UNL     1       1.288   5.651  -0.485  0.00  0.00    +0.035 A 
ATOM     28  C   UNL     1       1.489   5.596  -1.853  0.00  0.00    +0.128 A 
ATOM     29  C   UNL     1       1.318   4.405  -2.533  0.00  0.00    +0.054 A 
ATOM     30  C   UNL     1       0.951   3.263  -1.847  0.00  0.00    +0.067 A 
ATOM     31 CL   UNL     1       0.743   1.765  -2.701  0.00  0.00    -0.081 Cl
BRANCH  28  32
ATOM     32  N   UNL     1       1.888   6.817  -2.589  0.00  0.00    +0.056 N 
ATOM     33  O   UNL     1       2.128   7.836  -1.985  0.00  0.00    -0.126 OA
ATOM     34  O   UNL     1       1.975   6.794  -3.795  0.00  0.00    -0.126 OA
ENDBRANCH  28  32
ENDBRANCH  23  25
ENDBRANCH   1  22
TORSDOF 4
