REMARK  Name = ZINC39915848
REMARK  9 active torsions:
REMARK  status: ('A' for Active; 'I' for Inactive)
REMARK    1  A    between atoms: C_4  and  C_7
REMARK    2  A    between atoms: C_7  and  N_8
REMARK    3  A    between atoms: C_16  and  S_17
REMARK    4  A    between atoms: S_17  and  C_18
REMARK    5  A    between atoms: C_20  and  O_33
REMARK    6  A    between atoms: C_22  and  O_32
REMARK    7  A    between atoms: C_24  and  O_31
REMARK    8  A    between atoms: C_26  and  C_29
REMARK    9  A    between atoms: C_29  and  O_30
REMARK                            x       y       z     vdW  Elec       q    Type
REMARK                         _______ _______ _______ _____ _____    ______ ____
ROOT
ATOM      1  N   UNL     1       4.152  -0.952   1.338  0.00  0.00    -0.314 N 
ATOM      2  C   UNL     1       4.939  -0.114   2.111  0.00  0.00    +0.070 A 
ATOM      3  C   UNL     1       5.530   1.121   1.892  0.00  0.00    +0.028 A 
ATOM      4  C   UNL     1       6.275   1.712   2.891  0.00  0.00    +0.002 A 
ATOM      5  C   UNL     1       6.438   1.079   4.114  0.00  0.00    +0.002 A 
ATOM      6  C   UNL     1       5.859  -0.148   4.349  0.00  0.00    +0.030 A 
ATOM      7  C   UNL     1       5.100  -0.759   3.348  0.00  0.00    +0.090 A 
ATOM      8  N   UNL     1       4.422  -1.935   3.278  0.00  0.00    -0.222 NA
ATOM      9  C   UNL     1       3.858  -2.048   2.100  0.00  0.00    +0.173 A 
ENDROOT
BRANCH   1  10
ATOM     10  C   UNL     1       3.711  -0.707  -0.038  0.00  0.00    +0.159 C 
BRANCH  10  14
ATOM     11  C   UNL     1      -0.017   1.378   0.010  0.00  0.00    +0.000 A 
ATOM     12  C   UNL     1       1.171   2.086   0.002  0.00  0.00    +0.000 A 
ATOM     13  C   UNL     1       2.377   1.411  -0.013  0.00  0.00    +0.005 A 
ATOM     14  C   UNL     1       2.396   0.029  -0.020  0.00  0.00    -0.028 A 
ATOM     15  C   UNL     1       1.208  -0.679  -0.012  0.00  0.00    +0.005 A 
ATOM     16  C   UNL     1       0.002  -0.004   0.002  0.00  0.00    +0.000 A 
ENDBRANCH  10  14
ENDBRANCH   1  10
BRANCH   9  17
ATOM     17  S   UNL     1       2.874  -3.412   1.575  0.00  0.00    -0.054 S 
BRANCH  17  18
ATOM     18  C   UNL     1       2.857  -4.519   3.012  0.00  0.00    +0.214 C 
ATOM     19  C   UNL     1       2.242  -5.863   2.614  0.00  0.00    +0.185 C 
ATOM     20  C   UNL     1       2.176  -6.771   3.846  0.00  0.00    +0.177 C 
ATOM     21  C   UNL     1       1.373  -6.066   4.943  0.00  0.00    +0.176 C 
ATOM     22  C   UNL     1       2.021  -4.715   5.252  0.00  0.00    +0.176 C 
ATOM     23  O   UNL     1       2.079  -3.932   4.057  0.00  0.00    -0.355 OA
BRANCH  21  24
ATOM     24  O   UNL     1       0.030  -5.863   4.496  0.00  0.00    -0.386 OA
ATOM     25  H   UNL     1      -0.440  -6.679   4.279  0.00  0.00    +0.210 HD
ENDBRANCH  21  24
BRANCH  20  26
ATOM     26  O   UNL     1       1.538  -8.002   3.499  0.00  0.00    -0.386 OA
ATOM     27  H   UNL     1       1.991  -8.498   2.804  0.00  0.00    +0.210 HD
ENDBRANCH  20  26
BRANCH  19  28
ATOM     28  O   UNL     1       0.924  -5.652   2.103  0.00  0.00    -0.386 OA
ATOM     29  H   UNL     1       0.890  -5.082   1.323  0.00  0.00    +0.210 HD
ENDBRANCH  19  28
BRANCH  22  30
ATOM     30  C   UNL     1       1.191  -3.978   6.305  0.00  0.00    +0.190 C 
BRANCH  30  31
ATOM     31  O   UNL     1       1.857  -2.771   6.678  0.00  0.00    -0.392 OA
ATOM     32  H   UNL     1       1.386  -2.251   7.344  0.00  0.00    +0.210 HD
ENDBRANCH  30  31
ENDBRANCH  22  30
ENDBRANCH  17  18
ENDBRANCH   9  17
TORSDOF 9
