REMARK  Name = ZINC04976405
REMARK  8 active torsions:
REMARK  status: ('A' for Active; 'I' for Inactive)
REMARK    1  A    between atoms: C_1  and  C_2
REMARK    2  A    between atoms: C_4  and  N_24
REMARK    3  A    between atoms: C_7  and  N_8
REMARK    4  A    between atoms: C_9  and  C_11
REMARK    5  A    between atoms: C_11  and  S_12
REMARK    6  A    between atoms: S_12  and  C_13
REMARK    7  A    between atoms: C_15  and  C_23
REMARK    8  A    between atoms: C_16  and  C_22
REMARK                            x       y       z     vdW  Elec       q    Type
REMARK                         _______ _______ _______ _____ _____    ______ ____
ROOT
ATOM      1  N   UNL     1      -1.227   2.069  -0.122  0.00  0.00    -0.285 N 
ATOM      2  C   UNL     1      -2.386   1.385  -0.194  0.00  0.00    +0.227 C 
ATOM      3  O   UNL     1      -2.376   0.173  -0.184  0.00  0.00    -0.275 OA
ATOM      4  H   UNL     1      -1.237   3.038  -0.067  0.00  0.00    +0.155 HD
ENDROOT
BRANCH   1  11
ATOM      5  C   UNL     1       0.995   3.283  -1.422  0.00  0.00    +0.046 C 
ATOM      6  C   UNL     1       1.101   1.937  -0.752  0.00  0.00    -0.027 A 
ATOM      7  C   UNL     1       2.302   1.253  -0.760  0.00  0.00    +0.038 A 
ATOM      8  C   UNL     1       2.400   0.018  -0.147  0.00  0.00    +0.127 A 
ATOM      9  C   UNL     1       1.297  -0.537   0.477  0.00  0.00    +0.034 A 
ATOM     10  C   UNL     1       0.094   0.141   0.489  0.00  0.00    +0.026 A 
ATOM     11  C   UNL     1      -0.008   1.382  -0.127  0.00  0.00    +0.036 A 
BRANCH   8  12
ATOM     12  N   UNL     1       3.687  -0.712  -0.158  0.00  0.00    +0.056 N 
ATOM     13  O   UNL     1       3.775  -1.800   0.382  0.00  0.00    -0.126 OA
ATOM     14  O   UNL     1       4.659  -0.224  -0.707  0.00  0.00    -0.126 OA
ENDBRANCH   8  12
ENDBRANCH   1  11
BRANCH   2  15
ATOM     15  C   UNL     1      -3.694   2.128  -0.286  0.00  0.00    +0.171 C 
BRANCH  15  16
ATOM     16  S   UNL     1      -5.057   0.940  -0.367  0.00  0.00    -0.096 S 
BRANCH  16  17
ATOM     17  C   UNL     1      -6.423   2.048  -0.466  0.00  0.00    +0.109 A 
ATOM     18  C   UNL     1      -7.752   1.548  -0.556  0.00  0.00    +0.043 A 
ATOM     19  C   UNL     1      -8.229   0.176  -0.571  0.00  0.00    -0.029 A 
ATOM     20  C   UNL     1      -9.547  -0.059  -0.656  0.00  0.00    -0.008 A 
ATOM     21  S   UNL     1     -10.258   1.576  -0.716  0.00  0.00    -0.074 S 
ATOM     22  C   UNL     1      -8.765   2.529  -0.625  0.00  0.00    +0.113 A 
ATOM     23  N   UNL     1      -8.477   3.816  -0.616  0.00  0.00    -0.228 NA
ATOM     24  C   UNL     1      -7.224   4.219  -0.536  0.00  0.00    +0.223 A 
ATOM     25  N   UNL     1      -6.226   3.357  -0.463  0.00  0.00    -0.229 NA
ATOM     26  C   UNL     1     -10.258  -1.387  -0.692  0.00  0.00    +0.052 C 
ATOM     27  C   UNL     1      -7.254  -0.971  -0.497  0.00  0.00    +0.045 C 
ENDBRANCH  16  17
ENDBRANCH  15  16
ENDBRANCH   2  15
TORSDOF 5
