REMARK  Name = ZINC39325191
REMARK  8 active torsions:
REMARK  status: ('A' for Active; 'I' for Inactive)
REMARK    1  A    between atoms: C_1  and  C_2
REMARK    2  A    between atoms: C_2  and  C_3
REMARK    3  A    between atoms: C_10  and  C_15
REMARK    4  A    between atoms: C_15  and  N_16
REMARK    5  A    between atoms: N_16  and  C_17
REMARK    6  A    between atoms: N_16  and  S_24
REMARK    7  A    between atoms: C_17  and  C_18
REMARK    8  A    between atoms: S_24  and  C_27
REMARK                            x       y       z     vdW  Elec       q    Type
REMARK                         _______ _______ _______ _____ _____    ______ ____
ROOT
ATOM      1  N   UNL     1       0.801  -3.700   7.617  0.00  0.00    -0.171 NA
ENDROOT
BRANCH   1   2
ATOM      2  S   UNL     1       2.148  -4.635   7.851  0.00  0.00    +0.062 S 
ATOM      3  O   UNL     1       1.948  -5.335   9.072  0.00  0.00    -0.153 OA
ATOM      4  O   UNL     1       2.398  -5.302   6.622  0.00  0.00    -0.153 OA
BRANCH   2   5
ATOM      5  C   UNL     1       3.503  -3.540   8.115  0.00  0.00    +0.119 A 
ATOM      6  C   UNL     1       4.105  -3.472   9.357  0.00  0.00    +0.029 A 
ATOM      7  C   UNL     1       5.169  -2.613   9.564  0.00  0.00    +0.002 A 
ATOM      8  C   UNL     1       5.631  -1.823   8.528  0.00  0.00    +0.001 A 
ATOM      9  C   UNL     1       5.030  -1.891   7.285  0.00  0.00    +0.017 A 
ATOM     10  C   UNL     1       3.969  -2.753   7.077  0.00  0.00    +0.044 A 
ATOM     11 BR   UNL     1       3.150  -2.852   5.375  0.00  0.00    -0.048 Br
ENDBRANCH   2   5
ENDBRANCH   1   2
BRANCH   1  12
ATOM     12  C   UNL     1       0.246  -3.540   6.271  0.00  0.00    +0.126 C 
BRANCH  12  20
ATOM     13  C   UNL     1      -3.630  -5.402   2.326  0.00  0.00    -0.047 A 
ATOM     14  C   UNL     1      -4.434  -5.971   3.314  0.00  0.00    +0.005 A 
ATOM     15  C   UNL     1      -4.013  -6.137   4.595  0.00  0.00    +0.024 A 
ATOM     16  C   UNL     1      -2.723  -5.732   4.982  0.00  0.00    +0.040 A 
ATOM     17  N   UNL     1      -2.321  -5.901   6.241  0.00  0.00    -0.284 N 
ATOM     18  C   UNL     1      -1.123  -5.543   6.671  0.00  0.00    +0.225 C 
ATOM     19  O   UNL     1      -0.812  -5.722   7.834  0.00  0.00    -0.275 OA
ATOM     20  C   UNL     1      -0.140  -4.911   5.712  0.00  0.00    +0.114 C 
ATOM     21  C   UNL     1      -0.591  -4.717   4.278  0.00  0.00    -0.003 C 
ATOM     22  C   UNL     1      -1.852  -5.128   3.959  0.00  0.00    -0.007 A 
ATOM     23  C   UNL     1      -2.366  -4.983   2.596  0.00  0.00    +0.013 A 
ATOM     24  H   UNL     1      -2.937  -6.305   6.873  0.00  0.00    +0.155 HD
BRANCH  13  26
ATOM     25  C   UNL     1      -3.851  -6.512   0.120  0.00  0.00    +0.009 C 
ATOM     26  C   UNL     1      -4.172  -5.253   0.928  0.00  0.00    +0.032 C 
ENDBRANCH  13  26
ENDBRANCH  12  20
ENDBRANCH   1  12
BRANCH   1  27
ATOM     27  C   UNL     1       0.166  -3.032   8.756  0.00  0.00    +0.144 C 
BRANCH  27  28
ATOM     28  C   UNL     1      -0.960  -3.889   9.276  0.00  0.00    -0.032 A 
ATOM     29  C   UNL     1      -2.236  -3.738   8.765  0.00  0.00    +0.005 A 
ATOM     30  C   UNL     1      -3.268  -4.523   9.241  0.00  0.00    +0.000 A 
ATOM     31  C   UNL     1      -3.026  -5.460  10.229  0.00  0.00    +0.000 A 
ATOM     32  C   UNL     1      -1.750  -5.612  10.739  0.00  0.00    +0.000 A 
ATOM     33  C   UNL     1      -0.716  -4.829  10.259  0.00  0.00    +0.005 A 
ENDBRANCH  27  28
ENDBRANCH   1  27
TORSDOF 7
