REMARK  Name = ZINC33495047
REMARK  6 active torsions:
REMARK  status: ('A' for Active; 'I' for Inactive)
REMARK    1  A    between atoms: C_1  and  C_2
REMARK    2  A    between atoms: C_2  and  C_3
REMARK    3  A    between atoms: C_2  and  C_4
REMARK    4  A    between atoms: C_11  and  C_16
REMARK    5  A    between atoms: C_11  and  C_17
REMARK    6  A    between atoms: C_13  and  O_15
REMARK                            x       y       z     vdW  Elec       q    Type
REMARK                         _______ _______ _______ _____ _____    ______ ____
ROOT
ATOM      1  C   UNL     1       1.175   1.784   0.000  0.00  0.00    -0.041 A 
ATOM      2  C   UNL     1      -0.013   1.076   0.008  0.00  0.00    +0.004 A 
ATOM      3  C   UNL     1      -1.218   1.750   0.017  0.00  0.00    +0.010 A 
ATOM      4  C   UNL     1      -1.244   3.135   0.031  0.00  0.00    +0.023 A 
ATOM      5  C   UNL     1      -0.057   3.846   0.026  0.00  0.00    +0.127 A 
ATOM      6  C   UNL     1       1.155   3.163   0.010  0.00  0.00    +0.050 A 
ATOM      7  O   UNL     1      -0.036   5.204   0.045  0.00  0.00    -0.486 OA
ATOM      8  C   UNL     1      -1.235   5.895  -0.307  0.00  0.00    +0.108 C 
ATOM      9  C   UNL     1      -2.396   5.287   0.491  0.00  0.00    +0.083 C 
ATOM     10  C   UNL     1      -2.579   3.835   0.042  0.00  0.00    +0.152 C 
ATOM     11  C   UNL     1      -1.501   5.736  -1.805  0.00  0.00    +0.055 C 
ATOM     12  C   UNL     1      -1.095   7.379   0.037  0.00  0.00    +0.055 C 
ENDROOT
BRANCH   1  14
ATOM     13  C   UNL     1       2.597   0.162   1.224  0.00  0.00    +0.012 C 
ATOM     14  C   UNL     1       2.491   1.049  -0.018  0.00  0.00    +0.013 C 
ATOM     15  C   UNL     1       2.571   0.179  -1.275  0.00  0.00    +0.012 C 
ENDBRANCH   1  14
BRANCH  10  16
ATOM     16  O   UNL     1      -3.460   3.166   0.946  0.00  0.00    -0.387 OA
ATOM     17  H   UNL     1      -4.486   3.535   1.089  0.00  0.00    +0.210 HD
ENDBRANCH  10  16
TORSDOF 2
