REMARK  Name = ZINC40317713
REMARK  6 active torsions:
REMARK  status: ('A' for Active; 'I' for Inactive)
REMARK    1  A    between atoms: C_4  and  C_7
REMARK    2  A    between atoms: C_7  and  C_9
REMARK    3  A    between atoms: C_7  and  N_12
REMARK    4  A    between atoms: C_13  and  C_15
REMARK    5  A    between atoms: C_17  and  N_22
REMARK    6  A    between atoms: C_19  and  N_21
REMARK                            x       y       z     vdW  Elec       q    Type
REMARK                         _______ _______ _______ _____ _____    ______ ____
ROOT
ATOM      1  N   UNL     1       3.611  -1.865  -0.930  0.00  0.00    -0.304 N 
ATOM      2  C   UNL     1       4.721  -2.370  -1.504  0.00  0.00    +0.245 C 
ATOM      3  O   UNL     1       5.804  -1.867  -1.281  0.00  0.00    -0.270 OA
ATOM      4  H   UNL     1       2.747  -2.267  -1.108  0.00  0.00    +0.150 HD
ENDROOT
BRANCH   2   5
ATOM      5  C   UNL     1       4.620  -3.539  -2.405  0.00  0.00    +0.040 A 
ATOM      6  C   UNL     1       3.377  -4.115  -2.667  0.00  0.00    +0.036 A 
ATOM      7  C   UNL     1       3.286  -5.210  -3.513  0.00  0.00    +0.027 A 
ATOM      8  C   UNL     1       4.431  -5.734  -4.099  0.00  0.00    +0.045 A 
ATOM      9  C   UNL     1       5.670  -5.163  -3.840  0.00  0.00    +0.027 A 
ATOM     10  C   UNL     1       5.768  -4.064  -3.000  0.00  0.00    +0.036 A 
BRANCH   9  11
ATOM     11  N   UNL     1       6.820  -5.693  -4.432  0.00  0.00    -0.358 N 
ATOM     12  H   UNL     1       6.752  -6.459  -5.023  0.00  0.00    +0.142 HD
ATOM     13  H   UNL     1       7.686  -5.295  -4.252  0.00  0.00    +0.142 HD
ENDBRANCH   9  11
BRANCH   7  14
ATOM     14  N   UNL     1       2.042  -5.788  -3.775  0.00  0.00    -0.358 N 
ATOM     15  H   UNL     1       1.242  -5.423  -3.366  0.00  0.00    +0.142 HD
ATOM     16  H   UNL     1       1.978  -6.554  -4.367  0.00  0.00    +0.142 HD
ENDBRANCH   7  14
ENDBRANCH   2   5
BRANCH   1  17
ATOM     17  C   UNL     1       3.711  -0.707  -0.038  0.00  0.00    +0.107 C 
BRANCH  17  21
ATOM     18  C   UNL     1      -0.017   1.378   0.010  0.00  0.00    +0.000 A 
ATOM     19  C   UNL     1       1.171   2.086   0.002  0.00  0.00    +0.000 A 
ATOM     20  C   UNL     1       2.377   1.411  -0.013  0.00  0.00    +0.005 A 
ATOM     21  C   UNL     1       2.396   0.029  -0.020  0.00  0.00    -0.027 A 
ATOM     22  C   UNL     1       1.208  -0.679  -0.012  0.00  0.00    +0.005 A 
ATOM     23  C   UNL     1       0.002  -0.004   0.002  0.00  0.00    +0.000 A 
ENDBRANCH  17  21
BRANCH  17  24
ATOM     24  C   UNL     1       4.049  -1.182   1.377  0.00  0.00    +0.014 C 
ATOM     25  C   UNL     1       4.129  -2.691   1.616  0.00  0.00    +0.006 C 
ATOM     26  C   UNL     1       5.408  -1.851   1.592  0.00  0.00    +0.006 C 
ENDBRANCH  17  24
ENDBRANCH   1  17
TORSDOF 6
