REMARK  Name = ZINC62320482
REMARK  5 active torsions:
REMARK  status: ('A' for Active; 'I' for Inactive)
REMARK    1  A    between atoms: C_1  and  C_2
REMARK    2  A    between atoms: C_8  and  N_10
REMARK    3  A    between atoms: C_11  and  C_13
REMARK    4  A    between atoms: N_15  and  C_25
REMARK    5  A    between atoms: C_20  and  N_24
REMARK                            x       y       z     vdW  Elec       q    Type
REMARK                         _______ _______ _______ _____ _____    ______ ____
ROOT
ATOM      1  C   UNL     1       0.089   0.717   4.767  0.00  0.00    +0.100 A 
ATOM      2  C   UNL     1       0.803   0.950   5.924  0.00  0.00    +0.102 A 
ATOM      3  N   UNL     1       0.232   1.460   7.024  0.00  0.00    -0.349 N 
ATOM      4  C   UNL     1      -1.105   1.790   7.086  0.00  0.00    +0.054 A 
ATOM      5  C   UNL     1      -1.650   2.316   8.253  0.00  0.00    +0.026 A 
ATOM      6  C   UNL     1      -2.989   2.644   8.307  0.00  0.00    +0.004 A 
ATOM      7  C   UNL     1      -3.811   2.456   7.210  0.00  0.00    +0.023 A 
ATOM      8  C   UNL     1      -3.295   1.933   6.034  0.00  0.00    +0.037 A 
ATOM      9  C   UNL     1      -1.935   1.597   5.968  0.00  0.00    +0.066 A 
ATOM     10  C   UNL     1      -1.346   1.045   4.738  0.00  0.00    +0.203 A 
ATOM     11  O   UNL     1      -2.018   0.862   3.738  0.00  0.00    -0.286 OA
ATOM     12  C   UNL     1       1.063   1.675   8.211  0.00  0.00    +0.149 C 
ENDROOT
BRANCH   1  14
ATOM     13  N   UNL     1       0.076   0.043   2.420  0.00  0.00    -0.308 N 
ATOM     14  C   UNL     1       0.753   0.156   3.580  0.00  0.00    +0.249 C 
ATOM     15  O   UNL     1       1.913  -0.205   3.645  0.00  0.00    -0.270 OA
ATOM     16  H   UNL     1      -0.869   0.261   2.387  0.00  0.00    +0.149 HD
BRANCH  13  23
ATOM     17  C   UNL     1       0.009   1.645   0.009  0.00  0.00    +0.009 C 
ATOM     18  C   UNL     1       0.031   0.116  -0.024  0.00  0.00    +0.006 C 
ATOM     19  C   UNL     1       0.752  -0.357  -1.288  0.00  0.00    +0.005 C 
ATOM     20  C   UNL     1       0.774  -1.886  -1.320  0.00  0.00    +0.000 C 
ATOM     21  C   UNL     1       1.509  -2.412  -0.086  0.00  0.00    +0.002 C 
ATOM     22  C   UNL     1       0.788  -1.940   1.177  0.00  0.00    +0.022 C 
ATOM     23  C   UNL     1       0.766  -0.410   1.210  0.00  0.00    +0.076 C 
ENDBRANCH  13  23
ENDBRANCH   1  14
BRANCH   8  24
ATOM     24  N   UNL     1      -4.118   1.742   4.930  0.00  0.00    -0.357 N 
ATOM     25  H   UNL     1      -5.037   2.053   4.952  0.00  0.00    +0.142 HD
ATOM     26  H   UNL     1      -3.774   1.300   4.139  0.00  0.00    +0.142 HD
ENDBRANCH   8  24
TORSDOF 3
