REMARK  Name = ZINC53046256
REMARK  2 active torsions:
REMARK  status: ('A' for Active; 'I' for Inactive)
REMARK    1  A    between atoms: C_1  and  C_2
REMARK    2  A    between atoms: C_7  and  N_8
REMARK                            x       y       z     vdW  Elec       q    Type
REMARK                         _______ _______ _______ _____ _____    ______ ____
ROOT
ATOM      1  N   UNL     1       0.025  -0.037   2.398  0.00  0.00    -0.226 NA
ATOM      2  C   UNL     1      -0.055  -0.702   3.529  0.00  0.00    +0.155 C 
ATOM      3  N   UNL     1      -0.167  -0.189   4.806  0.00  0.00    -0.317 N 
ATOM      4  C   UNL     1      -0.793  -1.056   5.791  0.00  0.00    +0.043 C 
ATOM      5  C   UNL     1      -2.331  -0.976   5.700  0.00  0.00    +0.026 C 
ATOM      6  C   UNL     1      -2.656   0.286   6.539  0.00  0.00    +0.002 C 
ATOM      7  C   UNL     1      -1.647   0.239   7.706  0.00  0.00    +0.002 C 
ATOM      8  C   UNL     1      -0.457  -0.612   7.223  0.00  0.00    +0.026 C 
ATOM      9  C   UNL     1      -0.341  -2.520   5.578  0.00  0.00    +0.102 C 
ATOM     10  S   UNL     1      -0.050  -2.474   3.760  0.00  0.00    -0.088 S 
ATOM     11  H   UNL     1       0.154   0.698   5.033  0.00  0.00    +0.149 HD
ENDROOT
BRANCH   1  18
ATOM     12  C   UNL     1       2.059   0.599   0.519  0.00  0.00    +0.046 C 
ATOM     13  C   UNL     1       1.000  -0.438   0.246  0.00  0.00    -0.025 A 
ATOM     14  C   UNL     1       0.996  -1.124  -0.951  0.00  0.00    +0.005 A 
ATOM     15  C   UNL     1       0.024  -2.076  -1.203  0.00  0.00    +0.000 A 
ATOM     16  C   UNL     1      -0.950  -2.347  -0.258  0.00  0.00    +0.002 A 
ATOM     17  C   UNL     1      -0.958  -1.669   0.943  0.00  0.00    +0.028 A 
ATOM     18  C   UNL     1       0.024  -0.710   1.206  0.00  0.00    +0.069 A 
ENDBRANCH   1  18
TORSDOF 1
