REMARK  Name = ZINC03201422
REMARK  8 active torsions:
REMARK  status: ('A' for Active; 'I' for Inactive)
REMARK    1  A    between atoms: C_1  and  C_2
REMARK    2  A    between atoms: C_2  and  C_4
REMARK    3  A    between atoms: C_2  and  N_19
REMARK    4  A    between atoms: N_6  and  N_7
REMARK    5  A    between atoms: C_8  and  C_9
REMARK    6  A    between atoms: C_14  and  C_15
REMARK    7  A    between atoms: C_20  and  C_22
REMARK    8  A    between atoms: C_26  and  N_28
REMARK                            x       y       z     vdW  Elec       q    Type
REMARK                         _______ _______ _______ _____ _____    ______ ____
ROOT
ATOM      1  C   UNL     1       3.570   7.303   0.007  0.00  0.00    +0.252 C 
ATOM      2  O   UNL     1       2.509   7.891   0.019  0.00  0.00    -0.272 OA
ATOM      3  N   UNL     1       3.594   5.956  -0.000  0.00  0.00    -0.205 N 
ATOM      4  H   UNL     1       4.442   5.486  -0.010  0.00  0.00    +0.177 HD
ENDROOT
BRANCH   1   6
ATOM      5  C   UNL     1       5.659   7.731  -1.259  0.00  0.00    +0.038 C 
ATOM      6  C   UNL     1       4.862   8.080  -0.001  0.00  0.00    +0.158 C 
BRANCH   6   7
ATOM      7  N   UNL     1       4.569   9.515   0.009  0.00  0.00    -0.300 N 
ATOM      8  C   UNL     1       5.475  10.385   0.499  0.00  0.00    +0.245 C 
ATOM      9  O   UNL     1       6.535   9.978   0.932  0.00  0.00    -0.270 OA
ATOM     10  H   UNL     1       3.722   9.840  -0.337  0.00  0.00    +0.150 HD
BRANCH   8  11
ATOM     11  C   UNL     1       5.179  11.833   0.508  0.00  0.00    +0.039 A 
ATOM     12  C   UNL     1       3.962  12.304   0.012  0.00  0.00    +0.013 A 
ATOM     13  C   UNL     1       3.692  13.656   0.024  0.00  0.00    +0.003 A 
ATOM     14  C   UNL     1       4.625  14.546   0.527  0.00  0.00    +0.033 A 
ATOM     15  C   UNL     1       5.832  14.087   1.022  0.00  0.00    +0.127 A 
ATOM     16  C   UNL     1       6.112  12.736   1.020  0.00  0.00    +0.045 A 
BRANCH  15  17
ATOM     17  N   UNL     1       6.824  15.046   1.558  0.00  0.00    +0.056 N 
ATOM     18  O   UNL     1       6.576  16.238   1.565  0.00  0.00    -0.126 OA
ATOM     19  O   UNL     1       7.887  14.643   1.994  0.00  0.00    -0.126 OA
ENDBRANCH  15  17
ENDBRANCH   8  11
ENDBRANCH   6   7
ENDBRANCH   1   6
BRANCH   3  20
ATOM     20  N   UNL     1       2.393   5.234   0.007  0.00  0.00    -0.188 NA
ATOM     21  C   UNL     1       2.416   3.937   0.000  0.00  0.00    +0.138 C 
BRANCH  21  22
ATOM     22  C   UNL     1       1.152   3.177   0.008  0.00  0.00    +0.006 A 
ATOM     23  C   UNL     1       1.173   1.780   0.000  0.00  0.00    +0.010 A 
ATOM     24  C   UNL     1      -0.013   1.076   0.008  0.00  0.00    +0.001 A 
ATOM     25  C   UNL     1      -1.221   1.750   0.017  0.00  0.00    +0.001 A 
ATOM     26  C   UNL     1      -1.250   3.133   0.030  0.00  0.00    +0.013 A 
ATOM     27  C   UNL     1      -0.071   3.850   0.022  0.00  0.00    +0.063 A 
BRANCH  27  28
ATOM     28  C   UNL     1      -0.104   5.357   0.031  0.00  0.00    +0.418 C 
ATOM     29  F   UNL     1      -1.433   5.794   0.045  0.00  0.00    -0.166 F 
ATOM     30  F   UNL     1       0.556   5.831   1.170  0.00  0.00    -0.166 F 
ATOM     31  F   UNL     1       0.535   5.844  -1.115  0.00  0.00    -0.166 F 
ENDBRANCH  27  28
ENDBRANCH  21  22
ENDBRANCH   3  20
TORSDOF 7
