REMARK  Name = ZINC62834011
REMARK  4 active torsions:
REMARK  status: ('A' for Active; 'I' for Inactive)
REMARK    1  A    between atoms: C_5  and  C_12
REMARK    2  A    between atoms: C_9  and  N_11
REMARK    3  A    between atoms: N_14  and  C_15
REMARK    4  A    between atoms: C_21  and  O_23
REMARK                            x       y       z     vdW  Elec       q    Type
REMARK                         _______ _______ _______ _____ _____    ______ ____
ROOT
ATOM      1  C   UNL     1      -0.017   1.384   0.010  0.00  0.00    +0.002 A 
ATOM      2  C   UNL     1       1.147   2.096   0.002  0.00  0.00    +0.010 A 
ATOM      3  C   UNL     1       2.379   1.426  -0.013  0.00  0.00    +0.002 A 
ATOM      4  C   UNL     1       3.724   1.866  -0.024  0.00  0.00    +0.041 A 
ATOM      5  C   UNL     1       4.520   0.764  -0.038  0.00  0.00    +0.103 A 
ATOM      6  N   UNL     1       3.727  -0.366  -0.036  0.00  0.00    -0.349 N 
ATOM      7  H   UNL     1       4.049  -1.281  -0.043  0.00  0.00    +0.166 HD
ATOM      8  C   UNL     1       2.406   0.019  -0.021  0.00  0.00    +0.068 A 
ATOM      9  C   UNL     1       1.202  -0.691  -0.013  0.00  0.00    +0.049 A 
ATOM     10  C   UNL     1       0.002  -0.004   0.002  0.00  0.00    +0.025 A 
ENDROOT
BRANCH   5  11
ATOM     11  C   UNL     1       5.991   0.775  -0.053  0.00  0.00    +0.261 C 
ATOM     12  O   UNL     1       6.591   1.833  -0.053  0.00  0.00    -0.269 OA
ATOM     13  N   UNL     1       6.673  -0.388  -0.066  0.00  0.00    -0.305 N 
ATOM     14  H   UNL     1       6.194  -1.231  -0.066  0.00  0.00    +0.149 HD
BRANCH  13  15
ATOM     15  C   UNL     1       8.137  -0.377  -0.081  0.00  0.00    +0.102 C 
ATOM     16  C   UNL     1       8.661  -0.256   1.351  0.00  0.00    +0.025 C 
ATOM     17  C   UNL     1      10.191  -0.245   1.336  0.00  0.00    +0.002 C 
ATOM     18  C   UNL     1      10.704  -1.545   0.714  0.00  0.00    +0.003 C 
ATOM     19  C   UNL     1      10.180  -1.666  -0.719  0.00  0.00    +0.033 C 
ATOM     20  C   UNL     1       8.650  -1.677  -0.703  0.00  0.00    +0.135 C 
BRANCH  20  21
ATOM     21  O   UNL     1       8.190  -2.789   0.068  0.00  0.00    -0.390 OA
ATOM     22  H   UNL     1       8.478  -3.648  -0.269  0.00  0.00    +0.210 HD
ENDBRANCH  20  21
ENDBRANCH  13  15
ENDBRANCH   5  11
BRANCH   9  23
ATOM     23  N   UNL     1       1.212  -2.089  -0.021  0.00  0.00    -0.356 N 
ATOM     24  H   UNL     1       2.055  -2.569  -0.032  0.00  0.00    +0.142 HD
ATOM     25  H   UNL     1       0.375  -2.580  -0.015  0.00  0.00    +0.142 HD
ENDBRANCH   9  23
TORSDOF 4
