REMARK  Name = ZINC36667389
REMARK  3 active torsions:
REMARK  status: ('A' for Active; 'I' for Inactive)
REMARK    1  A    between atoms: C_3  and  O_9
REMARK    2  A    between atoms: C_6  and  N_7
REMARK    3  A    between atoms: O_9  and  C_10
REMARK                            x       y       z     vdW  Elec       q    Type
REMARK                         _______ _______ _______ _____ _____    ______ ____
ROOT
ATOM      1  C   UNL     1       0.632   0.367   1.280  0.00  0.00    +0.026 A 
ATOM      2  C   UNL     1       1.820   1.072   1.239  0.00  0.00    +0.049 A 
ATOM      3  C   UNL     1       2.380   1.417   0.018  0.00  0.00    +0.149 A 
ATOM      4  C   UNL     1       1.748   1.054  -1.164  0.00  0.00    +0.085 A 
ATOM      5  C   UNL     1       0.561   0.349  -1.124  0.00  0.00    +0.046 A 
ATOM      6  C   UNL     1      -0.000   0.003   0.098  0.00  0.00    +0.026 A 
ATOM      7 CL   UNL     1       2.449   1.488  -2.692  0.00  0.00    -0.080 Cl
ENDROOT
BRANCH   6   8
ATOM      8  N   UNL     1      -1.202  -0.712   0.140  0.00  0.00    -0.358 N 
ATOM      9  H   UNL     1      -1.594  -0.953   0.994  0.00  0.00    +0.142 HD
ATOM     10  H   UNL     1      -1.644  -0.966  -0.686  0.00  0.00    +0.142 HD
ENDBRANCH   6   8
BRANCH   3  11
ATOM     11  O   UNL     1       3.548   2.112  -0.021  0.00  0.00    -0.436 OA
BRANCH  11  12
ATOM     12  C   UNL     1       3.483   3.461  -0.118  0.00  0.00    +0.232 A 
ATOM     13  C   UNL     1       4.670   4.231  -0.243  0.00  0.00    +0.070 A 
ATOM     14  C   UNL     1       6.056   3.800  -0.291  0.00  0.00    +0.023 A 
ATOM     15  C   UNL     1       7.024   4.721  -0.415  0.00  0.00    +0.048 A 
ATOM     16  S   UNL     1       6.129   6.261  -0.478  0.00  0.00    -0.077 S 
ATOM     17  C   UNL     1       4.479   5.628  -0.336  0.00  0.00    +0.115 A 
ATOM     18  N   UNL     1       3.273   6.160  -0.307  0.00  0.00    -0.228 NA
ATOM     19  C   UNL     1       2.208   5.391  -0.189  0.00  0.00    +0.226 A 
ATOM     20  N   UNL     1       2.314   4.077  -0.102  0.00  0.00    -0.201 NA
ENDBRANCH  11  12
ENDBRANCH   3  11
TORSDOF 3
