REMARK  Name = ZINC49467893
REMARK  10 active torsions:
REMARK  status: ('A' for Active; 'I' for Inactive)
REMARK    1  A    between atoms: C_1  and  C_2
REMARK    2  A    between atoms: C_3  and  C_11
REMARK    3  A    between atoms: N_6  and  C_7
REMARK    4  A    between atoms: C_7  and  C_8
REMARK    5  A    between atoms: C_7  and  C_9
REMARK    6  A    between atoms: C_7  and  C_10
REMARK    7  A    between atoms: N_13  and  N_14
REMARK    8  A    between atoms: N_17  and  C_18
REMARK    9  A    between atoms: C_18  and  C_19
REMARK   10  A    between atoms: C_18  and  C_20
REMARK                            x       y       z     vdW  Elec       q    Type
REMARK                         _______ _______ _______ _____ _____    ______ ____
ROOT
ATOM      1  C   UNL     1      -0.141  -0.309  -2.517  0.00  0.00    +0.263 C 
ATOM      2  O   UNL     1      -0.137   0.882  -2.765  0.00  0.00    -0.269 OA
ATOM      3  N   UNL     1      -0.233  -1.206  -3.518  0.00  0.00    -0.229 N 
ATOM      4  H   UNL     1      -0.237  -2.155  -3.320  0.00  0.00    +0.173 HD
ENDROOT
BRANCH   1   7
ATOM      5  C   UNL     1       0.087   1.534   0.025  0.00  0.00    +0.066 C 
ATOM      6  C   UNL     1       0.056   0.028   0.002  0.00  0.00    +0.049 A 
ATOM      7  C   UNL     1      -0.044  -0.770  -1.120  0.00  0.00    +0.078 A 
ATOM      8  C   UNL     1      -0.037  -2.113  -0.679  0.00  0.00    +0.147 A 
ATOM      9  N   UNL     1       0.061  -2.110   0.622  0.00  0.00    -0.178 NA
ATOM     10  N   UNL     1       0.125  -0.785   1.068  0.00  0.00    -0.263 N 
BRANCH  10  11
ATOM     11  C   UNL     1       0.245  -0.357   2.464  0.00  0.00    +0.056 C 
ATOM     12  C   UNL     1      -1.038   0.359   2.890  0.00  0.00    +0.036 C 
ATOM     13  C   UNL     1       0.465  -1.581   3.356  0.00  0.00    +0.036 C 
ATOM     14  C   UNL     1       1.433   0.597   2.605  0.00  0.00    +0.036 C 
ENDBRANCH  10  11
ENDBRANCH   1   7
BRANCH   3  15
ATOM     15  N   UNL     1      -0.325  -0.767  -4.846  0.00  0.00    -0.218 N 
ATOM     16  C   UNL     1      -0.418  -1.664  -5.847  0.00  0.00    +0.316 C 
ATOM     17  O   UNL     1      -0.498  -1.283  -6.999  0.00  0.00    -0.251 OA
ATOM     18  N   UNL     1      -0.422  -2.983  -5.572  0.00  0.00    -0.296 N 
ATOM     19  H   UNL     1      -0.322   0.183  -5.044  0.00  0.00    +0.174 HD
ATOM     20  H   UNL     1      -0.359  -3.287  -4.653  0.00  0.00    +0.151 HD
BRANCH  18  21
ATOM     21  C   UNL     1      -0.523  -3.958  -6.660  0.00  0.00    +0.068 C 
ATOM     22  C   UNL     1       0.097  -5.285  -6.216  0.00  0.00    +0.027 C 
ATOM     23  C   UNL     1      -1.995  -4.177  -7.015  0.00  0.00    +0.027 C 
ENDBRANCH  18  21
ENDBRANCH   3  15
TORSDOF 4
