REMARK  Name = ZINC51121250
REMARK  7 active torsions:
REMARK  status: ('A' for Active; 'I' for Inactive)
REMARK    1  A    between atoms: C_1  and  N_2
REMARK    2  A    between atoms: C_4  and  C_7
REMARK    3  A    between atoms: C_7  and  N_8
REMARK    4  A    between atoms: N_8  and  C_9
REMARK    5  A    between atoms: C_10  and  C_12
REMARK    6  A    between atoms: C_17  and  N_18
REMARK    7  A    between atoms: N_18  and  N_19
REMARK                            x       y       z     vdW  Elec       q    Type
REMARK                         _______ _______ _______ _____ _____    ______ ____
ROOT
ATOM      1  C   UNL     1       3.127  -3.962  -3.552  0.00  0.00    +0.079 A 
ATOM      2  C   UNL     1       3.180  -5.332  -3.834  0.00  0.00    +0.033 A 
ATOM      3  C   UNL     1       4.389  -5.873  -4.237  0.00  0.00    +0.037 A 
ATOM      4  C   UNL     1       5.500  -5.054  -4.347  0.00  0.00    +0.128 A 
ATOM      5  N   UNL     1       5.429  -3.766  -4.075  0.00  0.00    -0.237 NA
ATOM      6  C   UNL     1       4.297  -3.196  -3.692  0.00  0.00    +0.144 A 
ATOM      7 BR   UNL     1       4.522  -7.718  -4.632  0.00  0.00    -0.049 Br
ENDROOT
BRANCH   1  10
ATOM      8  N   UNL     1       1.102  -3.928  -2.182  0.00  0.00    -0.296 N 
ATOM      9  C   UNL     1       1.579  -5.139  -1.510  0.00  0.00    +0.132 C 
ATOM     10  C   UNL     1       1.866  -3.333  -3.120  0.00  0.00    +0.250 C 
ATOM     11  O   UNL     1       1.514  -2.277  -3.610  0.00  0.00    -0.270 OA
BRANCH   8  12
ATOM     12  C   UNL     1      -0.205  -3.365  -1.835  0.00  0.00    +0.146 C 
BRANCH  12  16
ATOM     13  C   UNL     1       0.522   0.894   0.706  0.00  0.00    +0.172 C 
ATOM     14  N   UNL     1       0.275  -0.515   0.389  0.00  0.00    -0.274 N 
ATOM     15  C   UNL     1       0.196  -1.048  -0.848  0.00  0.00    +0.113 A 
ATOM     16  C   UNL     1      -0.042  -2.373  -0.712  0.00  0.00    +0.007 A 
ATOM     17  C   UNL     1      -0.111  -2.660   0.655  0.00  0.00    +0.139 A 
ATOM     18  N   UNL     1       0.085  -1.548   1.316  0.00  0.00    -0.180 NA
ENDBRANCH  12  16
ENDBRANCH   8  12
ENDBRANCH   1  10
BRANCH   6  19
ATOM     19  N   UNL     1       4.267  -1.839  -3.424  0.00  0.00    -0.267 N 
ATOM     20  H   UNL     1       3.430  -1.410  -3.186  0.00  0.00    +0.167 HD
BRANCH  19  21
ATOM     21  N   UNL     1       5.416  -1.104  -3.493  0.00  0.00    -0.255 NA
ATOM     22  H   UNL     1       5.239  -0.135  -3.273  0.00  0.00    +0.140 HD
ATOM     23  H   UNL     1       6.128  -1.488  -2.891  0.00  0.00    +0.140 HD
ENDBRANCH  19  21
ENDBRANCH   6  19
TORSDOF 5
