REMARK  Name = ZINC12386918
REMARK  5 active torsions:
REMARK  status: ('A' for Active; 'I' for Inactive)
REMARK    1  A    between atoms: C_4  and  C_7
REMARK    2  A    between atoms: C_10  and  C_13
REMARK    3  A    between atoms: C_13  and  N_62
REMARK    4  A    between atoms: C_19  and  C_21
REMARK    5  A    between atoms: C_21  and  C_22
REMARK                            x       y       z     vdW  Elec       q    Type
REMARK                         _______ _______ _______ _____ _____    ______ ____
ROOT
ATOM      1  C   UNL     1      -7.061   2.502  -1.694  0.00  0.00    -0.058 C 
ATOM      2  C   UNL     1      -8.158   2.774  -0.662  0.00  0.00    +0.085 C 
ATOM      3  N   UNL     1      -7.786   3.911   0.174  0.00  0.00    -0.318 N 
ATOM      4  C   UNL     1      -6.531   4.362   0.273  0.00  0.00    +0.200 C 
ATOM      5  O   UNL     1      -6.305   5.293   1.016  0.00  0.00    -0.278 OA
ATOM      6  C   UNL     1      -5.389   3.762  -0.497  0.00  0.00    +0.028 C 
ATOM      7  H   UNL     1      -8.481   4.360   0.681  0.00  0.00    +0.149 HD
ATOM      8  N   UNL     1      -5.771   2.422  -0.980  0.00  0.00    +0.391 N 
ATOM      9  H   UNL     1      -5.872   1.791  -0.176  0.00  0.00    -0.080 HD
ENDROOT
BRANCH   8  10
ATOM     10  C   UNL     1      -4.724   1.890  -1.881  0.00  0.00    -0.042 C 
BRANCH  10  14
ATOM     11  C   UNL     1      -5.345  -2.308  -2.402  0.00  0.00    -0.018 A 
ATOM     12  C   UNL     1      -5.939  -1.399  -3.276  0.00  0.00    +0.009 A 
ATOM     13  C   UNL     1      -5.735  -0.045  -3.103  0.00  0.00    +0.002 A 
ATOM     14  C   UNL     1      -4.943   0.410  -2.065  0.00  0.00    -0.064 A 
ATOM     15  C   UNL     1      -4.346  -0.487  -1.198  0.00  0.00    +0.002 A 
ATOM     16  C   UNL     1      -4.548  -1.843  -1.358  0.00  0.00    +0.009 A 
BRANCH  11  20
ATOM     17  C   UNL     1      -5.962  -6.483  -2.921  0.00  0.00    +0.000 A 
ATOM     18  C   UNL     1      -5.170  -6.027  -1.883  0.00  0.00    +0.001 A 
ATOM     19  C   UNL     1      -4.966  -4.673  -1.710  0.00  0.00    +0.008 A 
ATOM     20  C   UNL     1      -5.560  -3.765  -2.583  0.00  0.00    -0.018 A 
ATOM     21  C   UNL     1      -6.362  -4.229  -3.624  0.00  0.00    +0.008 A 
ATOM     22  C   UNL     1      -6.555  -5.586  -3.791  0.00  0.00    +0.001 A 
ENDBRANCH  11  20
ENDBRANCH  10  14
ENDBRANCH   8  10
BRANCH   6  23
ATOM     23  C   UNL     1      -4.171   3.632   0.419  0.00  0.00    +0.090 C 
BRANCH  23  24
ATOM     24  C   UNL     1      -4.490   2.687   1.548  0.00  0.00    +0.215 C 
ATOM     25  O   UNL     1      -5.588   2.177   1.620  0.00  0.00    -0.276 OA
ATOM     26  N   UNL     1      -3.555   2.408   2.478  0.00  0.00    -0.300 N 
ATOM     27  C   UNL     1      -3.883   1.505   3.543  0.00  0.00    +0.109 C 
ATOM     28  C   UNL     1      -4.546   2.319   4.668  0.00  0.00    +0.038 C 
ATOM     29  C   UNL     1      -3.554   3.053   5.469  0.00  0.00    +0.109 C 
ATOM     30  N   UNL     1      -2.772   3.967   4.604  0.00  0.00    -0.302 N 
ATOM     31  C   UNL     1      -1.717   3.447   3.778  0.00  0.00    +0.126 C 
ATOM     32  C   UNL     1      -2.215   3.048   2.367  0.00  0.00    +0.126 C 
ATOM     33  C   UNL     1      -3.048   5.286   4.594  0.00  0.00    +0.328 C 
ATOM     34  O   UNL     1      -3.936   5.725   5.294  0.00  0.00    -0.279 OA
ENDBRANCH  23  24
ENDBRANCH   6  23
TORSDOF 5
