REMARK  Name = ZINC13500670
REMARK  13 active torsions:
REMARK  status: ('A' for Active; 'I' for Inactive)
REMARK    1  A    between atoms: C_1  and  C_2
REMARK    2  A    between atoms: C_2  and  O_3
REMARK    3  A    between atoms: O_3  and  C_4
REMARK    4  A    between atoms: C_11  and  C_16
REMARK    5  A    between atoms: C_16  and  N_70
REMARK    6  A    between atoms: C_17  and  N_70
REMARK    7  A    between atoms: C_22  and  C_24
REMARK    8  A    between atoms: C_22  and  C_35
REMARK    9  A    between atoms: C_22  and  N_70
REMARK   10  A    between atoms: N_28  and  C_29
REMARK   11  A    between atoms: C_29  and  C_30
REMARK   12  A    between atoms: C_35  and  C_36
REMARK   13  A    between atoms: C_35  and  C_37
REMARK                            x       y       z     vdW  Elec       q    Type
REMARK                         _______ _______ _______ _____ _____    ______ ____
ROOT
ATOM      1  N   UNL     1       1.299   4.040   1.181  0.00  0.00    +0.391 N 
ATOM      2  H   UNL     1       0.689   3.525   1.828  0.00  0.00    -0.080 HD
ENDROOT
BRANCH   1   3
ATOM      3  C   UNL     1       2.700   3.636   1.420  0.00  0.00    -0.067 C 
ATOM      4  C   UNL     1       3.676   4.510   0.604  0.00  0.00    -0.015 C 
ATOM      5  C   UNL     1       4.792   3.526   0.169  0.00  0.00    -0.002 C 
ATOM      6  C   UNL     1       4.004   2.228  -0.135  0.00  0.00    -0.002 C 
ATOM      7  C   UNL     1       2.909   2.186   0.951  0.00  0.00    -0.015 C 
ENDBRANCH   1   3
BRANCH   1   8
ATOM      8  C   UNL     1       0.909   3.714  -0.207  0.00  0.00    -0.036 C 
BRANCH   8  16
ATOM      9  C   UNL     1       5.009   5.372  -4.551  0.00  0.00    +0.121 A 
ATOM     10  C   UNL     1       4.608   6.704  -4.635  0.00  0.00    +0.047 A 
ATOM     11  C   UNL     1       3.581   7.178  -3.850  0.00  0.00    +0.030 A 
ATOM     12  C   UNL     1       2.934   6.325  -2.962  0.00  0.00    +0.049 A 
ATOM     13  C   UNL     1       3.336   4.979  -2.874  0.00  0.00    +0.002 A 
ATOM     14  C   UNL     1       4.380   4.509  -3.678  0.00  0.00    +0.055 A 
ATOM     15  C   UNL     1       2.645   4.092  -1.936  0.00  0.00    +0.017 A 
ATOM     16  C   UNL     1       1.640   4.601  -1.183  0.00  0.00    +0.001 A 
ATOM     17  C   UNL     1       1.275   5.958  -1.308  0.00  0.00    +0.251 A 
ATOM     18  O   UNL     1       0.368   6.396  -0.621  0.00  0.00    -0.268 OA
ATOM     19  N   UNL     1       1.902   6.781  -2.167  0.00  0.00    -0.322 N 
ATOM     20  H   UNL     1       1.626   7.709  -2.227  0.00  0.00    +0.169 HD
BRANCH   9  21
ATOM     21  O   UNL     1       6.024   4.921  -5.335  0.00  0.00    -0.492 OA
BRANCH  21  23
ATOM     22  C   UNL     1       7.746   5.180  -7.011  0.00  0.00    +0.048 C 
ATOM     23  C   UNL     1       6.632   5.866  -6.217  0.00  0.00    +0.225 C 
ENDBRANCH  21  23
ENDBRANCH   9  21
ENDBRANCH   8  16
ENDBRANCH   1   8
BRANCH   1  24
ATOM     24  C   UNL     1       1.142   5.489   1.423  0.00  0.00    +0.006 C 
BRANCH  24  25
ATOM     25  C   UNL     1       2.040   5.906   2.559  0.00  0.00    +0.139 A 
ATOM     26  N   UNL     1       2.251   5.247   3.672  0.00  0.00    -0.115 NA
ATOM     27  N   UNL     1       3.080   5.928   4.386  0.00  0.00    -0.023 NA
ATOM     28  N   UNL     1       3.397   7.007   3.761  0.00  0.00    -0.044 NA
ATOM     29  N   UNL     1       2.777   7.030   2.630  0.00  0.00    -0.223 N 
BRANCH  29  30
ATOM     30  C   UNL     1       2.858   8.083   1.614  0.00  0.00    +0.221 C 
BRANCH  30  31
ATOM     31  C   UNL     1       1.796   9.119   1.879  0.00  0.00    +0.126 A 
ATOM     32  C   UNL     1       1.938  10.211   2.651  0.00  0.00    +0.046 A 
ATOM     33  C   UNL     1       0.704  10.901   2.617  0.00  0.00    +0.041 A 
ATOM     34  C   UNL     1      -0.121  10.184   1.832  0.00  0.00    +0.195 A 
ATOM     35  O   UNL     1       0.546   9.106   1.388  0.00  0.00    -0.466 OA
ENDBRANCH  30  31
ENDBRANCH  29  30
ENDBRANCH  24  25
BRANCH  24  36
ATOM     36  C   UNL     1      -0.316   5.766   1.797  0.00  0.00    -0.024 C 
ATOM     37  C   UNL     1      -1.240   5.063   0.802  0.00  0.00    +0.006 C 
ATOM     38  C   UNL     1      -0.590   5.240   3.207  0.00  0.00    +0.006 C 
ENDBRANCH  24  36
ENDBRANCH   1  24
TORSDOF 10
