REMARK  Name = ZINC65011058
REMARK  8 active torsions:
REMARK  status: ('A' for Active; 'I' for Inactive)
REMARK    1  A    between atoms: C_1  and  C_2
REMARK    2  A    between atoms: C_5  and  C_19
REMARK    3  A    between atoms: C_7  and  S_8
REMARK    4  A    between atoms: S_8  and  N_11
REMARK    5  A    between atoms: N_11  and  C_12
REMARK    6  A    between atoms: C_12  and  C_13
REMARK    7  A    between atoms: C_13  and  C_14
REMARK    8  A    between atoms: C_20  and  C_31
REMARK                            x       y       z     vdW  Elec       q    Type
REMARK                         _______ _______ _______ _____ _____    ______ ____
ROOT
ATOM      1  C   UNL     1      -0.500   1.403  -0.055  0.00  0.00    +0.046 C 
ATOM      2  C   UNL     1      -0.364  -0.098  -0.043  0.00  0.00    -0.024 A 
ATOM      3  C   UNL     1      -0.567  -0.818  -1.207  0.00  0.00    +0.006 A 
ATOM      4  C   UNL     1      -0.444  -2.192  -1.202  0.00  0.00    +0.009 A 
ATOM      5  C   UNL     1      -0.114  -2.855  -0.021  0.00  0.00    -0.011 A 
ATOM      6  C   UNL     1       0.090  -2.125   1.148  0.00  0.00    +0.037 A 
ATOM      7  C   UNL     1      -0.030  -0.750   1.130  0.00  0.00    +0.109 A 
ENDROOT
BRANCH   5   8
ATOM      8  C   UNL     1       0.019  -4.332  -0.009  0.00  0.00    +0.045 A 
ATOM      9  C   UNL     1      -0.802  -5.237   0.690  0.00  0.00    +0.070 A 
ATOM     10  N   UNL     1      -0.388  -6.445   0.442  0.00  0.00    -0.167 NA
ATOM     11  N   UNL     1       0.695  -6.386  -0.457  0.00  0.00    -0.185 N 
ATOM     12  C   UNL     1       0.974  -5.078  -0.691  0.00  0.00    +0.139 A 
ATOM     13  N   UNL     1       2.020  -4.502  -1.384  0.00  0.00    -0.270 N 
ATOM     14  C   UNL     1       2.608  -5.033  -2.476  0.00  0.00    +0.219 C 
ATOM     15  O   UNL     1       3.536  -4.458  -3.005  0.00  0.00    -0.275 OA
ATOM     16  C   UNL     1       2.117  -6.328  -3.031  0.00  0.00    +0.105 C 
ATOM     17  C   UNL     1       2.280  -7.456  -2.045  0.00  0.00    +0.110 C 
ATOM     18  C   UNL     1       1.266  -7.493  -0.977  0.00  0.00    +0.250 C 
ATOM     19  O   UNL     1       0.918  -8.570  -0.554  0.00  0.00    -0.271 OA
ATOM     20  C   UNL     1      -1.964  -4.868   1.576  0.00  0.00    +0.068 C 
ATOM     21  H   UNL     1       2.356  -3.652  -1.062  0.00  0.00    +0.156 HD
ENDBRANCH   5   8
BRANCH   7  22
ATOM     22  S   UNL     1       0.234   0.175   2.606  0.00  0.00    +0.059 S 
ATOM     23  O   UNL     1       0.525  -0.766   3.629  0.00  0.00    -0.153 OA
ATOM     24  O   UNL     1       1.123   1.232   2.268  0.00  0.00    -0.153 OA
BRANCH  22  25
ATOM     25  N   UNL     1      -1.209   0.880   3.007  0.00  0.00    -0.190 NA
ATOM     26  H   UNL     1      -1.294   1.847   3.006  0.00  0.00    +0.148 HD
BRANCH  25  27
ATOM     27  C   UNL     1      -2.358   0.044   3.364  0.00  0.00    +0.111 C 
BRANCH  27  28
ATOM     28  C   UNL     1      -3.420   0.904   4.054  0.00  0.00    +0.059 C 
BRANCH  28  29
ATOM     29  C   UNL     1      -4.602   0.044   4.421  0.00  0.00    -0.009 A 
ATOM     30  C   UNL     1      -4.834  -0.644   5.565  0.00  0.00    +0.011 A 
ATOM     31  C   UNL     1      -6.002  -1.374   5.683  0.00  0.00    +0.008 A 
ATOM     32  C   UNL     1      -6.880  -1.380   4.651  0.00  0.00    +0.045 A 
ATOM     33  S   UNL     1      -6.063  -0.325   3.464  0.00  0.00    -0.102 S 
ENDBRANCH  28  29
ENDBRANCH  27  28
ENDBRANCH  25  27
ENDBRANCH  22  25
ENDBRANCH   7  22
TORSDOF 6
