REMARK  Name = ZINC20748470
REMARK  6 active torsions:
REMARK  status: ('A' for Active; 'I' for Inactive)
REMARK    1  A    between atoms: C_1  and  C_2
REMARK    2  A    between atoms: C_2  and  O_3
REMARK    3  A    between atoms: O_3  and  C_4
REMARK    4  A    between atoms: C_9  and  C_10
REMARK    5  A    between atoms: C_21  and  N_27
REMARK    6  A    between atoms: C_23  and  O_26
REMARK                            x       y       z     vdW  Elec       q    Type
REMARK                         _______ _______ _______ _____ _____    ______ ____
ROOT
ATOM      1  C   UNL     1      -0.831   0.842  -2.461  0.00  0.00    +0.109 C 
ATOM      2  C   UNL     1      -0.830   1.631  -1.168  0.00  0.00    +0.029 C 
ATOM      3  C   UNL     1      -0.013   1.086   0.008  0.00  0.00    +0.033 C 
ATOM      4  C   UNL     1      -0.807   1.618   1.204  0.00  0.00    -0.030 C 
ATOM      5  C   UNL     1      -2.076   1.804   0.857  0.00  0.00    -0.023 C 
ATOM      6  C   UNL     1      -2.245   1.386  -0.557  0.00  0.00    +0.049 C 
ATOM      7  C   UNL     1      -3.218   2.031  -1.466  0.00  0.00    -0.014 A 
ATOM      8  C   UNL     1      -4.383   2.603  -0.996  0.00  0.00    +0.039 A 
ATOM      9  C   UNL     1      -5.282   3.187  -1.867  0.00  0.00    +0.130 A 
ATOM     10  C   UNL     1      -5.011   3.198  -3.223  0.00  0.00    +0.080 A 
ATOM     11  C   UNL     1      -3.847   2.632  -3.704  0.00  0.00    +0.140 A 
ATOM     12  C   UNL     1      -2.924   2.044  -2.830  0.00  0.00    +0.074 A 
ATOM     13  N   UNL     1      -1.752   1.525  -3.384  0.00  0.00    -0.334 N 
ATOM     14  H   UNL     1      -1.500   1.607  -4.451  0.00  0.00    +0.147 HD
ENDROOT
BRANCH   1  20
ATOM     15  C   UNL     1       1.472  -0.138  -2.621  0.00  0.00    +0.125 A 
ATOM     16  C   UNL     1       2.747  -0.164  -3.167  0.00  0.00    +0.046 A 
ATOM     17  C   UNL     1       3.107   0.766  -4.123  0.00  0.00    +0.004 A 
ATOM     18  C   UNL     1       2.196   1.718  -4.541  0.00  0.00    +0.001 A 
ATOM     19  C   UNL     1       0.922   1.742  -4.004  0.00  0.00    +0.009 A 
ATOM     20  C   UNL     1       0.557   0.815  -3.047  0.00  0.00    +0.015 A 
BRANCH  15  21
ATOM     21  O   UNL     1       1.117  -1.047  -1.676  0.00  0.00    -0.492 OA
BRANCH  21  23
ATOM     22  C   UNL     1       1.531  -2.932  -0.221  0.00  0.00    +0.048 C 
ATOM     23  C   UNL     1       2.109  -1.998  -1.286  0.00  0.00    +0.225 C 
ENDBRANCH  21  23
ENDBRANCH  15  21
ENDBRANCH   1  20
BRANCH   9  24
ATOM     24  N   UNL     1      -6.527   3.798  -1.351  0.00  0.00    +0.057 N 
ATOM     25  O   UNL     1      -7.317   4.313  -2.122  0.00  0.00    -0.126 OA
ATOM     26  O   UNL     1      -6.762   3.787  -0.156  0.00  0.00    -0.126 OA
ENDBRANCH   9  24
BRANCH  11  27
ATOM     27  O   UNL     1      -3.593   2.648  -5.040  0.00  0.00    -0.505 OA
ATOM     28  H   UNL     1      -2.668   2.199  -5.429  0.00  0.00    +0.292 HD
ENDBRANCH  11  27
TORSDOF 5
