REMARK  Name = ZINC10099892
REMARK  8 active torsions:
REMARK  status: ('A' for Active; 'I' for Inactive)
REMARK    1  A    between atoms: C_1  and  N_2
REMARK    2  A    between atoms: N_2  and  C_3
REMARK    3  A    between atoms: N_2  and  S_6
REMARK    4  A    between atoms: S_6  and  C_9
REMARK    5  A    between atoms: C_12  and  C_15
REMARK    6  A    between atoms: C_15  and  N_17
REMARK    7  A    between atoms: N_19  and  C_31
REMARK    8  A    between atoms: C_31  and  C_32
REMARK                            x       y       z     vdW  Elec       q    Type
REMARK                         _______ _______ _______ _____ _____    ______ ____
ROOT
ATOM      1  N   UNL     1       4.371   7.144  -0.934  0.00  0.00    -0.152 NA
ATOM      2  C   UNL     1       3.966   5.909  -0.657  0.00  0.00    +0.167 A 
ATOM      3  N   UNL     1       2.702   5.407  -0.696  0.00  0.00    -0.317 N 
ATOM      4  C   UNL     1       2.472   4.082  -0.370  0.00  0.00    +0.062 A 
ATOM      5  C   UNL     1       1.250   3.392  -0.351  0.00  0.00    +0.076 A 
ATOM      6  C   UNL     1       1.192   2.058   0.002  0.00  0.00    +0.164 A 
ATOM      7  C   UNL     1       2.349   1.364   0.346  0.00  0.00    +0.163 A 
ATOM      8  C   UNL     1       3.567   2.026   0.335  0.00  0.00    +0.066 A 
ATOM      9  C   UNL     1       3.617   3.354  -0.016  0.00  0.00    +0.043 A 
ATOM     10  S   UNL     1       4.921   4.550  -0.159  0.00  0.00    -0.052 S 
ATOM     11  O   UNL     1       2.304   0.049   0.692  0.00  0.00    -0.485 OA
ATOM     12  C   UNL     1       1.020  -0.478   1.048  0.00  0.00    +0.270 C 
ATOM     13  C   UNL     1       0.002  -0.004   0.002  0.00  0.00    +0.270 C 
ATOM     14  O   UNL     1      -0.017   1.427   0.010  0.00  0.00    -0.485 OA
ENDROOT
BRANCH   1  15
ATOM     15  C   UNL     1       5.666   7.459  -0.841  0.00  0.00    +0.269 C 
ATOM     16  O   UNL     1       6.476   6.614  -0.502  0.00  0.00    -0.268 OA
BRANCH  15  20
ATOM     17  C   UNL     1       6.962  11.409  -1.726  0.00  0.00    +0.106 A 
ATOM     18  C   UNL     1       7.884  10.451  -1.342  0.00  0.00    +0.029 A 
ATOM     19  C   UNL     1       7.469   9.167  -1.053  0.00  0.00    +0.015 A 
ATOM     20  C   UNL     1       6.118   8.835  -1.149  0.00  0.00    +0.039 A 
ATOM     21  C   UNL     1       5.194   9.804  -1.543  0.00  0.00    +0.015 A 
ATOM     22  C   UNL     1       5.620  11.086  -1.823  0.00  0.00    +0.029 A 
BRANCH  17  23
ATOM     23  S   UNL     1       7.499  13.046  -2.093  0.00  0.00    +0.061 S 
ATOM     24  O   UNL     1       6.376  13.895  -1.900  0.00  0.00    -0.153 OA
ATOM     25  O   UNL     1       8.726  13.236  -1.401  0.00  0.00    -0.153 OA
BRANCH  23  27
ATOM     26  C   UNL     1       6.817  13.450  -4.679  0.00  0.00    +0.132 C 
ATOM     27  N   UNL     1       7.856  13.094  -3.710  0.00  0.00    -0.177 NA
BRANCH  27  28
ATOM     28  C   UNL     1       9.211  12.779  -4.170  0.00  0.00    +0.080 C 
ATOM     29  C   UNL     1       9.533  13.034  -5.644  0.00  0.00    +0.022 C 
ATOM     30  C   UNL     1       9.374  11.601  -5.133  0.00  0.00    +0.022 C 
ENDBRANCH  27  28
ENDBRANCH  23  27
ENDBRANCH  17  23
ENDBRANCH  15  20
ENDBRANCH   1  15
BRANCH   3  31
ATOM     31  C   UNL     1       1.584   6.271  -1.083  0.00  0.00    +0.151 C 
BRANCH  31  32
ATOM     32  C   UNL     1       1.884   7.692  -0.682  0.00  0.00    -0.013 C 
ATOM     33  C   UNL     1       1.842   8.648  -1.577  0.00  0.00    +0.005 C 
ENDBRANCH  31  32
ENDBRANCH   3  31
TORSDOF 7
