REMARK  Name = ZINC39543266
REMARK  6 active torsions:
REMARK  status: ('A' for Active; 'I' for Inactive)
REMARK    1  A    between atoms: C_1  and  C_2
REMARK    2  A    between atoms: C_7  and  C_9
REMARK    3  A    between atoms: C_7  and  C_10
REMARK    4  A    between atoms: N_13  and  C_17
REMARK    5  A    between atoms: C_17  and  C_18
REMARK    6  A    between atoms: C_24  and  C_26
REMARK                            x       y       z     vdW  Elec       q    Type
REMARK                         _______ _______ _______ _____ _____    ______ ____
ROOT
ATOM      1  C   UNL     1      -4.079  -4.264  -1.458  0.00  0.00    +0.213 C 
ENDROOT
BRANCH   1  13
ATOM      2  C   UNL     1      -0.159   1.471  -0.048  0.00  0.00    +0.007 C 
ATOM      3  C   UNL     1      -0.085  -0.057  -0.027  0.00  0.00    -0.011 C 
ATOM      4  C   UNL     1      -1.501  -0.636   0.015  0.00  0.00    +0.038 C 
ATOM      5  C   UNL     1      -1.428  -2.159   0.057  0.00  0.00    +0.113 C 
ATOM      6  C   UNL     1      -0.642  -2.627   1.276  0.00  0.00    +0.041 C 
ATOM      7  C   UNL     1       0.772  -2.041   1.230  0.00  0.00    -0.032 C 
ATOM      8  C   UNL     1       0.688  -0.513   1.212  0.00  0.00    +0.009 C 
ATOM      9  C   UNL     1       1.485  -2.527  -0.033  0.00  0.00    +0.011 C 
ATOM     10  C   UNL     1       1.553  -2.495   2.465  0.00  0.00    +0.011 C 
ATOM     11  C   UNL     1      -2.817  -2.754   0.064  0.00  0.00    +0.247 C 
ATOM     12  O   UNL     1      -3.679  -2.595   0.901  0.00  0.00    -0.273 OA
ATOM     13  N   UNL     1      -2.895  -3.499  -1.058  0.00  0.00    -0.215 N 
ATOM     14  C   UNL     1      -1.756  -3.453  -1.761  0.00  0.00    +0.310 C 
ATOM     15  O   UNL     1      -1.585  -4.042  -2.810  0.00  0.00    -0.252 OA
ATOM     16  N   UNL     1      -0.823  -2.679  -1.176  0.00  0.00    -0.285 N 
ATOM     17  H   UNL     1       0.073  -2.500  -1.504  0.00  0.00    +0.151 HD
ENDBRANCH   1  13
BRANCH   1  18
ATOM     18  C   UNL     1      -4.972  -3.399  -2.310  0.00  0.00    +0.234 C 
ATOM     19  O   UNL     1      -4.651  -2.256  -2.558  0.00  0.00    -0.274 OA
ATOM     20  N   UNL     1      -6.127  -3.895  -2.795  0.00  0.00    -0.293 N 
ATOM     21  C   UNL     1      -6.639  -5.259  -2.567  0.00  0.00    +0.108 C 
ATOM     22  C   UNL     1      -8.172  -5.144  -2.761  0.00  0.00    +0.021 C 
ATOM     23  C   UNL     1      -8.263  -4.122  -3.926  0.00  0.00    +0.029 C 
ATOM     24  C   UNL     1      -7.088  -3.165  -3.635  0.00  0.00    +0.106 C 
BRANCH  24  25
ATOM     25  C   UNL     1      -6.431  -2.756  -4.928  0.00  0.00    -0.023 A 
ATOM     26  C   UNL     1      -5.575  -3.629  -5.573  0.00  0.00    +0.009 A 
ATOM     27  C   UNL     1      -4.970  -3.257  -6.759  0.00  0.00    +0.050 A 
ATOM     28  C   UNL     1      -5.220  -2.007  -7.305  0.00  0.00    +0.162 A 
ATOM     29  C   UNL     1      -6.083  -1.130  -6.657  0.00  0.00    +0.162 A 
ATOM     30  C   UNL     1      -6.691  -1.512  -5.470  0.00  0.00    +0.055 A 
ATOM     31  O   UNL     1      -6.349   0.098  -7.180  0.00  0.00    -0.485 OA
ATOM     32  C   UNL     1      -5.442   0.585  -8.174  0.00  0.00    +0.270 C 
ATOM     33  C   UNL     1      -5.179  -0.545  -9.180  0.00  0.00    +0.270 C 
ATOM     34  O   UNL     1      -4.614  -1.653  -8.471  0.00  0.00    -0.485 OA
ENDBRANCH  24  25
ENDBRANCH   1  18
TORSDOF 3
