REMARK  Name = ZINC39688370
REMARK  6 active torsions:
REMARK  status: ('A' for Active; 'I' for Inactive)
REMARK    1  A    between atoms: C_1  and  C_2
REMARK    2  A    between atoms: C_2  and  C_4
REMARK    3  A    between atoms: C_2  and  N_12
REMARK    4  A    between atoms: C_4  and  C_5
REMARK    5  A    between atoms: C_13  and  C_15
REMARK    6  A    between atoms: C_26  and  C_28
REMARK                            x       y       z     vdW  Elec       q    Type
REMARK                         _______ _______ _______ _____ _____    ______ ____
ROOT
ATOM      1  C   UNL     1      -3.463  -1.166  -1.127  0.00  0.00    +0.100 C 
ATOM      2  C   UNL     1      -3.483  -2.656  -0.719  0.00  0.00    +0.121 C 
ATOM      3  N   UNL     1      -4.547  -3.259  -1.556  0.00  0.00    -0.296 N 
ATOM      4  C   UNL     1      -4.393  -2.604  -2.877  0.00  0.00    +0.115 C 
ATOM      5  C   UNL     1      -4.060  -1.136  -2.544  0.00  0.00    -0.004 C 
ATOM      6  C   UNL     1      -3.039  -0.589  -3.536  0.00  0.00    -0.010 C 
ATOM      7  C   UNL     1      -3.675  -0.514  -4.927  0.00  0.00    -0.082 C 
ATOM      8  N   UNL     1      -4.857   0.356  -4.881  0.00  0.00    +0.379 N 
ATOM      9  C   UNL     1      -5.872  -0.226  -3.995  0.00  0.00    -0.082 C 
ATOM     10  C   UNL     1      -5.329  -0.289  -2.564  0.00  0.00    -0.010 C 
ATOM     11  C   UNL     1      -5.451  -4.192  -1.196  0.00  0.00    +0.248 C 
ATOM     12  O   UNL     1      -5.514  -4.564  -0.041  0.00  0.00    -0.270 OA
ATOM     13  H   UNL     1      -4.591   1.265  -4.533  0.00  0.00    -0.086 HD
ATOM     14  H   UNL     1      -5.239   0.453  -5.810  0.00  0.00    -0.086 HD
ENDROOT
BRANCH  11  15
ATOM     15  C   UNL     1      -6.365  -4.762  -2.207  0.00  0.00    +0.055 A 
ATOM     16  C   UNL     1      -5.925  -4.964  -3.517  0.00  0.00    +0.016 A 
ATOM     17  C   UNL     1      -6.782  -5.496  -4.455  0.00  0.00    +0.021 A 
ATOM     18  C   UNL     1      -8.080  -5.831  -4.103  0.00  0.00    +0.042 A 
ATOM     19  C   UNL     1      -8.524  -5.633  -2.807  0.00  0.00    +0.040 A 
ATOM     20  C   UNL     1      -7.673  -5.107  -1.855  0.00  0.00    +0.054 A 
ATOM     21 CL   UNL     1      -8.228  -4.867  -0.228  0.00  0.00    -0.083 Cl
ATOM     22 CL   UNL     1      -9.153  -6.500  -5.291  0.00  0.00    -0.083 Cl
ENDBRANCH  11  15
BRANCH   1  24
ATOM     23  N   UNL     1      -1.818   0.681  -1.058  0.00  0.00    -0.312 N 
ATOM     24  C   UNL     1      -2.049  -0.645  -1.143  0.00  0.00    +0.218 C 
ATOM     25  O   UNL     1      -1.119  -1.418  -1.232  0.00  0.00    -0.275 OA
ATOM     26  H   UNL     1      -2.562   1.299  -0.986  0.00  0.00    +0.149 HD
BRANCH  23  28
ATOM     27  C   UNL     1       0.025   1.347  -2.521  0.00  0.00    +0.028 C 
ATOM     28  C   UNL     1      -0.444   1.187  -1.073  0.00  0.00    +0.074 C 
BRANCH  28  29
ATOM     29  C   UNL     1      -0.392   2.544  -0.367  0.00  0.00    +0.057 C 
BRANCH  29  30
ATOM     30  C   UNL     1      -0.735   2.366   1.089  0.00  0.00    -0.045 A 
ATOM     31  C   UNL     1      -2.051   2.453   1.504  0.00  0.00    +0.006 A 
ATOM     32  C   UNL     1      -2.367   2.290   2.840  0.00  0.00    +0.038 A 
ATOM     33  C   UNL     1      -1.365   2.039   3.762  0.00  0.00    +0.123 A 
ATOM     34  C   UNL     1      -0.048   1.951   3.345  0.00  0.00    +0.038 A 
ATOM     35  C   UNL     1       0.265   2.110   2.008  0.00  0.00    +0.006 A 
ATOM     36  F   UNL     1      -1.673   1.879   5.068  0.00  0.00    -0.205 F 
ENDBRANCH  29  30
ENDBRANCH  28  29
ENDBRANCH  23  28
ENDBRANCH   1  24
TORSDOF 5
