REMARK  Name = ZINC59362377
REMARK  7 active torsions:
REMARK  status: ('A' for Active; 'I' for Inactive)
REMARK    1  A    between atoms: C_1  and  C_2
REMARK    2  A    between atoms: C_2  and  C_26
REMARK    3  A    between atoms: N_5  and  N_9
REMARK    4  A    between atoms: C_10  and  C_12
REMARK    5  A    between atoms: N_17  and  C_19
REMARK    6  A    between atoms: C_26  and  C_27
REMARK    7  A    between atoms: C_27  and  C_28
REMARK                            x       y       z     vdW  Elec       q    Type
REMARK                         _______ _______ _______ _____ _____    ______ ____
ROOT
ATOM      1  C   UNL     1       0.019   1.514   0.086  0.00  0.00    +0.041 C 
ATOM      2  C   UNL     1       0.037  -0.015   0.067  0.00  0.00    +0.112 C 
ATOM      3  C   UNL     1       0.837  -0.525  -1.116  0.00  0.00    +0.263 C 
ATOM      4  O   UNL     1       0.606  -0.338  -2.291  0.00  0.00    -0.271 OA
ATOM      5  N   UNL     1       1.859  -1.228  -0.589  0.00  0.00    -0.137 N 
ATOM      6  C   UNL     1       1.816  -1.234   0.748  0.00  0.00    +0.326 C 
ATOM      7  O   UNL     1       2.631  -1.802   1.448  0.00  0.00    -0.251 OA
ATOM      8  N   UNL     1       0.770  -0.540   1.232  0.00  0.00    -0.284 N 
ATOM      9  H   UNL     1       0.542  -0.410   2.166  0.00  0.00    +0.151 HD
ENDROOT
BRANCH   5  10
ATOM     10  N   UNL     1       2.844  -1.874  -1.348  0.00  0.00    -0.223 N 
ATOM     11  C   UNL     1       4.081  -1.347  -1.435  0.00  0.00    +0.235 C 
ATOM     12  O   UNL     1       4.341  -0.313  -0.857  0.00  0.00    -0.274 OA
ATOM     13  H   UNL     1       2.635  -2.701  -1.810  0.00  0.00    +0.174 HD
BRANCH  11  14
ATOM     14  C   UNL     1       5.140  -2.042  -2.251  0.00  0.00    +0.103 C 
ATOM     15  C   UNL     1       4.758  -2.064  -3.749  0.00  0.00    +0.110 C 
ATOM     16  C   UNL     1       5.427  -0.833  -4.321  0.00  0.00    +0.221 C 
ATOM     17  O   UNL     1       5.156  -0.329  -5.391  0.00  0.00    -0.275 OA
ATOM     18  N   UNL     1       6.365  -0.380  -3.471  0.00  0.00    -0.271 N 
ATOM     19  C   UNL     1       6.449  -1.222  -2.271  0.00  0.00    +0.127 C 
BRANCH  18  20
ATOM     20  C   UNL     1       7.158   0.750  -3.701  0.00  0.00    +0.036 A 
ATOM     21  C   UNL     1       7.084   1.417  -4.917  0.00  0.00    +0.025 A 
ATOM     22  C   UNL     1       7.868   2.532  -5.141  0.00  0.00    +0.022 A 
ATOM     23  C   UNL     1       8.728   2.983  -4.155  0.00  0.00    +0.041 A 
ATOM     24  C   UNL     1       8.805   2.320  -2.943  0.00  0.00    +0.022 A 
ATOM     25  C   UNL     1       8.018   1.209  -2.712  0.00  0.00    +0.025 A 
ATOM     26 CL   UNL     1       9.713   4.384  -4.441  0.00  0.00    -0.084 Cl
ENDBRANCH  18  20
ENDBRANCH  11  14
ENDBRANCH   5  10
BRANCH   2  27
ATOM     27  C   UNL     1      -1.389  -0.568   0.034  0.00  0.00    +0.040 C 
BRANCH  27  28
ATOM     28  C   UNL     1      -2.153  -0.082   1.267  0.00  0.00    +0.038 C 
BRANCH  28  29
ATOM     29  C   UNL     1      -3.558  -0.626   1.235  0.00  0.00    -0.047 A 
ATOM     30  C   UNL     1      -4.562   0.089   0.610  0.00  0.00    +0.003 A 
ATOM     31  C   UNL     1      -5.851  -0.410   0.581  0.00  0.00    +0.000 A 
ATOM     32  C   UNL     1      -6.135  -1.625   1.176  0.00  0.00    +0.000 A 
ATOM     33  C   UNL     1      -5.131  -2.341   1.800  0.00  0.00    +0.000 A 
ATOM     34  C   UNL     1      -3.841  -1.843   1.826  0.00  0.00    +0.003 A 
ENDBRANCH  28  29
ENDBRANCH  27  28
ENDBRANCH   2  27
TORSDOF 6
