REMARK  Name = ZINC10015078
REMARK  7 active torsions:
REMARK  status: ('A' for Active; 'I' for Inactive)
REMARK    1  A    between atoms: C_1  and  C_2
REMARK    2  A    between atoms: C_2  and  C_4
REMARK    3  A    between atoms: C_2  and  S_11
REMARK    4  A    between atoms: N_9  and  C_10
REMARK    5  A    between atoms: S_11  and  C_12
REMARK    6  A    between atoms: C_15  and  C_23
REMARK    7  A    between atoms: N_16  and  C_17
REMARK                            x       y       z     vdW  Elec       q    Type
REMARK                         _______ _______ _______ _____ _____    ______ ____
ROOT
ATOM      1  C   UNL     1       2.533  -0.042   1.241  0.00  0.00    +0.193 A 
ATOM      2  N   UNL     1       2.983   0.657   0.223  0.00  0.00    -0.122 NA
ATOM      3  N   UNL     1       4.236   0.899   0.372  0.00  0.00    -0.125 NA
ATOM      4  C   UNL     1       4.665   0.367   1.496  0.00  0.00    +0.201 A 
ATOM      5  N   UNL     1       3.585  -0.247   2.090  0.00  0.00    -0.297 N 
ENDROOT
BRANCH   5   6
ATOM      6  C   UNL     1       3.567  -0.971   3.363  0.00  0.00    +0.091 C 
ATOM      7  C   UNL     1       3.135  -2.419   3.120  0.00  0.00    +0.025 C 
ATOM      8  C   UNL     1       3.117  -3.175   4.450  0.00  0.00    +0.002 C 
ATOM      9  C   UNL     1       2.130  -2.502   5.406  0.00  0.00    +0.000 C 
ATOM     10  C   UNL     1       2.561  -1.054   5.649  0.00  0.00    +0.002 C 
ATOM     11  C   UNL     1       2.580  -0.298   4.319  0.00  0.00    +0.025 C 
ENDBRANCH   5   6
BRANCH   4  12
ATOM     12  C   UNL     1       6.038   0.424   2.022  0.00  0.00    +0.172 A 
ATOM     13  C   UNL     1       7.023   1.266   1.601  0.00  0.00    +0.053 A 
ATOM     14  C   UNL     1       8.163   0.976   2.375  0.00  0.00    +0.042 A 
ATOM     15  C   UNL     1       7.824  -0.016   3.222  0.00  0.00    +0.196 A 
ATOM     16  O   UNL     1       6.539  -0.344   3.010  0.00  0.00    -0.460 OA
ENDBRANCH   4  12
BRANCH   1  17
ATOM     17  S   UNL     1       0.879  -0.605   1.472  0.00  0.00    -0.073 S 
BRANCH  17  19
ATOM     18  C   UNL     1      -0.019   1.526   0.010  0.00  0.00    +0.029 C 
ATOM     19  C   UNL     1       0.002  -0.004   0.002  0.00  0.00    +0.137 C 
BRANCH  19  20
ATOM     20  C   UNL     1      -1.412  -0.526   0.013  0.00  0.00    +0.233 C 
ATOM     21  O   UNL     1      -1.939  -0.827   1.062  0.00  0.00    -0.274 OA
ATOM     22  N   UNL     1      -2.090  -0.657  -1.144  0.00  0.00    -0.239 N 
ATOM     23  C   UNL     1      -3.355  -1.124  -1.135  0.00  0.00    +0.306 C 
ATOM     24  O   UNL     1      -3.883  -1.426  -0.083  0.00  0.00    -0.252 OA
ATOM     25  N   UNL     1      -4.033  -1.255  -2.292  0.00  0.00    -0.302 N 
ATOM     26  C   UNL     1      -5.408  -1.762  -2.281  0.00  0.00    +0.129 C 
ATOM     27  H   UNL     1      -1.669  -0.416  -1.984  0.00  0.00    +0.159 HD
ATOM     28  H   UNL     1      -3.611  -1.014  -3.131  0.00  0.00    +0.150 HD
ENDBRANCH  19  20
ENDBRANCH  17  19
ENDBRANCH   1  17
TORSDOF 5
