REMARK  Name = ZINC07297343
REMARK  8 active torsions:
REMARK  status: ('A' for Active; 'I' for Inactive)
REMARK    1  A    between atoms: C_1  and  C_2
REMARK    2  A    between atoms: C_2  and  C_4
REMARK    3  A    between atoms: C_2  and  S_14
REMARK    4  A    between atoms: N_9  and  C_10
REMARK    5  A    between atoms: C_10  and  C_11
REMARK    6  A    between atoms: C_10  and  C_12
REMARK    7  A    between atoms: C_10  and  C_13
REMARK    8  A    between atoms: S_14  and  C_15
REMARK                            x       y       z     vdW  Elec       q    Type
REMARK                         _______ _______ _______ _____ _____    ______ ____
ROOT
ATOM      1  C   UNL     1       2.368   1.768  -1.319  0.00  0.00    +0.029 C 
ATOM      2  C   UNL     1       1.732   2.220  -0.003  0.00  0.00    +0.137 C 
ENDROOT
BRANCH   2   3
ATOM      3  C   UNL     1       1.858   3.716   0.128  0.00  0.00    +0.233 C 
ATOM      4  O   UNL     1       0.915   4.430  -0.138  0.00  0.00    -0.274 OA
ATOM      5  N   UNL     1       3.019   4.262   0.541  0.00  0.00    -0.239 N 
ATOM      6  C   UNL     1       3.132   5.599   0.658  0.00  0.00    +0.306 C 
ATOM      7  O   UNL     1       2.186   6.315   0.391  0.00  0.00    -0.252 OA
ATOM      8  N   UNL     1       4.293   6.144   1.071  0.00  0.00    -0.294 N 
ATOM      9  H   UNL     1       3.774   3.691   0.754  0.00  0.00    +0.159 HD
ATOM     10  H   UNL     1       5.048   5.574   1.284  0.00  0.00    +0.151 HD
BRANCH   8  11
ATOM     11  C   UNL     1       4.416   7.599   1.198  0.00  0.00    +0.028 C 
ATOM     12  C   UNL     1       3.387   8.111   2.208  0.00  0.00    +0.031 C 
ATOM     13  C   UNL     1       5.824   7.952   1.681  0.00  0.00    +0.031 C 
ATOM     14  C   UNL     1       4.164   8.253  -0.162  0.00  0.00    +0.031 C 
ENDBRANCH   8  11
ENDBRANCH   2   3
BRANCH   2  15
ATOM     15  S   UNL     1      -0.022   1.758   0.012  0.00  0.00    -0.073 S 
BRANCH  15  16
ATOM     16  C   UNL     1       0.002  -0.004   0.002  0.00  0.00    +0.197 A 
ATOM     17  N   UNL     1       1.071  -0.768  -0.018  0.00  0.00    -0.122 NA
ATOM     18  N   UNL     1       0.732  -2.010  -0.017  0.00  0.00    -0.129 NA
ATOM     19  C   UNL     1      -0.584  -2.111  -0.004  0.00  0.00    +0.162 A 
ATOM     20  N   UNL     1      -1.085  -0.827   0.008  0.00  0.00    -0.278 N 
ATOM     21  C   UNL     1      -2.435  -0.611   0.022  0.00  0.00    +0.095 A 
ATOM     22  C   UNL     1      -3.293  -1.651   0.025  0.00  0.00    +0.018 A 
ATOM     23  C   UNL     1      -2.812  -2.973   0.013  0.00  0.00    +0.005 A 
ATOM     24  C   UNL     1      -1.472  -3.205  -0.002  0.00  0.00    +0.049 A 
ENDBRANCH  15  16
ENDBRANCH   2  15
TORSDOF 4
