REMARK  Name = ZINC03803653
REMARK  18 active torsions:
REMARK  status: ('A' for Active; 'I' for Inactive)
REMARK    1  A    between atoms: C_1  and  C_2
REMARK    2  A    between atoms: C_2  and  O_4
REMARK    3  A    between atoms: O_4  and  C_5
REMARK    4  A    between atoms: C_7  and  O_33
REMARK    5  A    between atoms: C_11  and  C_31
REMARK    6  A    between atoms: C_11  and  C_32
REMARK    7  A    between atoms: C_14  and  O_30
REMARK    8  A    between atoms: C_16  and  C_29
REMARK    9  A    between atoms: C_17  and  O_28
REMARK   10  A    between atoms: C_18  and  C_27
REMARK   11  A    between atoms: C_20  and  C_24
REMARK   12  A    between atoms: C_20  and  C_25
REMARK   13  A    between atoms: O_33  and  C_34
REMARK   14  A    between atoms: C_34  and  C_36
REMARK   15  A    between atoms: C_36  and  C_37
REMARK   16  A    between atoms: C_37  and  N_79
REMARK   17  A    between atoms: C_38  and  N_79
REMARK   18  A    between atoms: C_39  and  N_79
REMARK                            x       y       z     vdW  Elec       q    Type
REMARK                         _______ _______ _______ _____ _____    ______ ____
ROOT
ATOM      1  C   UNL     1       3.052   1.089  -0.450  0.00  0.00    +0.252 C 
ATOM      2  C   UNL     1       3.902   0.755  -1.676  0.00  0.00    +0.224 C 
ATOM      3  C   UNL     1       5.223   0.127  -1.262  0.00  0.00    +0.051 C 
ATOM      4  C   UNL     1       5.987  -0.504  -2.403  0.00  0.00    -0.028 C 
ATOM      5  C   UNL     1       7.326  -1.090  -1.947  0.00  0.00    +0.009 C 
ATOM      6  C   UNL     1       8.120  -0.094  -1.111  0.00  0.00    +0.032 C 
ATOM      7  C   UNL     1       7.298   0.310   0.114  0.00  0.00    +0.124 C 
ATOM      8  C   UNL     1       6.025   1.044  -0.344  0.00  0.00    +0.039 C 
ATOM      9  C   UNL     1       5.167   1.360   0.869  0.00  0.00    +0.164 C 
ATOM     10  C   UNL     1       3.800   1.966   0.551  0.00  0.00    +0.144 C 
ATOM     11  O   UNL     1       3.065   1.989   1.777  0.00  0.00    -0.356 OA
ATOM     12  C   UNL     1       3.571   2.546   2.964  0.00  0.00    +0.092 C 
ATOM     13  C   UNL     1       5.077   2.443   3.177  0.00  0.00    +0.116 C 
ATOM     14  C   UNL     1       5.820   2.291   1.863  0.00  0.00    +0.171 C 
ATOM     15  O   UNL     1       6.857   2.870   1.669  0.00  0.00    -0.294 OA
ATOM     16  C   UNL     1       3.152   4.020   3.099  0.00  0.00    +0.046 C 
ATOM     17  C   UNL     1       3.876   3.397   0.029  0.00  0.00    +0.049 C 
ATOM     18  C   UNL     1       6.481   2.316  -1.063  0.00  0.00    +0.017 C 
ATOM     19  C   UNL     1       5.161  -1.698  -2.941  0.00  0.00    +0.011 C 
ATOM     20  C   UNL     1       6.230   0.439  -3.579  0.00  0.00    +0.011 C 
ENDROOT
BRANCH  12  21
ATOM     21  C   UNL     1       2.909   1.810   4.128  0.00  0.00    -0.000 C 
ATOM     22  C   UNL     1       2.131   0.782   3.896  0.00  0.00    +0.007 C 
ENDBRANCH  12  21
BRANCH   9  23
ATOM     23  O   UNL     1       4.897   0.123   1.573  0.00  0.00    -0.377 OA
ATOM     24  H   UNL     1       4.402   0.238   2.396  0.00  0.00    +0.211 HD
ENDBRANCH   9  23
BRANCH   7  25
ATOM     25  O   UNL     1       6.968  -0.868   0.848  0.00  0.00    -0.391 OA
ATOM     26  H   UNL     1       7.737  -1.366   1.158  0.00  0.00    +0.210 HD
ENDBRANCH   7  25
BRANCH   1  27
ATOM     27  O   UNL     1       1.844   1.780  -0.880  0.00  0.00    -0.455 OA
BRANCH  27  29
ATOM     28  C   UNL     1      -0.486   1.660  -1.685  0.00  0.00    +0.136 C 
ATOM     29  C   UNL     1       0.795   1.016  -1.224  0.00  0.00    +0.304 C 
ATOM     30  O   UNL     1       0.881  -0.188  -1.169  0.00  0.00    -0.251 OA
ENDBRANCH  27  29
ENDBRANCH   1  27
BRANCH   2  31
ATOM     31  O   UNL     1       4.063   1.925  -2.507  0.00  0.00    -0.457 OA
BRANCH  31  32
ATOM     32  C   UNL     1       3.142   2.124  -3.464  0.00  0.00    +0.306 C 
ATOM     33  O   UNL     1       2.232   1.341  -3.598  0.00  0.00    -0.251 OA
BRANCH  32  34
ATOM     34  C   UNL     1       3.244   3.324  -4.370  0.00  0.00    +0.102 C 
BRANCH  34  35
ATOM     35  C   UNL     1       2.080   3.314  -5.363  0.00  0.00    -0.068 C 
BRANCH  35  38
ATOM     36  C   UNL     1       3.370   4.396  -7.103  0.00  0.00    -0.097 C 
ATOM     37  C   UNL     1       0.962   4.639  -7.053  0.00  0.00    -0.097 C 
ATOM     38  N   UNL     1       2.183   4.506  -6.230  0.00  0.00    +0.376 N 
ATOM     39  H   UNL     1       2.279   5.341  -5.639  0.00  0.00    -0.083 HD
ENDBRANCH  35  38
ENDBRANCH  34  35
ENDBRANCH  32  34
ENDBRANCH  31  32
ENDBRANCH   2  31
TORSDOF 10
