REMARK  Name = ZINC12804977
REMARK  10 active torsions:
REMARK  status: ('A' for Active; 'I' for Inactive)
REMARK    1  A    between atoms: C_1  and  C_2
REMARK    2  A    between atoms: C_3  and  C_33
REMARK    3  A    between atoms: N_4  and  C_28
REMARK    4  A    between atoms: C_5  and  N_9
REMARK    5  A    between atoms: C_6  and  C_7
REMARK    6  A    between atoms: C_10  and  C_12
REMARK    7  A    between atoms: C_12  and  O_13
REMARK    8  A    between atoms: O_13  and  C_14
REMARK    9  A    between atoms: C_14  and  C_16
REMARK   10  A    between atoms: C_17  and  C_18
REMARK                            x       y       z     vdW  Elec       q    Type
REMARK                         _______ _______ _______ _____ _____    ______ ____
ROOT
ATOM      1  N   UNL     1     -10.877  -0.577  -0.038  0.00  0.00    -0.268 N 
ATOM      2  C   UNL     1      -9.639  -0.053   0.059  0.00  0.00    +0.256 C 
ATOM      3  O   UNL     1      -9.494   1.145   0.174  0.00  0.00    -0.272 OA
ATOM      4  H   UNL     1     -10.998  -1.539  -0.043  0.00  0.00    +0.156 HD
ENDROOT
BRANCH   1   9
ATOM      5  C   UNL     1     -13.912   3.342  -1.023  0.00  0.00    +0.047 C 
ATOM      6  C   UNL     1     -13.375   2.012  -0.560  0.00  0.00    -0.011 A 
ATOM      7  C   UNL     1     -14.065   1.041   0.061  0.00  0.00    +0.022 A 
ATOM      8  N   UNL     1     -13.231  -0.014   0.316  0.00  0.00    -0.329 N 
ATOM      9  C   UNL     1     -11.978   0.261  -0.130  0.00  0.00    +0.124 A 
ATOM     10  C   UNL     1     -11.997   1.527  -0.699  0.00  0.00    +0.095 A 
ATOM     11  C   UNL     1     -15.529   1.102   0.415  0.00  0.00    +0.064 C 
BRANCH   8  12
ATOM     12  C   UNL     1     -13.632  -1.259   0.977  0.00  0.00    +0.089 C 
ATOM     13  C   UNL     1     -12.685  -1.559   2.157  0.00  0.00    +0.025 C 
ATOM     14  C   UNL     1     -12.526  -3.100   2.134  0.00  0.00    +0.002 C 
ATOM     15  C   UNL     1     -12.483  -3.417   0.618  0.00  0.00    +0.002 C 
ATOM     16  C   UNL     1     -13.504  -2.440  -0.001  0.00  0.00    +0.025 C 
ENDBRANCH   8  12
BRANCH  10  17
ATOM     17  C   UNL     1     -10.896   2.218  -1.300  0.00  0.00    +0.103 C 
ATOM     18  N   UNL     1     -10.023   2.766  -1.776  0.00  0.00    -0.191 NA
ENDBRANCH  10  17
ENDBRANCH   1   9
BRANCH   2  19
ATOM     19  C   UNL     1      -8.434  -0.958   0.024  0.00  0.00    +0.328 C 
BRANCH  19  20
ATOM     20  O   UNL     1      -7.244  -0.166   0.026  0.00  0.00    -0.452 OA
BRANCH  20  21
ATOM     21  C   UNL     1      -6.068  -0.828  -0.003  0.00  0.00    +0.332 C 
ATOM     22  O   UNL     1      -6.055  -2.044  -0.029  0.00  0.00    -0.246 OA
BRANCH  21  23
ATOM     23  C   UNL     1      -4.848  -0.105  -0.004  0.00  0.00    +0.092 C 
ATOM     24  C   UNL     1      -3.671  -0.767  -0.033  0.00  0.00    +0.015 C 
BRANCH  24  25
ATOM     25  C   UNL     1      -2.406  -0.019  -0.034  0.00  0.00    -0.021 A 
ATOM     26  C   UNL     1      -2.419   1.381  -0.004  0.00  0.00    +0.012 A 
ATOM     27  C   UNL     1      -1.232   2.078  -0.009  0.00  0.00    +0.050 A 
ATOM     28  C   UNL     1      -0.019   1.399  -0.036  0.00  0.00    +0.162 A 
ATOM     29  C   UNL     1       0.001   0.007  -0.064  0.00  0.00    +0.163 A 
ATOM     30  C   UNL     1      -1.186  -0.702  -0.064  0.00  0.00    +0.057 A 
ATOM     31  O   UNL     1       1.181  -0.672  -0.090  0.00  0.00    -0.485 OA
ATOM     32  C   UNL     1       2.344   0.073  -0.467  0.00  0.00    +0.270 C 
ATOM     33  C   UNL     1       2.334   1.400   0.304  0.00  0.00    +0.270 C 
ATOM     34  O   UNL     1       1.140   2.111  -0.041  0.00  0.00    -0.485 OA
ENDBRANCH  24  25
ENDBRANCH  21  23
ENDBRANCH  20  21
ENDBRANCH  19  20
ENDBRANCH   2  19
TORSDOF 8
