REMARK  Name = ZINC04915333
REMARK  8 active torsions:
REMARK  status: ('A' for Active; 'I' for Inactive)
REMARK    1  A    between atoms: C_1  and  C_2
REMARK    2  A    between atoms: C_2  and  O_4
REMARK    3  A    between atoms: O_4  and  C_5
REMARK    4  A    between atoms: C_8  and  O_38
REMARK    5  A    between atoms: C_16  and  O_37
REMARK    6  A    between atoms: C_20  and  C_36
REMARK    7  A    between atoms: C_25  and  C_35
REMARK    8  A    between atoms: C_26  and  C_28
REMARK                            x       y       z     vdW  Elec       q    Type
REMARK                         _______ _______ _______ _____ _____    ______ ____
ROOT
ATOM      1  C   UNL     1       0.217   3.240  -1.798  0.00  0.00    +0.187 C 
ATOM      2  C   UNL     1      -0.649   2.030  -1.422  0.00  0.00    +0.080 C 
ATOM      3  C   UNL     1      -0.121   1.505  -0.062  0.00  0.00    +0.079 C 
ATOM      4  C   UNL     1      -1.023   2.022   1.045  0.00  0.00    +0.025 C 
ATOM      5  C   UNL     1      -1.563   3.422   0.780  0.00  0.00    +0.007 C 
ATOM      6  C   UNL     1      -2.669   3.695   1.810  0.00  0.00    +0.004 C 
ATOM      7  C   UNL     1      -2.061   3.705   3.211  0.00  0.00    -0.002 C 
ATOM      8  C   UNL     1      -1.220   4.967   3.386  0.00  0.00    +0.035 C 
ATOM      9  C   UNL     1      -0.717   5.030   4.830  0.00  0.00    +0.115 C 
ATOM     10  C   UNL     1       0.196   3.827   5.068  0.00  0.00    +0.032 C 
ATOM     11  C   UNL     1      -0.551   2.524   4.853  0.00  0.00    +0.010 C 
ATOM     12  C   UNL     1      -1.303   2.432   3.525  0.00  0.00    -0.026 C 
ATOM     13  C   UNL     1      -0.368   1.961   2.417  0.00  0.00    +0.001 C 
ATOM     14  C   UNL     1       0.936   2.752   2.406  0.00  0.00    +0.005 C 
ATOM     15  C   UNL     1       1.893   2.147   1.388  0.00  0.00    +0.010 C 
ATOM     16  C   UNL     1       1.331   1.985   0.003  0.00  0.00    +0.007 C 
ATOM     17  C   UNL     1       1.474   3.198  -0.911  0.00  0.00    +0.071 C 
ATOM     18  C   UNL     1       2.179   0.859  -0.657  0.00  0.00    +0.015 C 
ATOM     19  C   UNL     1      -2.362   1.311   3.725  0.00  0.00    +0.012 C 
ENDROOT
BRANCH  17  20
ATOM     20  C   UNL     1       1.653   4.499  -0.172  0.00  0.00    -0.005 A 
ATOM     21  C   UNL     1       0.532   5.279   0.160  0.00  0.00    +0.014 A 
ATOM     22  C   UNL     1       0.719   6.451   0.832  0.00  0.00    +0.092 A 
ATOM     23  C   UNL     1       2.027   6.848   1.163  0.00  0.00    +0.337 A 
ATOM     24  O   UNL     1       2.214   7.895   1.759  0.00  0.00    -0.245 OA
ATOM     25  O   UNL     1       3.071   6.075   0.821  0.00  0.00    -0.430 OA
ATOM     26  C   UNL     1       2.890   4.920   0.165  0.00  0.00    +0.203 A 
ENDBRANCH  17  20
BRANCH   9  27
ATOM     27  O   UNL     1       0.020   6.237   5.026  0.00  0.00    -0.392 OA
ATOM     28  H   UNL     1       0.390   6.332   5.915  0.00  0.00    +0.210 HD
ENDBRANCH   9  27
BRANCH   3  29
ATOM     29  O   UNL     1      -0.147   0.051  -0.059  0.00  0.00    -0.388 OA
ATOM     30  H   UNL     1      -1.036  -0.326  -0.099  0.00  0.00    +0.210 HD
ENDBRANCH   3  29
BRANCH   1  31
ATOM     31  O   UNL     1      -0.500   4.485  -1.604  0.00  0.00    -0.461 OA
BRANCH  31  33
ATOM     32  C   UNL     1      -1.966   6.246  -2.524  0.00  0.00    +0.136 C 
ATOM     33  C   UNL     1      -1.195   4.958  -2.651  0.00  0.00    +0.304 C 
ATOM     34  O   UNL     1      -1.202   4.350  -3.695  0.00  0.00    -0.251 OA
ENDBRANCH  31  33
ENDBRANCH   1  31
TORSDOF 5
