REMARK  Name = ZINC09085592
REMARK  6 active torsions:
REMARK  status: ('A' for Active; 'I' for Inactive)
REMARK    1  A    between atoms: C_1  and  C_2
REMARK    2  A    between atoms: C_2  and  C_4
REMARK    3  A    between atoms: C_2  and  S_10
REMARK    4  A    between atoms: S_10  and  C_11
REMARK    5  A    between atoms: N_21  and  C_22
REMARK    6  A    between atoms: C_22  and  C_23
REMARK                            x       y       z     vdW  Elec       q    Type
REMARK                         _______ _______ _______ _____ _____    ______ ____
ROOT
ATOM      1  C   UNL     1      -0.016   1.361   0.009  0.00  0.00    +0.173 A 
ATOM      2  N   UNL     1       1.072   2.091   0.003  0.00  0.00    -0.223 NA
ATOM      3  C   UNL     1       2.302   1.526  -0.012  0.00  0.00    +0.080 A 
ATOM      4  C   UNL     1       3.464   2.303  -0.019  0.00  0.00    +0.048 A 
ATOM      5  C   UNL     1       4.695   1.684  -0.035  0.00  0.00    +0.043 A 
ATOM      6  C   UNL     1       4.794   0.296  -0.043  0.00  0.00    +0.021 A 
ATOM      7  C   UNL     1       3.671  -0.484  -0.037  0.00  0.00    +0.017 A 
ATOM      8  C   UNL     1       2.413   0.117  -0.021  0.00  0.00    +0.065 A 
ATOM      9  C   UNL     1       1.177  -0.676  -0.013  0.00  0.00    +0.263 A 
ATOM     10  O   UNL     1       1.207  -1.893  -0.021  0.00  0.00    -0.267 OA
ATOM     11  N   UNL     1       0.002  -0.004   0.002  0.00  0.00    -0.283 N 
ATOM     12 CL   UNL     1       6.139   2.647  -0.044  0.00  0.00    -0.083 Cl
ENDROOT
BRANCH   1  13
ATOM     13  S   UNL     1      -1.577   2.180   0.021  0.00  0.00    -0.075 S 
BRANCH  13  15
ATOM     14  C   UNL     1      -0.284   4.198   1.334  0.00  0.00    +0.029 C 
ATOM     15  C   UNL     1      -1.026   3.905   0.028  0.00  0.00    +0.137 C 
BRANCH  15  16
ATOM     16  C   UNL     1      -2.223   4.814  -0.085  0.00  0.00    +0.233 C 
ATOM     17  O   UNL     1      -3.312   4.431   0.282  0.00  0.00    -0.274 OA
ATOM     18  N   UNL     1      -2.081   6.054  -0.595  0.00  0.00    -0.239 N 
ATOM     19  C   UNL     1      -3.151   6.867  -0.697  0.00  0.00    +0.303 C 
ATOM     20  O   UNL     1      -4.243   6.483  -0.328  0.00  0.00    -0.253 OA
ATOM     21  N   UNL     1      -3.009   8.107  -1.207  0.00  0.00    -0.313 N 
ATOM     22  H   UNL     1      -1.209   6.360  -0.889  0.00  0.00    +0.159 HD
ATOM     23  H   UNL     1      -2.137   8.413  -1.501  0.00  0.00    +0.146 HD
ATOM     24  H   UNL     1      -3.779   8.692  -1.280  0.00  0.00    +0.146 HD
ENDBRANCH  15  16
ENDBRANCH  13  15
ENDBRANCH   1  13
BRANCH  11  25
ATOM     25  C   UNL     1      -1.260  -0.748   0.010  0.00  0.00    +0.154 C 
BRANCH  25  26
ATOM     26  C   UNL     1      -1.706  -0.995  -1.408  0.00  0.00    -0.013 C 
ATOM     27  C   UNL     1      -1.955  -2.216  -1.813  0.00  0.00    +0.005 C 
ENDBRANCH  25  26
ENDBRANCH  11  25
TORSDOF 5
