REMARK  Name = ZINC01211562
REMARK  7 active torsions:
REMARK  status: ('A' for Active; 'I' for Inactive)
REMARK    1  A    between atoms: C_1  and  C_2
REMARK    2  A    between atoms: C_2  and  C_3
REMARK    3  A    between atoms: C_6  and  N_9
REMARK    4  A    between atoms: C_11  and  C_16
REMARK    5  A    between atoms: N_18  and  N_19
REMARK    6  A    between atoms: C_20  and  C_21
REMARK    7  A    between atoms: C_25  and  N_27
REMARK                            x       y       z     vdW  Elec       q    Type
REMARK                         _______ _______ _______ _____ _____    ______ ____
ROOT
ATOM      1  C   UNL     1       5.561  -2.493  -6.774  0.00  0.00    +0.237 C 
ATOM      2  O   UNL     1       6.231  -1.559  -6.385  0.00  0.00    -0.274 OA
ATOM      3  N   UNL     1       5.921  -3.162  -7.888  0.00  0.00    -0.207 N 
ATOM      4  H   UNL     1       5.385  -3.909  -8.199  0.00  0.00    +0.177 HD
ENDROOT
BRANCH   1   7
ATOM      5  N   UNL     1       2.657  -1.834  -4.665  0.00  0.00    -0.271 N 
ATOM      6  C   UNL     1       4.111  -2.000  -4.780  0.00  0.00    +0.127 C 
ATOM      7  C   UNL     1       4.327  -2.904  -6.014  0.00  0.00    +0.103 C 
ATOM      8  C   UNL     1       3.049  -2.623  -6.838  0.00  0.00    +0.110 C 
ATOM      9  C   UNL     1       2.035  -2.176  -5.807  0.00  0.00    +0.221 C 
ATOM     10  O   UNL     1       0.837  -2.131  -5.985  0.00  0.00    -0.275 OA
BRANCH   5  14
ATOM     11  C   UNL     1       0.707  -0.490  -1.238  0.00  0.00    -0.048 A 
ATOM     12  C   UNL     1      -0.010  -0.705  -2.401  0.00  0.00    +0.005 A 
ATOM     13  C   UNL     1       0.634  -1.150  -3.538  0.00  0.00    +0.024 A 
ATOM     14  C   UNL     1       2.003  -1.382  -3.514  0.00  0.00    +0.036 A 
ATOM     15  C   UNL     1       2.720  -1.165  -2.345  0.00  0.00    +0.024 A 
ATOM     16  C   UNL     1       2.072  -0.715  -1.212  0.00  0.00    +0.005 A 
BRANCH  11  18
ATOM     17  C   UNL     1      -0.004   1.526   0.019  0.00  0.00    +0.009 C 
ATOM     18  C   UNL     1       0.002  -0.004   0.002  0.00  0.00    +0.032 C 
ENDBRANCH  11  18
ENDBRANCH   5  14
ENDBRANCH   1   7
BRANCH   3  19
ATOM     19  N   UNL     1       7.068  -2.780  -8.595  0.00  0.00    -0.188 NA
ATOM     20  C   UNL     1       7.415  -3.425  -9.666  0.00  0.00    +0.138 C 
BRANCH  20  21
ATOM     21  C   UNL     1       8.623  -3.022 -10.410  0.00  0.00    -0.003 A 
ATOM     22  C   UNL     1       9.400  -1.951  -9.961  0.00  0.00    +0.009 A 
ATOM     23  C   UNL     1      10.528  -1.581 -10.662  0.00  0.00    +0.003 A 
ATOM     24  C   UNL     1      10.891  -2.266 -11.808  0.00  0.00    +0.033 A 
ATOM     25  C   UNL     1      10.126  -3.327 -12.259  0.00  0.00    +0.127 A 
ATOM     26  C   UNL     1       8.999  -3.714 -11.564  0.00  0.00    +0.042 A 
BRANCH  25  27
ATOM     27  N   UNL     1      10.522  -4.054 -13.486  0.00  0.00    +0.056 N 
ATOM     28  O   UNL     1      11.513  -3.720 -14.094  0.00  0.00    -0.126 OA
ATOM     29  O   UNL     1       9.855  -4.982 -13.881  0.00  0.00    -0.126 OA
ENDBRANCH  25  27
ENDBRANCH  20  21
ENDBRANCH   3  19
TORSDOF 6
