REMARK  Name = ZINC03357030
REMARK  3 active torsions:
REMARK  status: ('A' for Active; 'I' for Inactive)
REMARK    1  A    between atoms: C_1  and  S_2
REMARK    2  A    between atoms: S_2  and  C_3
REMARK    3  A    between atoms: C_9  and  C_11
REMARK                            x       y       z     vdW  Elec       q    Type
REMARK                         _______ _______ _______ _____ _____    ______ ____
ROOT
ATOM      1  C   UNL     1      -1.702  -0.454   0.016  0.00  0.00    +0.169 A 
ATOM      2  N   UNL     1      -2.046  -1.771   0.018  0.00  0.00    -0.302 N 
ATOM      3  H   UNL     1      -1.358  -2.454   0.011  0.00  0.00    +0.171 HD
ATOM      4  C   UNL     1      -3.350  -2.123   0.029  0.00  0.00    +0.252 A 
ATOM      5  O   UNL     1      -3.677  -3.298   0.031  0.00  0.00    -0.268 OA
ATOM      6  C   UNL     1      -4.323  -1.108   0.038  0.00  0.00    +0.094 A 
ATOM      7  C   UNL     1      -3.919   0.195   0.036  0.00  0.00    +0.064 A 
ATOM      8  N   UNL     1      -2.622   0.492   0.030  0.00  0.00    -0.227 NA
ENDROOT
BRANCH   1  10
ATOM      9  C   UNL     1      -0.022   1.810   0.012  0.00  0.00    +0.093 C 
ATOM     10  S   UNL     1       0.002  -0.004   0.002  0.00  0.00    -0.091 S 
ENDBRANCH   1  10
BRANCH   7  11
ATOM     11  C   UNL     1      -4.943   1.301   0.045  0.00  0.00    +0.164 C 
ATOM     12 CL   UNL     1      -5.228   1.841   1.741  0.00  0.00    -0.119 Cl
ENDBRANCH   7  11
TORSDOF 2
