REMARK  Name = ZINC08818211
REMARK  7 active torsions:
REMARK  status: ('A' for Active; 'I' for Inactive)
REMARK    1  A    between atoms: C_1  and  O_2
REMARK    2  A    between atoms: O_2  and  C_3
REMARK    3  A    between atoms: C_15  and  N_16
REMARK    4  A    between atoms: N_16  and  C_17
REMARK    5  A    between atoms: C_18  and  C_19
REMARK    6  A    between atoms: C_18  and  C_21
REMARK    7  A    between atoms: C_23  and  C_26
REMARK                            x       y       z     vdW  Elec       q    Type
REMARK                         _______ _______ _______ _____ _____    ______ ____
ROOT
ATOM      1  C   UNL     1      -0.050   4.154   0.025  0.00  0.00    +0.093 C 
ATOM      2  C   UNL     1      -0.076   5.517   0.032  0.00  0.00    +0.098 C 
ENDROOT
BRANCH   2   3
ATOM      3  C   UNL     1      -1.367   6.230   0.049  0.00  0.00    +0.120 A 
ATOM      4  N   UNL     1      -1.605   7.533   0.063  0.00  0.00    -0.238 NA
ATOM      5  C   UNL     1      -2.840   8.005   0.072  0.00  0.00    +0.086 A 
ATOM      6  C   UNL     1      -3.894   7.128   0.078  0.00  0.00    +0.075 A 
ATOM      7  S   UNL     1      -3.026   5.565   0.061  0.00  0.00    -0.074 S 
BRANCH   5   8
ATOM      8  C   UNL     1      -3.083   9.466   0.081  0.00  0.00    +0.086 A 
ATOM      9  C   UNL     1      -2.033  10.345   0.081  0.00  0.00    +0.028 A 
ATOM     10  C   UNL     1      -2.330  11.778   0.086  0.00  0.00    +0.018 A 
ATOM     11  C   UNL     1      -1.292  12.719   0.081  0.00  0.00    +0.011 A 
ATOM     12  C   UNL     1      -1.586  14.053   0.091  0.00  0.00    +0.001 A 
ATOM     13  C   UNL     1      -2.905  14.483   0.104  0.00  0.00    +0.004 A 
ATOM     14  C   UNL     1      -3.941  13.573   0.109  0.00  0.00    +0.047 A 
ATOM     15  C   UNL     1      -3.667  12.210   0.100  0.00  0.00    +0.139 A 
ATOM     16  O   UNL     1      -4.678  11.315   0.105  0.00  0.00    -0.422 OA
ATOM     17  C   UNL     1      -4.451   9.993   0.097  0.00  0.00    +0.347 A 
ATOM     18  O   UNL     1      -5.392   9.222   0.103  0.00  0.00    -0.244 OA
ENDBRANCH   5   8
ENDBRANCH   2   3
BRANCH   1  19
ATOM     19  N   UNL     1       1.145   3.493   0.010  0.00  0.00    -0.316 N 
ATOM     20  H   UNL     1       1.976   3.994   0.005  0.00  0.00    +0.152 HD
BRANCH  19  33
ATOM     21  C   UNL     1       2.397   1.425  -0.012  0.00  0.00    +0.142 A 
ATOM     22  C   UNL     1       2.427   0.044  -0.020  0.00  0.00    +0.059 A 
ATOM     23  C   UNL     1       1.234  -0.674  -0.013  0.00  0.00    +0.031 A 
ATOM     24  C   UNL     1       0.906  -2.112  -0.018  0.00  0.00    +0.028 A 
ATOM     25  C   UNL     1       1.668  -3.276  -0.031  0.00  0.00    +0.012 A 
ATOM     26  C   UNL     1       1.040  -4.504  -0.033  0.00  0.00    +0.001 A 
ATOM     27  C   UNL     1      -0.344  -4.578  -0.020  0.00  0.00    +0.004 A 
ATOM     28  C   UNL     1      -1.108  -3.430  -0.006  0.00  0.00    +0.047 A 
ATOM     29  C   UNL     1      -0.494  -2.183  -0.005  0.00  0.00    +0.136 A 
ATOM     30  O   UNL     1      -0.988  -0.926   0.006  0.00  0.00    -0.455 OA
ATOM     31  C   UNL     1       0.002  -0.004   0.002  0.00  0.00    +0.138 A 
ATOM     32  C   UNL     1      -0.017   1.384   0.010  0.00  0.00    +0.073 A 
ATOM     33  C   UNL     1       1.172   2.095   0.002  0.00  0.00    +0.077 A 
BRANCH  21  35
ATOM     34  C   UNL     1       4.775   1.379  -0.035  0.00  0.00    +0.277 C 
ATOM     35  O   UNL     1       3.559   2.131  -0.019  0.00  0.00    -0.493 OA
ENDBRANCH  21  35
ENDBRANCH  19  33
ENDBRANCH   1  19
BRANCH   2  36
ATOM     36  C   UNL     1       1.151   6.256   0.025  0.00  0.00    +0.103 C 
ATOM     37  N   UNL     1       2.123   6.843   0.018  0.00  0.00    -0.191 NA
ENDBRANCH   2  36
TORSDOF 6
