REMARK  Name = ZINC63376384
REMARK  11 active torsions:
REMARK  status: ('A' for Active; 'I' for Inactive)
REMARK    1  A    between atoms: C_1  and  C_2
REMARK    2  A    between atoms: C_2  and  O_3
REMARK    3  A    between atoms: O_3  and  C_4
REMARK    4  A    between atoms: C_4  and  C_6
REMARK    5  A    between atoms: C_10  and  N_12
REMARK    6  A    between atoms: C_13  and  C_15
REMARK    7  A    between atoms: C_15  and  C_16
REMARK    8  A    between atoms: C_16  and  C_17
REMARK    9  A    between atoms: N_21  and  C_25
REMARK   10  A    between atoms: C_25  and  C_26
REMARK   11  A    between atoms: C_26  and  C_27
REMARK                            x       y       z     vdW  Elec       q    Type
REMARK                         _______ _______ _______ _____ _____    ______ ____
ROOT
ATOM      1  C   UNL     1      -7.554  -9.595   0.482  0.00  0.00    +0.161 C 
ATOM      2  C   UNL     1      -9.017  -9.946   0.666  0.00  0.00    +0.243 C 
ATOM      3  O   UNL     1      -9.740  -9.613   1.580  0.00  0.00    -0.273 OA
ATOM      4  N   UNL     1      -9.347 -10.704  -0.399  0.00  0.00    -0.224 N 
ATOM      5  C   UNL     1      -8.306 -10.879  -1.221  0.00  0.00    +0.309 C 
ATOM      6  O   UNL     1      -8.358 -11.526  -2.249  0.00  0.00    -0.252 OA
ATOM      7  N   UNL     1      -7.192 -10.258  -0.783  0.00  0.00    -0.288 N 
ATOM      8  H   UNL     1      -6.323 -10.249  -1.214  0.00  0.00    +0.151 HD
ENDROOT
BRANCH   1   9
ATOM      9  C   UNL     1      -7.374  -8.080   0.365  0.00  0.00    +0.041 C 
BRANCH   9  10
ATOM     10  C   UNL     1      -5.884  -7.751   0.253  0.00  0.00    +0.098 C 
BRANCH  10  12
ATOM     11  N   UNL     1      -4.471  -5.733   0.027  0.00  0.00    -0.285 N 
ATOM     12  C   UNL     1      -5.707  -6.258   0.138  0.00  0.00    +0.217 C 
ATOM     13  O   UNL     1      -6.677  -5.530   0.146  0.00  0.00    -0.275 OA
ATOM     14  H   UNL     1      -3.701  -6.318  -0.056  0.00  0.00    +0.155 HD
BRANCH  11  19
ATOM     15  C   UNL     1      -4.964  -2.159   0.787  0.00  0.00    +0.061 A 
ATOM     16  C   UNL     1      -3.939  -1.591   0.028  0.00  0.00    +0.015 A 
ATOM     17  C   UNL     1      -3.106  -2.397  -0.720  0.00  0.00    +0.003 A 
ATOM     18  C   UNL     1      -3.281  -3.769  -0.720  0.00  0.00    +0.023 A 
ATOM     19  C   UNL     1      -4.297  -4.344   0.032  0.00  0.00    +0.034 A 
ATOM     20  C   UNL     1      -5.137  -3.544   0.791  0.00  0.00    +0.038 A 
BRANCH  15  21
ATOM     21  C   UNL     1      -5.858  -1.299   1.589  0.00  0.00    +0.339 C 
ATOM     22  O   UNL     1      -6.745  -1.796   2.252  0.00  0.00    -0.245 OA
BRANCH  21  23
ATOM     23  O   UNL     1      -5.689   0.038   1.583  0.00  0.00    -0.461 OA
BRANCH  23  25
ATOM     24  C   UNL     1      -6.245   2.294   2.249  0.00  0.00    +0.048 C 
ATOM     25  C   UNL     1      -6.590   0.809   2.381  0.00  0.00    +0.229 C 
ENDBRANCH  23  25
ENDBRANCH  21  23
ENDBRANCH  15  21
ENDBRANCH  11  19
ENDBRANCH  10  12
ENDBRANCH   9  10
ENDBRANCH   1   9
BRANCH   4  26
ATOM     26  C   UNL     1     -10.680 -11.267  -0.627  0.00  0.00    +0.122 C 
BRANCH  26  27
ATOM     27  C   UNL     1     -11.521 -10.276  -1.434  0.00  0.00    +0.052 C 
BRANCH  27  28
ATOM     28  C   UNL     1     -12.892 -10.855  -1.669  0.00  0.00    -0.040 C 
ATOM     29  C   UNL     1     -14.005 -10.636  -0.931  0.00  0.00    +0.000 A 
ATOM     30  C   UNL     1     -14.261  -9.823   0.264  0.00  0.00    +0.030 A 
ATOM     31  C   UNL     1     -15.508  -9.802   0.788  0.00  0.00    +0.042 A 
ATOM     32  C   UNL     1     -16.559 -10.537   0.219  0.00  0.00    +0.022 A 
ATOM     33  C   UNL     1     -16.401 -11.306  -0.879  0.00  0.00    +0.027 A 
ATOM     34  C   UNL     1     -15.131 -11.401  -1.513  0.00  0.00    +0.043 A 
ATOM     35  N   UNL     1     -14.730 -12.068  -2.568  0.00  0.00    -0.380 N 
ATOM     36  C   UNL     1     -13.304 -11.795  -2.780  0.00  0.00    +0.144 C 
ATOM     37 CL   UNL     1     -15.815  -8.842   2.201  0.00  0.00    -0.084 Cl
ATOM     38  H   UNL     1     -15.285 -12.642  -3.119  0.00  0.00    +0.160 HD
ENDBRANCH  27  28
ENDBRANCH  26  27
ENDBRANCH   4  26
TORSDOF 10
