REMARK  Name = ZINC15085161
REMARK  6 active torsions:
REMARK  status: ('A' for Active; 'I' for Inactive)
REMARK    1  A    between atoms: C_1  and  C_2
REMARK    2  A    between atoms: C_4  and  C_8
REMARK    3  A    between atoms: C_5  and  C_7
REMARK    4  A    between atoms: C_13  and  C_14
REMARK    5  A    between atoms: C_16  and  C_20
REMARK    6  A    between atoms: C_18  and  C_19
REMARK                            x       y       z     vdW  Elec       q    Type
REMARK                         _______ _______ _______ _____ _____    ______ ____
ROOT
ATOM      1  C   UNL     1       2.340   1.117  -0.005  0.00  0.00    +0.023 A 
ATOM      2  C   UNL     1       3.036   0.680  -1.220  0.00  0.00    +0.089 A 
ATOM      3  C   UNL     1       4.271   0.181  -0.813  0.00  0.00    +0.126 A 
ATOM      4  N   UNL     1       4.346   0.294   0.536  0.00  0.00    -0.340 N 
ATOM      5  H   UNL     1       5.105   0.019   1.074  0.00  0.00    +0.167 HD
ATOM      6  C   UNL     1       3.192   0.860   1.035  0.00  0.00    +0.057 A 
ATOM      7  N   UNL     1       5.135  -0.302  -1.774  0.00  0.00    -0.293 N 
ATOM      8  H   UNL     1       6.026  -0.663  -1.498  0.00  0.00    +0.172 HD
ATOM      9  C   UNL     1       4.796  -0.294  -3.074  0.00  0.00    +0.328 A 
ATOM     10  O   UNL     1       5.588  -0.730  -3.887  0.00  0.00    -0.247 OA
ATOM     11  N   UNL     1       3.616   0.177  -3.510  0.00  0.00    -0.274 N 
ATOM     12  H   UNL     1       3.409   0.163  -4.488  0.00  0.00    +0.173 HD
ATOM     13  C   UNL     1       2.706   0.671  -2.642  0.00  0.00    +0.264 A 
ATOM     14  O   UNL     1       1.636   1.098  -3.036  0.00  0.00    -0.267 OA
ENDROOT
BRANCH   1  18
ATOM     15  C   UNL     1      -2.687   0.885   0.670  0.00  0.00    +0.051 C 
ATOM     16  C   UNL     1      -1.345   1.517   0.407  0.00  0.00    -0.012 A 
ATOM     17  C   UNL     1      -0.128   0.931   0.344  0.00  0.00    +0.019 A 
ATOM     18  C   UNL     1       0.988   1.720   0.079  0.00  0.00    -0.005 A 
ATOM     19  C   UNL     1       0.809   3.063  -0.103  0.00  0.00    -0.005 A 
ATOM     20  S   UNL     1      -0.956   3.232   0.101  0.00  0.00    -0.098 S 
ATOM     21  C   UNL     1       1.837   4.125  -0.398  0.00  0.00    +0.052 C 
ENDBRANCH   1  18
BRANCH   6  22
ATOM     22  C   UNL     1       2.919   1.142   2.460  0.00  0.00    +0.009 A 
ATOM     23  C   UNL     1       2.045   0.341   3.191  0.00  0.00    +0.021 A 
ATOM     24  C   UNL     1       1.825   0.628   4.493  0.00  0.00    -0.012 A 
ATOM     25  S   UNL     1       2.847   2.070   4.742  0.00  0.00    -0.098 S 
ATOM     26  C   UNL     1       3.515   2.200   3.092  0.00  0.00    -0.004 A 
ATOM     27  C   UNL     1       4.484   3.213   2.539  0.00  0.00    +0.052 C 
ATOM     28  C   UNL     1       0.937  -0.084   5.481  0.00  0.00    +0.051 C 
ENDBRANCH   6  22
TORSDOF 2
