REMARK  Name = ZINC26954655
REMARK  4 active torsions:
REMARK  status: ('A' for Active; 'I' for Inactive)
REMARK    1  A    between atoms: C_1  and  C_2
REMARK    2  A    between atoms: N_4  and  N_5
REMARK    3  A    between atoms: C_19  and  C_21
REMARK    4  A    between atoms: C_19  and  C_22
REMARK                            x       y       z     vdW  Elec       q    Type
REMARK                         _______ _______ _______ _____ _____    ______ ____
ROOT
ATOM      1  N   UNL     1      -1.137  -2.095   0.002  0.00  0.00    -0.234 N 
ATOM      2  C   UNL     1      -2.316  -2.797   0.009  0.00  0.00    +0.213 A 
ATOM      3  N   UNL     1      -2.287  -4.160   0.007  0.00  0.00    -0.293 N 
ATOM      4  H   UNL     1      -1.432  -4.618   0.001  0.00  0.00    +0.172 HD
ATOM      5  C   UNL     1      -3.422  -4.884   0.015  0.00  0.00    +0.261 A 
ATOM      6  O   UNL     1      -3.378  -6.102   0.014  0.00  0.00    -0.267 OA
ATOM      7  C   UNL     1      -4.681  -4.204   0.025  0.00  0.00    +0.076 A 
ATOM      8  C   UNL     1      -6.024  -4.778   0.033  0.00  0.00    -0.018 A 
ATOM      9  C   UNL     1      -7.063  -3.913   0.041  0.00  0.00    +0.021 A 
ATOM     10  S   UNL     1      -6.322  -2.306   0.040  0.00  0.00    -0.071 S 
ATOM     11  C   UNL     1      -4.616  -2.799   0.026  0.00  0.00    +0.118 A 
ATOM     12  N   UNL     1      -3.460  -2.145   0.024  0.00  0.00    -0.207 NA
ATOM     13  C   UNL     1      -8.516  -4.274   0.048  0.00  0.00    +0.203 C 
ATOM     14  O   UNL     1      -8.626  -5.670  -0.276  0.00  0.00    -0.368 OA
ATOM     15  C   UNL     1      -7.743  -6.502   0.481  0.00  0.00    +0.068 C 
ATOM     16  C   UNL     1      -6.295  -6.280   0.032  0.00  0.00    +0.071 C 
ATOM     17  C   UNL     1      -8.121  -7.969   0.268  0.00  0.00    +0.041 C 
ATOM     18  C   UNL     1      -7.872  -6.159   1.966  0.00  0.00    +0.041 C 
ATOM     19  H   UNL     1      -0.290  -2.568  -0.009  0.00  0.00    +0.173 HD
ENDROOT
BRANCH   1  23
ATOM     20  C   UNL     1      -0.018   1.503   0.010  0.00  0.00    +0.110 C 
ATOM     21  C   UNL     1       0.002  -0.004   0.002  0.00  0.00    +0.226 C 
ATOM     22  O   UNL     1       1.060  -0.596  -0.011  0.00  0.00    -0.275 OA
ATOM     23  N   UNL     1      -1.156  -0.694   0.009  0.00  0.00    -0.235 N 
ATOM     24  H   UNL     1      -2.002  -0.220   0.020  0.00  0.00    +0.173 HD
ENDBRANCH   1  23
TORSDOF 1
