REMARK  Name = ZINC23741649
REMARK  9 active torsions:
REMARK  status: ('A' for Active; 'I' for Inactive)
REMARK    1  A    between atoms: C_1  and  C_2
REMARK    2  A    between atoms: C_2  and  C_4
REMARK    3  A    between atoms: C_2  and  O_15
REMARK    4  A    between atoms: N_6  and  C_7
REMARK    5  A    between atoms: N_11  and  C_12
REMARK    6  A    between atoms: C_12  and  C_13
REMARK    7  A    between atoms: C_12  and  C_14
REMARK    8  A    between atoms: O_15  and  C_16
REMARK    9  A    between atoms: C_16  and  C_18
REMARK                            x       y       z     vdW  Elec       q    Type
REMARK                         _______ _______ _______ _____ _____    ______ ____
ROOT
ATOM      1  O   UNL     1      -1.339  -0.499   0.012  0.00  0.00    -0.449 OA
ENDROOT
BRANCH   1   3
ATOM      2  C   UNL     1      -0.019   1.526   0.010  0.00  0.00    +0.062 C 
ATOM      3  C   UNL     1       0.002  -0.004   0.002  0.00  0.00    +0.259 C 
BRANCH   3   4
ATOM      4  C   UNL     1       0.731  -0.503   1.223  0.00  0.00    +0.259 C 
ATOM      5  O   UNL     1       0.135  -1.137   2.068  0.00  0.00    -0.271 OA
ATOM      6  N   UNL     1       2.045  -0.246   1.375  0.00  0.00    -0.268 N 
ATOM      7  H   UNL     1       2.522   0.261   0.699  0.00  0.00    +0.156 HD
BRANCH   6   8
ATOM      8  C   UNL     1       2.720  -0.708   2.505  0.00  0.00    +0.123 A 
ATOM      9  C   UNL     1       2.180  -1.432   3.524  0.00  0.00    +0.065 A 
ATOM     10  C   UNL     1       3.195  -1.688   4.451  0.00  0.00    +0.136 A 
ATOM     11  N   UNL     1       4.300  -1.143   4.012  0.00  0.00    -0.178 NA
ATOM     12  N   UNL     1       4.030  -0.523   2.785  0.00  0.00    -0.248 N 
BRANCH  12  13
ATOM     13  C   UNL     1       4.995   0.200   1.954  0.00  0.00    +0.103 C 
ATOM     14  C   UNL     1       5.572   1.375   2.746  0.00  0.00    +0.032 C 
ATOM     15  C   UNL     1       6.127  -0.746   1.546  0.00  0.00    +0.032 C 
ENDBRANCH  12  13
ENDBRANCH   6   8
ENDBRANCH   3   4
ENDBRANCH   1   3
BRANCH   1  16
ATOM     16  C   UNL     1      -1.924  -0.704  -1.184  0.00  0.00    +0.340 C 
ATOM     17  O   UNL     1      -1.313  -0.469  -2.208  0.00  0.00    -0.245 OA
BRANCH  16  18
ATOM     18  C   UNL     1      -3.305  -1.213  -1.251  0.00  0.00    +0.060 A 
ATOM     19  C   UNL     1      -4.022  -1.482  -0.076  0.00  0.00    +0.017 A 
ATOM     20  C   UNL     1      -5.293  -1.950  -0.115  0.00  0.00    +0.030 A 
ATOM     21  C   UNL     1      -5.948  -2.187  -1.349  0.00  0.00    +0.080 A 
ATOM     22  C   UNL     1      -5.204  -1.908  -2.522  0.00  0.00    +0.042 A 
ATOM     23  C   UNL     1      -3.923  -1.430  -2.488  0.00  0.00    +0.032 A 
ATOM     24  S   UNL     1      -6.354  -2.328  -3.810  0.00  0.00    -0.053 S 
ATOM     25  C   UNL     1      -7.703  -2.829  -2.750  0.00  0.00    +0.157 A 
ATOM     26  N   UNL     1      -7.199  -2.648  -1.549  0.00  0.00    -0.225 NA
ATOM     27  N   UNL     1      -8.953  -3.289  -3.102  0.00  0.00    -0.337 N 
ATOM     28  H   UNL     1      -9.193  -3.373  -4.038  0.00  0.00    +0.144 HD
ATOM     29  H   UNL     1      -9.594  -3.528  -2.414  0.00  0.00    +0.144 HD
ENDBRANCH  16  18
ENDBRANCH   1  16
TORSDOF 6
