REMARK  Name = ZINC04314691
REMARK  5 active torsions:
REMARK  status: ('A' for Active; 'I' for Inactive)
REMARK    1  A    between atoms: C_1  and  C_2
REMARK    2  A    between atoms: C_4  and  S_10
REMARK    3  A    between atoms: S_10  and  C_11
REMARK    4  A    between atoms: C_11  and  C_12
REMARK    5  A    between atoms: C_17  and  C_20
REMARK                            x       y       z     vdW  Elec       q    Type
REMARK                         _______ _______ _______ _____ _____    ______ ____
ROOT
ATOM      1  C   UNL     1      -2.482   0.853   0.018  0.00  0.00    +0.172 C 
ENDROOT
BRANCH   1   2
ATOM      2  C   UNL     1      -1.187   1.624   0.017  0.00  0.00    +0.229 C 
ATOM      3  O   UNL     1      -1.204   2.836   0.023  0.00  0.00    -0.275 OA
ATOM      4  N   UNL     1      -0.011   0.966   0.007  0.00  0.00    -0.267 N 
ATOM      5  C   UNL     1       1.187   1.680  -0.000  0.00  0.00    +0.168 A 
ATOM      6  C   UNL     1       1.339   3.092   0.006  0.00  0.00    +0.091 A 
ATOM      7  C   UNL     1       2.679   3.276  -0.005  0.00  0.00    +0.136 A 
ATOM      8  O   UNL     1       3.233   2.056  -0.017  0.00  0.00    -0.358 OA
ATOM      9  N   UNL     1       2.397   1.183  -0.009  0.00  0.00    -0.063 NA
ATOM     10  C   UNL     1       3.406   4.596  -0.005  0.00  0.00    +0.089 C 
ATOM     11  H   UNL     1       0.002  -0.004   0.002  0.00  0.00    +0.156 HD
ENDBRANCH   1   2
BRANCH   1  12
ATOM     12  S   UNL     1      -3.874   2.010   0.031  0.00  0.00    -0.096 S 
BRANCH  12  16
ATOM     13  C   UNL     1      -8.994   0.917   0.049  0.00  0.00    +0.063 C 
ATOM     14  C   UNL     1      -7.562   0.447   0.040  0.00  0.00    +0.020 A 
ATOM     15  C   UNL     1      -6.548   1.344   0.040  0.00  0.00    +0.056 A 
ATOM     16  C   UNL     1      -5.218   0.872   0.032  0.00  0.00    +0.104 A 
ATOM     17  N   UNL     1      -4.987  -0.436   0.018  0.00  0.00    -0.187 NA
ATOM     18  C   UNL     1      -5.995  -1.305   0.024  0.00  0.00    +0.347 A 
ATOM     19  O   UNL     1      -5.756  -2.501   0.016  0.00  0.00    -0.245 OA
ATOM     20  N   UNL     1      -7.274  -0.885   0.032  0.00  0.00    -0.310 N 
ATOM     21  H   UNL     1      -8.017  -1.555   0.032  0.00  0.00    +0.170 HD
ENDBRANCH  12  16
ENDBRANCH   1  12
TORSDOF 3
