REMARK  Name = ZINC33629715
REMARK  10 active torsions:
REMARK  status: ('A' for Active; 'I' for Inactive)
REMARK    1  A    between atoms: C_1  and  C_2
REMARK    2  A    between atoms: C_2  and  C_3
REMARK    3  A    between atoms: C_3  and  C_5
REMARK    4  A    between atoms: C_3  and  C_6
REMARK    5  A    between atoms: C_6  and  C_34
REMARK    6  A    between atoms: C_11  and  C_14
REMARK    7  A    between atoms: C_16  and  C_22
REMARK    8  A    between atoms: C_17  and  O_21
REMARK    9  A    between atoms: C_18  and  C_20
REMARK   10  A    between atoms: N_25  and  C_28
REMARK                            x       y       z     vdW  Elec       q    Type
REMARK                         _______ _______ _______ _____ _____    ______ ____
ROOT
ATOM      1  C   UNL     1      -0.082   0.606  -2.405  0.00  0.00    +0.051 C 
ATOM      2  C   UNL     1      -1.270   0.961  -1.502  0.00  0.00    +0.086 C 
ATOM      3  C   UNL     1      -0.433   1.142  -0.175  0.00  0.00    +0.077 C 
ATOM      4  C   UNL     1       0.678   2.009  -0.586  0.00  0.00    -0.027 C 
ATOM      5  N   UNL     1       0.955   1.613  -2.006  0.00  0.00    +0.396 N 
ATOM      6  C   UNL     1      -1.463   1.040   0.830  0.00  0.00    +0.225 C 
ATOM      7  O   UNL     1      -1.524   1.626   1.889  0.00  0.00    -0.275 OA
ATOM      8  N   UNL     1      -2.355   0.138   0.344  0.00  0.00    -0.239 N 
ATOM      9  C   UNL     1      -2.157  -0.136  -0.979  0.00  0.00    +0.225 C 
ATOM     10  O   UNL     1      -2.606  -1.072  -1.605  0.00  0.00    -0.275 OA
ATOM     11  H   UNL     1       1.955   1.162  -2.090  0.00  0.00    -0.083 HD
ATOM     12  H   UNL     1       0.891   2.488  -2.669  0.00  0.00    -0.083 HD
ENDROOT
BRANCH   4  13
ATOM     13  C   UNL     1       0.269   3.458  -0.514  0.00  0.00    -0.060 A 
ATOM     14  C   UNL     1      -0.477   4.016  -1.536  0.00  0.00    +0.009 A 
ATOM     15  C   UNL     1      -0.858   5.342  -1.470  0.00  0.00    -0.009 A 
ATOM     16  C   UNL     1      -0.481   6.117  -0.383  0.00  0.00    +0.123 A 
ATOM     17  C   UNL     1       0.272   5.557   0.639  0.00  0.00    -0.009 A 
ATOM     18  C   UNL     1       0.645   4.228   0.571  0.00  0.00    +0.009 A 
ATOM     19  C   UNL     1       0.682   6.396   1.821  0.00  0.00    +0.047 C 
ATOM     20  C   UNL     1      -1.676   5.948  -2.581  0.00  0.00    +0.047 C 
BRANCH  16  21
ATOM     21  O   UNL     1      -0.849   7.424  -0.319  0.00  0.00    -0.506 OA
ATOM     22  H   UNL     1      -0.550   8.038   0.544  0.00  0.00    +0.292 HD
ENDBRANCH  16  21
ENDBRANCH   4  13
BRANCH   8  23
ATOM     23  C   UNL     1      -3.416  -0.473   1.149  0.00  0.00    +0.084 C 
ATOM     24  C   UNL     1      -4.335   0.622   1.696  0.00  0.00    +0.023 C 
ATOM     25  C   UNL     1      -5.443  -0.016   2.537  0.00  0.00    +0.002 C 
ATOM     26  C   UNL     1      -4.819  -0.789   3.701  0.00  0.00    +0.000 C 
ATOM     27  C   UNL     1      -3.901  -1.883   3.154  0.00  0.00    +0.002 C 
ATOM     28  C   UNL     1      -2.792  -1.245   2.313  0.00  0.00    +0.023 C 
ENDBRANCH   8  23
BRANCH   1  29
ATOM     29  C   UNL     1      -0.446   0.764  -3.858  0.00  0.00    +0.347 C 
ATOM     30  O   UNL     1      -1.587   0.591  -4.218  0.00  0.00    -0.248 OA
ATOM     31  O   UNL     1       0.496   1.097  -4.754  0.00  0.00    -0.248 OA
ENDBRANCH   1  29
BRANCH   1  32
ATOM     32  C   UNL     1       0.408  -0.816  -2.123  0.00  0.00    -0.014 C 
ATOM     33  C   UNL     1       0.080  -1.190  -0.676  0.00  0.00    +0.006 C 
BRANCH  32  35
ATOM     34  C   UNL     1       0.316  -3.187  -2.903  0.00  0.00    +0.004 C 
ATOM     35  C   UNL     1      -0.289  -1.792  -3.072  0.00  0.00    -0.001 C 
ENDBRANCH  32  35
ENDBRANCH   1  32
TORSDOF 6
