REMARK  Name = ZINC10129524
REMARK  12 active torsions:
REMARK  status: ('A' for Active; 'I' for Inactive)
REMARK    1  A    between atoms: C_1  and  N_2
REMARK    2  A    between atoms: N_2  and  C_3
REMARK    3  A    between atoms: N_2  and  C_4
REMARK    4  A    between atoms: C_7  and  C_10
REMARK    5  A    between atoms: C_10  and  C_12
REMARK    6  A    between atoms: C_10  and  N_70
REMARK    7  A    between atoms: C_12  and  N_13
REMARK    8  A    between atoms: C_14  and  C_16
REMARK    9  A    between atoms: N_18  and  C_19
REMARK   10  A    between atoms: C_19  and  C_20
REMARK   11  A    between atoms: C_23  and  O_26
REMARK   12  A    between atoms: O_26  and  C_27
REMARK                            x       y       z     vdW  Elec       q    Type
REMARK                         _______ _______ _______ _____ _____    ______ ____
ROOT
ATOM      1  C   UNL     1      -0.785   1.953  -1.143  0.00  0.00    -0.020 C 
ENDROOT
BRANCH   1  11
ATOM      2  C   UNL     1       1.035   1.400   0.360  0.00  0.00    -0.073 C 
ATOM      3  C   UNL     1       1.412   0.413   1.465  0.00  0.00    +0.017 C 
ATOM      4  C   UNL     1       1.458  -0.988   0.910  0.00  0.00    -0.048 A 
ATOM      5  C   UNL     1       2.112  -1.968   1.641  0.00  0.00    +0.004 A 
ATOM      6  C   UNL     1       2.169  -3.265   1.173  0.00  0.00    +0.000 A 
ATOM      7  C   UNL     1       1.571  -3.589  -0.031  0.00  0.00    +0.000 A 
ATOM      8  C   UNL     1       0.922  -2.614  -0.760  0.00  0.00    +0.002 A 
ATOM      9  C   UNL     1       0.864  -1.309  -0.292  0.00  0.00    -0.061 A 
ATOM     10  C   UNL     1       0.148  -0.279  -1.126  0.00  0.00    -0.042 C 
ATOM     11  N   UNL     1      -0.186   0.893  -0.300  0.00  0.00    +0.388 N 
ATOM     12  H   UNL     1      -0.864   0.615   0.419  0.00  0.00    -0.080 HD
ENDBRANCH   1  11
BRANCH   1  16
ATOM     13  C   UNL     1      -5.005   1.314  -1.364  0.00  0.00    +0.029 A 
ATOM     14  C   UNL     1      -4.473   2.560  -1.669  0.00  0.00    +0.023 A 
ATOM     15  C   UNL     1      -3.108   2.763  -1.596  0.00  0.00    +0.004 A 
ATOM     16  C   UNL     1      -2.273   1.728  -1.221  0.00  0.00    -0.059 A 
ATOM     17  C   UNL     1      -2.799   0.484  -0.922  0.00  0.00    +0.004 A 
ATOM     18  C   UNL     1      -4.162   0.276  -0.987  0.00  0.00    +0.023 A 
BRANCH  13  20
ATOM     19  C   UNL     1      -7.271   2.201  -1.834  0.00  0.00    +0.129 C 
ATOM     20  N   UNL     1      -6.384   1.105  -1.436  0.00  0.00    -0.336 N 
ATOM     21  C   UNL     1      -6.944  -0.210  -1.115  0.00  0.00    +0.129 C 
ENDBRANCH  13  20
ENDBRANCH   1  16
BRANCH   1  22
ATOM     22  C   UNL     1      -0.188   1.908  -2.551  0.00  0.00    +0.094 C 
BRANCH  22  23
ATOM     23  N   UNL     1       1.250   2.183  -2.481  0.00  0.00    -0.309 N 
ATOM     24  C   UNL     1       2.015   2.053  -3.583  0.00  0.00    +0.299 C 
ATOM     25  O   UNL     1       1.514   1.708  -4.633  0.00  0.00    -0.265 OA
ATOM     26  H   UNL     1       1.650   2.459  -1.642  0.00  0.00    +0.149 HD
BRANCH  24  27
ATOM     27  C   UNL     1       3.481   2.333  -3.511  0.00  0.00    +0.299 C 
ATOM     28  O   UNL     1       3.983   2.678  -2.461  0.00  0.00    -0.265 OA
ATOM     29  N   UNL     1       4.247   2.203  -4.613  0.00  0.00    -0.303 N 
ATOM     30  H   UNL     1       3.846   1.927  -5.452  0.00  0.00    +0.149 HD
BRANCH  29  31
ATOM     31  C   UNL     1       5.684   2.477  -4.543  0.00  0.00    +0.140 C 
BRANCH  31  32
ATOM     32  C   UNL     1       6.304   2.259  -5.899  0.00  0.00    -0.030 A 
ATOM     33  C   UNL     1       6.798   1.013  -6.239  0.00  0.00    +0.009 A 
ATOM     34  C   UNL     1       7.362   0.809  -7.484  0.00  0.00    +0.046 A 
ATOM     35  C   UNL     1       7.442   1.858  -8.389  0.00  0.00    +0.120 A 
ATOM     36  C   UNL     1       6.950   3.108  -8.043  0.00  0.00    +0.046 A 
ATOM     37  C   UNL     1       6.382   3.306  -6.799  0.00  0.00    +0.009 A 
BRANCH  35  38
ATOM     38  O   UNL     1       8.000   1.661  -9.612  0.00  0.00    -0.495 OA
ATOM     39  C   UNL     1       8.486   0.348  -9.899  0.00  0.00    +0.277 C 
ENDBRANCH  35  38
ENDBRANCH  31  32
ENDBRANCH  29  31
ENDBRANCH  24  27
ENDBRANCH  22  23
ENDBRANCH   1  22
TORSDOF 9
