REMARK  Name = ZINC38872623
REMARK  8 active torsions:
REMARK  status: ('A' for Active; 'I' for Inactive)
REMARK    1  A    between atoms: C_1  and  C_2
REMARK    2  A    between atoms: C_9  and  C_36
REMARK    3  A    between atoms: C_9  and  C_37
REMARK    4  A    between atoms: C_11  and  N_13
REMARK    5  A    between atoms: C_14  and  C_16
REMARK    6  A    between atoms: N_19  and  C_22
REMARK    7  A    between atoms: C_22  and  C_23
REMARK    8  A    between atoms: C_25  and  C_28
REMARK                            x       y       z     vdW  Elec       q    Type
REMARK                         _______ _______ _______ _____ _____    ______ ____
ROOT
ATOM      1  C   UNL     1      -1.384  -5.317  -3.449  0.00  0.00    +0.071 C 
ATOM      2  C   UNL     1      -1.835  -6.744  -3.125  0.00  0.00    -0.006 C 
ATOM      3  C   UNL     1      -2.732  -7.259  -4.253  0.00  0.00    -0.077 C 
ATOM      4  N   UNL     1      -1.985  -7.255  -5.517  0.00  0.00    +0.386 N 
ATOM      5  C   UNL     1      -1.611  -5.880  -5.870  0.00  0.00    -0.077 C 
ATOM      6  C   UNL     1      -0.671  -5.313  -4.804  0.00  0.00    -0.006 C 
ATOM      7  H   UNL     1      -1.151  -7.814  -5.415  0.00  0.00    -0.081 HD
ENDROOT
BRANCH   1   9
ATOM      8  N   UNL     1      -0.851  -4.753  -1.100  0.00  0.00    -0.308 N 
ATOM      9  C   UNL     1      -0.438  -4.833  -2.381  0.00  0.00    +0.216 C 
ATOM     10  O   UNL     1       0.695  -4.515  -2.673  0.00  0.00    -0.276 OA
ATOM     11  H   UNL     1      -1.758  -5.007  -0.867  0.00  0.00    +0.149 HD
BRANCH   8  22
ATOM     12  C   UNL     1      -0.018   1.503   0.010  0.00  0.00    +0.044 C 
ATOM     13  C   UNL     1       0.002  -0.004   0.002  0.00  0.00    -0.047 A 
ATOM     14  C   UNL     1       0.006  -0.689  -1.199  0.00  0.00    +0.004 A 
ATOM     15  C   UNL     1       0.026  -2.070  -1.206  0.00  0.00    +0.009 A 
ATOM     16  C   UNL     1       0.042  -2.775  -0.014  0.00  0.00    +0.015 A 
ATOM     17  C   UNL     1       0.035  -2.092   1.190  0.00  0.00    +0.126 A 
ATOM     18  C   UNL     1       0.023  -0.701   1.193  0.00  0.00    +0.049 A 
ATOM     19  O   UNL     1       0.038  -2.743   2.382  0.00  0.00    -0.486 OA
ATOM     20  C   UNL     1       0.424  -4.118   2.391  0.00  0.00    +0.107 C 
ATOM     21  C   UNL     1      -0.361  -4.848   1.294  0.00  0.00    +0.074 C 
ATOM     22  C   UNL     1       0.068  -4.282  -0.062  0.00  0.00    +0.110 C 
ATOM     23  C   UNL     1       1.924  -4.234   2.116  0.00  0.00    +0.055 C 
ATOM     24  C   UNL     1       0.100  -4.735   3.753  0.00  0.00    +0.055 C 
ENDBRANCH   8  22
ENDBRANCH   1   9
BRANCH   4  25
ATOM     25  C   UNL     1      -2.823  -7.822  -6.581  0.00  0.00    +0.022 C 
BRANCH  25  26
ATOM     26  C   UNL     1      -2.018  -7.933  -7.850  0.00  0.00    +0.211 A 
ATOM     27  N   UNL     1      -1.311  -8.964  -8.215  0.00  0.00    -0.193 NA
ATOM     28  C   UNL     1      -0.722  -8.722  -9.400  0.00  0.00    +0.203 A 
ATOM     29  N   UNL     1      -1.059  -7.520  -9.798  0.00  0.00    -0.056 NA
ATOM     30  O   UNL     1      -1.913  -6.990  -8.795  0.00  0.00    -0.340 OA
BRANCH  28  31
ATOM     31  C   UNL     1       0.161  -9.661 -10.136  0.00  0.00    +0.041 A 
ATOM     32  C   UNL     1       0.439 -10.920  -9.606  0.00  0.00    +0.014 A 
ATOM     33  C   UNL     1       1.260 -11.789 -10.293  0.00  0.00    +0.021 A 
ATOM     34  C   UNL     1       1.809 -11.414 -11.508  0.00  0.00    +0.042 A 
ATOM     35  C   UNL     1       1.537 -10.165 -12.039  0.00  0.00    +0.040 A 
ATOM     36  C   UNL     1       0.711  -9.289 -11.362  0.00  0.00    +0.053 A 
ATOM     37 CL   UNL     1       0.364  -7.726 -12.032  0.00  0.00    -0.083 Cl
ATOM     38 CL   UNL     1       2.842 -12.513 -12.367  0.00  0.00    -0.083 Cl
ENDBRANCH  28  31
ENDBRANCH  25  26
ENDBRANCH   4  25
TORSDOF 5
