REMARK  Name = ZINC63291805
REMARK  6 active torsions:
REMARK  status: ('A' for Active; 'I' for Inactive)
REMARK    1  A    between atoms: C_6  and  S_10
REMARK    2  A    between atoms: S_10  and  C_11
REMARK    3  A    between atoms: C_11  and  C_12
REMARK    4  A    between atoms: C_18  and  S_20
REMARK    5  A    between atoms: S_20  and  C_23
REMARK    6  A    between atoms: C_26  and  N_29
REMARK                            x       y       z     vdW  Elec       q    Type
REMARK                         _______ _______ _______ _____ _____    ______ ____
ROOT
ATOM      1  C   UNL     1       3.313  -2.560  -4.211  0.00  0.00    +0.229 C 
ATOM      2  O   UNL     1       4.002  -3.557  -4.234  0.00  0.00    -0.275 OA
ATOM      3  N   UNL     1       2.897  -2.000  -5.364  0.00  0.00    -0.264 N 
ATOM      4  C   UNL     1       3.259  -2.567  -6.581  0.00  0.00    +0.166 A 
ATOM      5  N   UNL     1       3.988  -3.640  -6.799  0.00  0.00    -0.231 NA
ATOM      6  C   UNL     1       4.245  -4.053  -8.026  0.00  0.00    +0.148 A 
ATOM      7  C   UNL     1       3.724  -3.324  -9.043  0.00  0.00    +0.152 A 
ATOM      8  S   UNL     1       2.864  -2.051  -8.134  0.00  0.00    -0.033 S 
ATOM      9  H   UNL     1       2.346  -1.202  -5.346  0.00  0.00    +0.157 HD
ENDROOT
BRANCH   7  10
ATOM     10  S   UNL     1       3.855  -3.568 -10.783  0.00  0.00    +0.033 S 
ATOM     11  O   UNL     1       3.642  -2.300 -11.389  0.00  0.00    -0.164 OA
ATOM     12  O   UNL     1       5.037  -4.326 -10.999  0.00  0.00    -0.164 OA
BRANCH  10  13
ATOM     13  C   UNL     1       2.505  -4.591 -11.269  0.00  0.00    +0.094 A 
ATOM     14  C   UNL     1       2.645  -5.967 -11.267  0.00  0.00    +0.029 A 
ATOM     15  C   UNL     1       1.586  -6.769 -11.647  0.00  0.00    +0.034 A 
ATOM     16  C   UNL     1       0.387  -6.197 -12.030  0.00  0.00    +0.126 A 
ATOM     17  C   UNL     1       0.247  -4.822 -12.031  0.00  0.00    +0.034 A 
ATOM     18  C   UNL     1       1.305  -4.019 -11.646  0.00  0.00    +0.029 A 
BRANCH  16  19
ATOM     19  N   UNL     1      -0.746  -7.056 -12.439  0.00  0.00    +0.056 N 
ATOM     20  O   UNL     1      -0.624  -8.259 -12.438  0.00  0.00    -0.126 OA
ATOM     21  O   UNL     1      -1.795  -6.556 -12.774  0.00  0.00    -0.126 OA
ENDBRANCH  16  19
ENDBRANCH  10  13
ENDBRANCH   7  10
BRANCH   1  22
ATOM     22  C   UNL     1       2.921  -1.946  -2.892  0.00  0.00    +0.169 C 
BRANCH  22  23
ATOM     23  S   UNL     1       3.629  -2.921  -1.536  0.00  0.00    -0.106 S 
BRANCH  23  29
ATOM     24  C   UNL     1      -0.016   1.344   0.009  0.00  0.00    +0.002 A 
ATOM     25  C   UNL     1       1.158   2.118   0.002  0.00  0.00    +0.002 A 
ATOM     26  C   UNL     1       2.389   1.570  -0.013  0.00  0.00    +0.027 A 
ATOM     27  C   UNL     1       2.533   0.108  -0.022  0.00  0.00    +0.061 A 
ATOM     28  N   UNL     1       3.569  -0.680  -0.036  0.00  0.00    -0.355 N 
ATOM     29  C   UNL     1       3.071  -2.062  -0.039  0.00  0.00    +0.236 C 
ATOM     30  N   UNL     1       1.606  -1.974  -0.024  0.00  0.00    -0.355 N 
ATOM     31  C   UNL     1       1.290  -0.712  -0.014  0.00  0.00    +0.061 A 
ATOM     32  C   UNL     1       0.002  -0.004   0.002  0.00  0.00    +0.027 A 
ATOM     33  H   UNL     1       4.499  -0.405  -0.045  0.00  0.00    +0.162 HD
ATOM     34  H   UNL     1       0.987  -2.721  -0.022  0.00  0.00    +0.162 HD
ENDBRANCH  23  29
ENDBRANCH  22  23
ENDBRANCH   1  22
TORSDOF 6
