REMARK  Name = ZINC05718760
REMARK  6 active torsions:
REMARK  status: ('A' for Active; 'I' for Inactive)
REMARK    1  A    between atoms: C_1  and  N_2
REMARK    2  A    between atoms: C_5  and  C_10
REMARK    3  A    between atoms: C_13  and  O_18
REMARK    4  A    between atoms: C_14  and  O_16
REMARK    5  A    between atoms: O_16  and  C_17
REMARK    6  A    between atoms: O_18  and  C_19
REMARK                            x       y       z     vdW  Elec       q    Type
REMARK                         _______ _______ _______ _____ _____    ______ ____
ROOT
ATOM      1  C   UNL     1       0.951  10.183   0.031  0.00  0.00    +0.139 C 
ATOM      2  N   UNL     1       0.706   8.749  -0.139  0.00  0.00    -0.262 N 
ATOM      3  C   UNL     1       1.716   7.883   0.177  0.00  0.00    +0.023 C 
ATOM      4  C   UNL     1       1.543   6.549   0.036  0.00  0.00    +0.037 C 
ATOM      5  C   UNL     1       0.206   6.050  -0.474  0.00  0.00    +0.140 C 
ATOM      6  N   UNL     1      -0.811   7.070  -0.783  0.00  0.00    -0.288 N 
ATOM      7  C   UNL     1      -0.492   8.366  -0.594  0.00  0.00    +0.307 C 
ATOM      8  O   UNL     1      -1.322   9.216  -0.846  0.00  0.00    -0.252 OA
ATOM      9  C   UNL     1       2.555   5.633   0.343  0.00  0.00    +0.163 C 
ATOM     10  O   UNL     1       2.349   4.443   0.210  0.00  0.00    -0.292 OA
ATOM     11  C   UNL     1       3.898   6.106   0.837  0.00  0.00    +0.080 C 
ATOM     12  C   UNL     1       4.168   7.505   0.273  0.00  0.00    +0.014 C 
ATOM     13  C   UNL     1       3.024   8.433   0.687  0.00  0.00    +0.052 C 
ATOM     14  H   UNL     1      -1.687   6.816  -1.113  0.00  0.00    +0.151 HD
ENDROOT
BRANCH   5  15
ATOM     15  C   UNL     1      -0.368   5.119   0.562  0.00  0.00    -0.019 A 
ATOM     16  C   UNL     1      -1.003   5.634   1.677  0.00  0.00    +0.009 A 
ATOM     17  C   UNL     1      -1.532   4.784   2.629  0.00  0.00    +0.050 A 
ATOM     18  C   UNL     1      -1.427   3.411   2.468  0.00  0.00    +0.162 A 
ATOM     19  C   UNL     1      -0.787   2.893   1.346  0.00  0.00    +0.162 A 
ATOM     20  C   UNL     1      -0.254   3.751   0.398  0.00  0.00    +0.055 A 
BRANCH  19  21
ATOM     21  O   UNL     1      -0.682   1.547   1.184  0.00  0.00    -0.491 OA
ATOM     22  C   UNL     1      -0.013   1.086   0.008  0.00  0.00    +0.277 C 
ENDBRANCH  19  21
BRANCH  18  23
ATOM     23  O   UNL     1      -1.946   2.574   3.405  0.00  0.00    -0.491 OA
ATOM     24  C   UNL     1      -2.588   3.176   4.530  0.00  0.00    +0.277 C 
ENDBRANCH  18  23
ENDBRANCH   5  15
TORSDOF 3
