REMARK  Name = ZINC00342717
REMARK  5 active torsions:
REMARK  status: ('A' for Active; 'I' for Inactive)
REMARK    1  A    between atoms: C_4  and  C_7
REMARK    2  A    between atoms: C_10  and  C_12
REMARK    3  A    between atoms: N_14  and  N_15
REMARK    4  A    between atoms: C_16  and  C_18
REMARK    5  A    between atoms: C_23  and  N_24
REMARK                            x       y       z     vdW  Elec       q    Type
REMARK                         _______ _______ _______ _____ _____    ______ ____
ROOT
ATOM      1  C   UNL     1       4.173  -1.664   3.061  0.00  0.00    +0.233 C 
ATOM      2  O   UNL     1       3.334  -0.792   2.976  0.00  0.00    -0.274 OA
ATOM      3  N   UNL     1       4.017  -2.664   3.951  0.00  0.00    -0.234 N 
ATOM      4  H   UNL     1       4.688  -3.362   4.018  0.00  0.00    +0.173 HD
ENDROOT
BRANCH   3   5
ATOM      5  N   UNL     1       2.888  -2.696   4.779  0.00  0.00    -0.230 N 
ATOM      6  C   UNL     1       2.732  -3.696   5.669  0.00  0.00    +0.262 C 
ATOM      7  O   UNL     1       3.573  -4.570   5.753  0.00  0.00    -0.269 OA
ATOM      8  H   UNL     1       2.217  -1.998   4.712  0.00  0.00    +0.173 HD
BRANCH   6   9
ATOM      9  C   UNL     1       1.540  -3.729   6.543  0.00  0.00    +0.068 A 
ATOM     10  C   UNL     1       1.226  -2.628   7.342  0.00  0.00    +0.015 A 
ATOM     11  C   UNL     1       0.112  -2.666   8.155  0.00  0.00    +0.001 A 
ATOM     12  C   UNL     1      -0.693  -3.791   8.179  0.00  0.00    +0.002 A 
ATOM     13  C   UNL     1      -0.387  -4.885   7.390  0.00  0.00    +0.033 A 
ATOM     14  C   UNL     1       0.721  -4.859   6.568  0.00  0.00    +0.138 A 
BRANCH  14  15
ATOM     15  N   UNL     1       1.044  -6.028   5.720  0.00  0.00    +0.057 N 
ATOM     16  O   UNL     1       0.407  -7.050   5.831  0.00  0.00    -0.126 OA
ATOM     17  O   UNL     1       1.943  -5.961   4.915  0.00  0.00    -0.126 OA
ENDBRANCH  14  15
ENDBRANCH   6   9
ENDBRANCH   3   5
BRANCH   1  20
ATOM     18  C   UNL     1       5.506  -0.469   1.180  0.00  0.00    +0.032 C 
ATOM     19  C   UNL     1       5.175  -1.875   0.674  0.00  0.00    +0.022 C 
ATOM     20  C   UNL     1       5.388  -1.630   2.170  0.00  0.00    +0.084 C 
BRANCH  18  24
ATOM     21  C   UNL     1       2.367   2.428   1.152  0.00  0.00    +0.000 A 
ATOM     22  C   UNL     1       3.663   2.816   1.434  0.00  0.00    +0.000 A 
ATOM     23  C   UNL     1       4.679   1.878   1.443  0.00  0.00    +0.004 A 
ATOM     24  C   UNL     1       4.398   0.553   1.171  0.00  0.00    -0.044 A 
ATOM     25  C   UNL     1       3.102   0.164   0.889  0.00  0.00    +0.004 A 
ATOM     26  C   UNL     1       2.086   1.102   0.879  0.00  0.00    +0.000 A 
ENDBRANCH  18  24
ENDBRANCH   1  20
TORSDOF 5
