REMARK  Name = ZINC27345017
REMARK  9 active torsions:
REMARK  status: ('A' for Active; 'I' for Inactive)
REMARK    1  A    between atoms: C_1  and  C_2
REMARK    2  A    between atoms: C_2  and  C_32
REMARK    3  A    between atoms: C_6  and  N_24
REMARK    4  A    between atoms: C_13  and  N_18
REMARK    5  A    between atoms: N_18  and  C_19
REMARK    6  A    between atoms: C_19  and  C_20
REMARK    7  A    between atoms: C_20  and  C_21
REMARK    8  A    between atoms: C_21  and  O_22
REMARK    9  A    between atoms: O_22  and  C_23
REMARK                            x       y       z     vdW  Elec       q    Type
REMARK                         _______ _______ _______ _____ _____    ______ ____
ROOT
ATOM      1  C   UNL     1       4.814   0.533  -1.741  0.00  0.00    +0.041 C 
ATOM      2  C   UNL     1       4.859   0.206  -0.247  0.00  0.00    +0.068 C 
ATOM      3  C   UNL     1       3.709  -0.739   0.109  0.00  0.00    +0.070 C 
ATOM      4  C   UNL     1       2.402   0.005   0.046  0.00  0.00    -0.025 A 
ATOM      5  C   UNL     1       2.346   1.363   0.048  0.00  0.00    +0.020 A 
ATOM      6  C   UNL     1       1.107   2.011   0.002  0.00  0.00    +0.105 A 
ATOM      7  N   UNL     1      -0.015   1.312  -0.049  0.00  0.00    -0.337 N 
ATOM      8  C   UNL     1       0.003  -0.004  -0.058  0.00  0.00    +0.089 A 
ATOM      9  C   UNL     1       1.202  -0.745  -0.011  0.00  0.00    +0.031 A 
ATOM     10  C   UNL     1       1.044  -2.203  -0.024  0.00  0.00    +0.055 A 
ATOM     11  C   UNL     1      -0.232  -2.682  -0.091  0.00  0.00    +0.050 A 
ATOM     12  S   UNL     1      -1.263  -1.250  -0.123  0.00  0.00    -0.070 S 
ATOM     13  C   UNL     1      -0.589  -4.137  -0.129  0.00  0.00    +0.188 C 
ATOM     14  N   UNL     1       0.571  -4.856   0.439  0.00  0.00    -0.359 N 
ATOM     15  C   UNL     1       1.837  -4.373   0.213  0.00  0.00    +0.157 C 
ATOM     16  N   UNL     1       2.093  -3.116   0.013  0.00  0.00    -0.306 N 
ATOM     17  C   UNL     1       3.598   2.202   0.098  0.00  0.00    +0.199 C 
ATOM     18  O   UNL     1       4.708   1.409   0.515  0.00  0.00    -0.369 OA
ATOM     19  C   UNL     1       6.196  -0.456   0.095  0.00  0.00    +0.041 C 
ATOM     20  H   UNL     1       0.429  -5.768   1.037  0.00  0.00    +0.162 HD
ATOM     21  H   UNL     1      -0.985   1.829  -0.086  0.00  0.00    +0.168 HD
ATOM     22  H   UNL     1       3.128  -2.771  -0.128  0.00  0.00    +0.153 HD
ENDROOT
BRANCH   6  23
ATOM     23  N   UNL     1       1.054   3.401   0.010  0.00  0.00    -0.312 N 
ATOM     24  C   UNL     1       0.331   3.894   1.191  0.00  0.00    +0.134 C 
ATOM     25  C   UNL     1       0.347   5.425   1.191  0.00  0.00    +0.178 C 
ATOM     26  O   UNL     1      -0.222   5.902  -0.031  0.00  0.00    -0.377 OA
ATOM     27  C   UNL     1       0.458   5.442  -1.202  0.00  0.00    +0.178 C 
ATOM     28  C   UNL     1       0.442   3.911  -1.226  0.00  0.00    +0.134 C 
ENDBRANCH   6  23
BRANCH  13  29
ATOM     29  N   UNL     1      -0.819  -4.564  -1.515  0.00  0.00    -0.293 NA
ATOM     30  H   UNL     1      -0.940  -3.679  -2.157  0.00  0.00    +0.124 HD
BRANCH  29  31
ATOM     31  C   UNL     1      -2.031  -5.389  -1.617  0.00  0.00    +0.085 C 
BRANCH  31  32
ATOM     32  C   UNL     1      -2.237  -5.815  -3.072  0.00  0.00    +0.043 C 
BRANCH  32  33
ATOM     33  C   UNL     1      -3.499  -6.673  -3.178  0.00  0.00    +0.160 C 
BRANCH  33  34
ATOM     34  O   UNL     1      -3.692  -7.071  -4.537  0.00  0.00    -0.383 OA
ATOM     35  C   UNL     1      -4.851  -7.881  -4.746  0.00  0.00    +0.193 C 
ENDBRANCH  33  34
ENDBRANCH  32  33
ENDBRANCH  31  32
ENDBRANCH  29  31
ENDBRANCH  13  29
TORSDOF 6
