REMARK  Name = ZINC36749068
REMARK  7 active torsions:
REMARK  status: ('A' for Active; 'I' for Inactive)
REMARK    1  A    between atoms: C_1  and  C_2
REMARK    2  A    between atoms: C_3  and  N_20
REMARK    3  A    between atoms: C_4  and  N_8
REMARK    4  A    between atoms: N_5  and  C_7
REMARK    5  A    between atoms: N_8  and  C_9
REMARK    6  A    between atoms: C_14  and  C_19
REMARK    7  A    between atoms: C_16  and  C_18
REMARK                            x       y       z     vdW  Elec       q    Type
REMARK                         _______ _______ _______ _____ _____    ______ ____
ROOT
ATOM      1  C   UNL     1      -0.127   1.471  -0.070  0.00  0.00    +0.069 C 
ATOM      2  C   UNL     1       0.049  -0.026  -0.076  0.00  0.00    +0.082 A 
ATOM      3  C   UNL     1       0.263  -0.820  -1.209  0.00  0.00    +0.087 A 
ATOM      4  C   UNL     1       0.371  -2.115  -0.795  0.00  0.00    +0.138 A 
ATOM      5  N   UNL     1       0.227  -2.124   0.558  0.00  0.00    -0.252 N 
ATOM      6  N   UNL     1       0.032  -0.803   0.978  0.00  0.00    -0.173 NA
ATOM      7  C   UNL     1       0.274  -3.306   1.422  0.00  0.00    +0.174 C 
ENDROOT
BRANCH   3   8
ATOM      8  N   UNL     1       0.352  -0.361  -2.543  0.00  0.00    -0.354 N 
ATOM      9  H   UNL     1       0.261   0.585  -2.738  0.00  0.00    +0.142 HD
ATOM     10  H   UNL     1       0.503  -0.993  -3.264  0.00  0.00    +0.142 HD
ENDBRANCH   3   8
BRANCH   4  11
ATOM     11  N   UNL     1       0.589  -3.228  -1.611  0.00  0.00    -0.325 N 
ATOM     12  H   UNL     1       0.578  -3.131  -2.576  0.00  0.00    +0.148 HD
BRANCH  11  13
ATOM     13  C   UNL     1       0.835  -4.541  -1.009  0.00  0.00    +0.075 C 
ATOM     14  C   UNL     1      -0.482  -5.315  -0.920  0.00  0.00    +0.022 C 
ATOM     15  C   UNL     1      -0.225  -6.686  -0.291  0.00  0.00    +0.002 C 
ATOM     16  C   UNL     1       0.767  -7.466  -1.156  0.00  0.00    +0.003 C 
ATOM     17  C   UNL     1       2.084  -6.692  -1.245  0.00  0.00    -0.009 C 
ATOM     18  C   UNL     1       1.827  -5.321  -1.874  0.00  0.00    +0.009 C 
ATOM     19  C   UNL     1       3.144  -4.546  -1.963  0.00  0.00    +0.009 C 
ATOM     20  C   UNL     1       2.664  -6.509   0.159  0.00  0.00    +0.008 C 
ENDBRANCH  11  13
ENDBRANCH   4  11
TORSDOF 3
