REMARK  Name = ZINC00658921
REMARK  9 active torsions:
REMARK  status: ('A' for Active; 'I' for Inactive)
REMARK    1  A    between atoms: C_1  and  C_2
REMARK    2  A    between atoms: C_2  and  C_3
REMARK    3  A    between atoms: C_2  and  C_4
REMARK    4  A    between atoms: C_2  and  C_5
REMARK    5  A    between atoms: C_12  and  N_30
REMARK    6  A    between atoms: C_13  and  C_28
REMARK    7  A    between atoms: C_14  and  C_16
REMARK    8  A    between atoms: C_25  and  O_26
REMARK    9  A    between atoms: O_26  and  C_27
REMARK                            x       y       z     vdW  Elec       q    Type
REMARK                         _______ _______ _______ _____ _____    ______ ____
ROOT
ATOM      1  C   UNL     1       0.789  -0.736  -1.811  0.00  0.00    +0.076 A 
ATOM      2  C   UNL     1       0.866  -2.121  -1.855  0.00  0.00    +0.050 A 
ATOM      3  C   UNL     1       1.582  -2.470  -2.966  0.00  0.00    +0.222 A 
ATOM      4  N   UNL     1       1.936  -1.337  -3.594  0.00  0.00    -0.246 N 
ATOM      5  H   UNL     1       2.451  -1.275  -4.413  0.00  0.00    +0.192 HD
ATOM      6  N   UNL     1       1.424  -0.259  -2.855  0.00  0.00    -0.175 NA
ATOM      7  O   UNL     1       1.840  -3.760  -3.296  0.00  0.00    -0.423 OA
ATOM      8  C   UNL     1       1.611  -4.702  -2.358  0.00  0.00    +0.200 C 
ATOM      9  C   UNL     1       0.908  -4.480  -1.225  0.00  0.00    +0.098 C 
ATOM     10  C   UNL     1       0.298  -3.139  -0.901  0.00  0.00    +0.105 C 
ENDROOT
BRANCH  10  11
ATOM     11  C   UNL     1      -1.199  -3.208  -1.062  0.00  0.00    +0.015 A 
ATOM     12  C   UNL     1      -2.036  -3.094   0.060  0.00  0.00    -0.010 A 
ATOM     13  C   UNL     1      -1.506  -2.915   1.350  0.00  0.00    +0.009 A 
ATOM     14  C   UNL     1      -2.347  -2.808   2.414  0.00  0.00    +0.001 A 
ATOM     15  C   UNL     1      -3.729  -2.874   2.247  0.00  0.00    +0.001 A 
ATOM     16  C   UNL     1      -4.278  -3.047   1.013  0.00  0.00    +0.008 A 
ATOM     17  C   UNL     1      -3.441  -3.160  -0.111  0.00  0.00    -0.017 A 
ATOM     18  C   UNL     1      -3.973  -3.339  -1.400  0.00  0.00    +0.012 A 
ATOM     19  C   UNL     1      -3.136  -3.446  -2.466  0.00  0.00    +0.046 A 
ATOM     20  C   UNL     1      -1.749  -3.375  -2.301  0.00  0.00    +0.125 A 
BRANCH  20  21
ATOM     21  O   UNL     1      -0.938  -3.480  -3.386  0.00  0.00    -0.495 OA
ATOM     22  C   UNL     1      -1.572  -3.654  -4.655  0.00  0.00    +0.277 C 
ENDBRANCH  20  21
ENDBRANCH  10  11
BRANCH   1  24
ATOM     23  C   UNL     1       0.418   1.560  -0.949  0.00  0.00    +0.017 C 
ATOM     24  C   UNL     1       0.091   0.079  -0.752  0.00  0.00    +0.007 C 
ATOM     25  C   UNL     1       0.566  -0.369   0.631  0.00  0.00    +0.017 C 
ATOM     26  C   UNL     1      -1.421  -0.129  -0.864  0.00  0.00    +0.017 C 
ENDBRANCH   1  24
BRANCH   8  27
ATOM     27  N   UNL     1       2.123  -5.958  -2.565  0.00  0.00    -0.328 N 
ATOM     28  H   UNL     1       2.632  -6.148  -3.369  0.00  0.00    +0.145 HD
ATOM     29  H   UNL     1       1.975  -6.657  -1.908  0.00  0.00    +0.145 HD
ENDBRANCH   8  27
BRANCH   9  30
ATOM     30  C   UNL     1       0.735  -5.559  -0.299  0.00  0.00    +0.101 C 
ATOM     31  N   UNL     1       0.598  -6.414   0.436  0.00  0.00    -0.191 NA
ENDBRANCH   9  30
TORSDOF 5
