REMARK  Name = ZINC40158027
REMARK  9 active torsions:
REMARK  status: ('A' for Active; 'I' for Inactive)
REMARK    1  A    between atoms: C_1  and  S_2
REMARK    2  A    between atoms: S_2  and  C_5
REMARK    3  A    between atoms: C_7  and  S_12
REMARK    4  A    between atoms: S_12  and  N_15
REMARK    5  A    between atoms: N_15  and  N_16
REMARK    6  A    between atoms: C_17  and  C_19
REMARK    7  A    between atoms: C_22  and  C_24
REMARK    8  A    between atoms: C_24  and  O_25
REMARK    9  A    between atoms: O_25  and  C_26
REMARK                            x       y       z     vdW  Elec       q    Type
REMARK                         _______ _______ _______ _____ _____    ______ ____
ROOT
ATOM      1  N   UNL     1       3.271  -4.475  -3.581  0.00  0.00    -0.225 N 
ATOM      2  C   UNL     1       3.816  -5.517  -4.240  0.00  0.00    +0.294 C 
ATOM      3  O   UNL     1       4.900  -5.953  -3.899  0.00  0.00    -0.265 OA
ATOM      4  H   UNL     1       2.407  -4.127  -3.853  0.00  0.00    +0.171 HD
ENDROOT
BRANCH   2   5
ATOM      5  C   UNL     1       3.102  -6.126  -5.367  0.00  0.00    +0.191 A 
ATOM      6  C   UNL     1       3.535  -7.184  -6.113  0.00  0.00    +0.055 A 
ATOM      7  C   UNL     1       2.545  -7.431  -7.077  0.00  0.00    +0.049 A 
ATOM      8  C   UNL     1       1.563  -6.524  -6.879  0.00  0.00    +0.143 A 
ATOM      9  O   UNL     1       1.900  -5.742  -5.845  0.00  0.00    -0.452 OA
BRANCH   8  10
ATOM     10  C   UNL     1       0.295  -6.413  -7.686  0.00  0.00    +0.303 C 
BRANCH  10  11
ATOM     11  O   UNL     1      -0.720  -7.226  -7.094  0.00  0.00    -0.484 OA
BRANCH  11  12
ATOM     12  C   UNL     1      -1.934  -7.239  -7.703  0.00  0.00    +0.121 A 
ATOM     13  C   UNL     1      -2.143  -6.488  -8.851  0.00  0.00    +0.045 A 
ATOM     14  C   UNL     1      -3.379  -6.503  -9.469  0.00  0.00    +0.004 A 
ATOM     15  C   UNL     1      -4.406  -7.266  -8.944  0.00  0.00    +0.000 A 
ATOM     16  C   UNL     1      -4.200  -8.014  -7.801  0.00  0.00    +0.004 A 
ATOM     17  C   UNL     1      -2.965  -8.007  -7.182  0.00  0.00    +0.045 A 
ENDBRANCH  11  12
ENDBRANCH  10  11
ENDBRANCH   8  10
ENDBRANCH   2   5
BRANCH   1  18
ATOM     18  N   UNL     1       3.953  -3.893  -2.505  0.00  0.00    -0.108 NA
ATOM     19  H   UNL     1       4.238  -4.442  -1.758  0.00  0.00    +0.172 HD
BRANCH  18  20
ATOM     20  S   UNL     1       4.272  -2.268  -2.507  0.00  0.00    +0.074 S 
ATOM     21  O   UNL     1       4.947  -1.989  -3.726  0.00  0.00    -0.152 OA
ATOM     22  O   UNL     1       4.834  -1.962  -1.238  0.00  0.00    -0.152 OA
BRANCH  20  25
ATOM     23  C   UNL     1       0.845  -0.437  -1.483  0.00  0.00    +0.125 A 
ATOM     24  C   UNL     1       2.061  -1.093  -1.422  0.00  0.00    +0.058 A 
ATOM     25  C   UNL     1       2.723  -1.433  -2.587  0.00  0.00    +0.109 A 
ATOM     26  C   UNL     1       2.170  -1.118  -3.814  0.00  0.00    +0.031 A 
ATOM     27  C   UNL     1       0.955  -0.463  -3.878  0.00  0.00    +0.042 A 
ATOM     28  C   UNL     1       0.288  -0.126  -2.712  0.00  0.00    +0.148 A 
ATOM     29  F   UNL     1      -0.902   0.510  -2.773  0.00  0.00    -0.203 F 
BRANCH  23  31
ATOM     30  C   UNL     1      -0.022   1.810   0.012  0.00  0.00    +0.200 C 
ATOM     31  S   UNL     1       0.002  -0.004   0.002  0.00  0.00    -0.003 S 
ATOM     32  O   UNL     1       0.835  -0.488   1.046  0.00  0.00    -0.170 OA
ATOM     33  O   UNL     1      -1.315  -0.510  -0.168  0.00  0.00    -0.170 OA
ENDBRANCH  23  31
ENDBRANCH  20  25
ENDBRANCH  18  20
ENDBRANCH   1  18
TORSDOF 8
