REMARK  Name = ZINC12600580
REMARK  8 active torsions:
REMARK  status: ('A' for Active; 'I' for Inactive)
REMARK    1  A    between atoms: C_1  and  O_2
REMARK    2  A    between atoms: O_2  and  C_3
REMARK    3  A    between atoms: C_6  and  N_9
REMARK    4  A    between atoms: N_9  and  C_10
REMARK    5  A    between atoms: N_9  and  S_23
REMARK    6  A    between atoms: C_10  and  C_11
REMARK    7  A    between atoms: S_23  and  C_26
REMARK    8  A    between atoms: C_30  and  N_32
REMARK                            x       y       z     vdW  Elec       q    Type
REMARK                         _______ _______ _______ _____ _____    ______ ____
ROOT
ATOM      1  N   UNL     1       4.367   2.454  -1.603  0.00  0.00    -0.194 N 
ENDROOT
BRANCH   1   5
ATOM      2  C   UNL     1       3.384   5.870  -3.779  0.00  0.00    +0.120 A 
ATOM      3  C   UNL     1       4.426   5.057  -4.199  0.00  0.00    +0.047 A 
ATOM      4  C   UNL     1       4.753   3.925  -3.478  0.00  0.00    +0.028 A 
ATOM      5  C   UNL     1       4.037   3.601  -2.333  0.00  0.00    +0.052 A 
ATOM      6  C   UNL     1       2.991   4.413  -1.917  0.00  0.00    +0.028 A 
ATOM      7  C   UNL     1       2.669   5.548  -2.635  0.00  0.00    +0.047 A 
BRANCH   2   9
ATOM      8  C   UNL     1       1.979   7.777  -4.000  0.00  0.00    +0.277 C 
ATOM      9  O   UNL     1       3.063   6.985  -4.490  0.00  0.00    -0.495 OA
ENDBRANCH   2   9
ENDBRANCH   1   5
BRANCH   1  10
ATOM     10  S   UNL     1       4.851   2.588  -0.025  0.00  0.00    +0.075 S 
ATOM     11  O   UNL     1       5.407   3.888   0.121  0.00  0.00    -0.150 OA
ATOM     12  O   UNL     1       5.583   1.409   0.278  0.00  0.00    -0.150 OA
BRANCH  10  13
ATOM     13  C   UNL     1       3.398   2.548   0.971  0.00  0.00    +0.111 A 
ATOM     14  C   UNL     1       2.804   3.729   1.375  0.00  0.00    +0.030 A 
ATOM     15  C   UNL     1       1.664   3.698   2.156  0.00  0.00    +0.024 A 
ATOM     16  C   UNL     1       1.117   2.484   2.534  0.00  0.00    +0.071 A 
ATOM     17  C   UNL     1       1.712   1.303   2.129  0.00  0.00    +0.146 A 
ATOM     18  C   UNL     1       2.852   1.335   1.348  0.00  0.00    +0.063 A 
ATOM     19 CL   UNL     1      -0.314   2.444   3.514  0.00  0.00    -0.081 Cl
BRANCH  17  20
ATOM     20  N   UNL     1       1.129   0.004   2.533  0.00  0.00    +0.058 N 
ATOM     21  O   UNL     1       1.652  -1.036   2.177  0.00  0.00    -0.126 OA
ATOM     22  O   UNL     1       0.124  -0.024   3.222  0.00  0.00    -0.126 OA
ENDBRANCH  17  20
ENDBRANCH  10  13
ENDBRANCH   1  10
BRANCH   1  23
ATOM     23  C   UNL     1       4.284   1.135  -2.233  0.00  0.00    +0.227 C 
BRANCH  23  24
ATOM     24  C   UNL     1       2.873   0.617  -2.133  0.00  0.00    +0.235 C 
ATOM     25  O   UNL     1       2.019   1.285  -1.587  0.00  0.00    -0.274 OA
ATOM     26  N   UNL     1       2.558  -0.588  -2.648  0.00  0.00    -0.295 N 
ATOM     27  C   UNL     1       1.188  -1.122  -2.567  0.00  0.00    +0.113 C 
ATOM     28  C   UNL     1       0.647  -1.246  -3.990  0.00  0.00    +0.054 C 
ATOM     29  C   UNL     1       1.652  -1.917  -4.889  0.00  0.00    -0.041 A 
ATOM     30  C   UNL     1       1.185  -2.478  -6.072  0.00  0.00    +0.004 A 
ATOM     31  C   UNL     1       2.053  -3.100  -6.944  0.00  0.00    +0.000 A 
ATOM     32  C   UNL     1       3.401  -3.167  -6.643  0.00  0.00    +0.000 A 
ATOM     33  C   UNL     1       3.867  -2.613  -5.468  0.00  0.00    +0.005 A 
ATOM     34  C   UNL     1       2.993  -1.991  -4.587  0.00  0.00    -0.027 A 
ATOM     35  C   UNL     1       3.565  -1.417  -3.319  0.00  0.00    +0.143 C 
ENDBRANCH  23  24
ENDBRANCH   1  23
TORSDOF 7
