REMARK  Name = ZINC63372865
REMARK  8 active torsions:
REMARK  status: ('A' for Active; 'I' for Inactive)
REMARK    1  A    between atoms: C_1  and  C_2
REMARK    2  A    between atoms: C_2  and  O_3
REMARK    3  A    between atoms: O_3  and  C_4
REMARK    4  A    between atoms: C_5  and  C_12
REMARK    5  A    between atoms: C_9  and  O_10
REMARK    6  A    between atoms: O_10  and  C_11
REMARK    7  A    between atoms: N_19  and  C_34
REMARK    8  A    between atoms: C_22  and  C_33
REMARK                            x       y       z     vdW  Elec       q    Type
REMARK                         _______ _______ _______ _____ _____    ______ ____
ROOT
ATOM      1  C   UNL     1      -2.040  -1.809  -2.485  0.00  0.00    +0.069 C 
ATOM      2  C   UNL     1      -0.649  -2.126  -3.041  0.00  0.00    +0.121 C 
ATOM      3  N   UNL     1      -0.589  -3.378  -3.774  0.00  0.00    -0.283 N 
ATOM      4  C   UNL     1       0.660  -3.888  -4.036  0.00  0.00    +0.234 C 
ATOM      5  O   UNL     1       1.660  -3.397  -3.556  0.00  0.00    -0.274 OA
ATOM      6  C   UNL     1       0.729  -5.093  -4.950  0.00  0.00    +0.204 C 
ATOM      7  N   UNL     1      -0.180  -4.869  -6.090  0.00  0.00    -0.288 N 
ATOM      8  C   UNL     1      -1.432  -4.408  -5.790  0.00  0.00    +0.242 C 
ATOM      9  O   UNL     1      -2.276  -4.223  -6.641  0.00  0.00    -0.273 OA
ATOM     10  C   UNL     1      -1.689  -4.146  -4.329  0.00  0.00    +0.135 C 
ATOM     11  C   UNL     1      -3.077  -3.670  -4.030  0.00  0.00    +0.139 C 
ATOM     12  C   UNL     1      -3.022  -2.226  -3.551  0.00  0.00    -0.027 C 
ATOM     13  C   UNL     1      -3.926  -1.559  -4.253  0.00  0.00    -0.000 A 
ATOM     14  C   UNL     1      -4.403  -0.169  -4.175  0.00  0.00    +0.010 A 
ATOM     15  C   UNL     1      -5.346   0.194  -5.085  0.00  0.00    +0.001 A 
ATOM     16  C   UNL     1      -5.856  -0.676  -6.053  0.00  0.00    +0.002 A 
ATOM     17  C   UNL     1      -5.482  -1.973  -6.191  0.00  0.00    +0.026 A 
ATOM     18  C   UNL     1      -4.503  -2.474  -5.285  0.00  0.00    +0.043 A 
ATOM     19  N   UNL     1      -3.978  -3.654  -5.181  0.00  0.00    -0.375 N 
ATOM     20  C   UNL     1      -1.599  -5.518  -3.658  0.00  0.00    +0.044 C 
ATOM     21  H   UNL     1      -4.162  -4.403  -5.770  0.00  0.00    +0.160 HD
ENDROOT
BRANCH   1  23
ATOM     22  C   UNL     1      -2.445  -1.928  -0.015  0.00  0.00    +0.166 A 
ATOM     23  C   UNL     1      -2.284  -2.592  -1.221  0.00  0.00    +0.007 A 
ATOM     24  C   UNL     1      -2.349  -3.972  -1.264  0.00  0.00    +0.008 A 
ATOM     25  C   UNL     1      -2.573  -4.693  -0.105  0.00  0.00    +0.004 A 
ATOM     26  C   UNL     1      -2.735  -4.037   1.100  0.00  0.00    +0.049 A 
ATOM     27  C   UNL     1      -2.666  -2.654   1.151  0.00  0.00    +0.162 A 
BRANCH  27  28
ATOM     28  O   UNL     1      -2.819  -2.007   2.338  0.00  0.00    -0.491 OA
ATOM     29  C   UNL     1      -3.042  -2.816   3.494  0.00  0.00    +0.277 C 
ENDBRANCH  27  28
BRANCH  22  30
ATOM     30  O   UNL     1      -2.382  -0.570   0.029  0.00  0.00    -0.488 OA
BRANCH  30  32
ATOM     31  C   UNL     1      -1.223   1.538   0.265  0.00  0.00    +0.048 C 
ATOM     32  C   UNL     1      -1.096   0.013   0.247  0.00  0.00    +0.226 C 
ENDBRANCH  30  32
ENDBRANCH  22  30
ENDBRANCH   1  23
BRANCH   7  33
ATOM     33  C   UNL     1       0.237  -5.127  -7.471  0.00  0.00    +0.077 C 
ATOM     34  C   UNL     1       0.696  -6.592  -7.619  0.00  0.00    +0.022 C 
ATOM     35  C   UNL     1       1.889  -6.519  -8.605  0.00  0.00    +0.002 C 
ATOM     36  C   UNL     1       2.602  -5.210  -8.181  0.00  0.00    +0.002 C 
ATOM     37  C   UNL     1       1.449  -4.248  -7.828  0.00  0.00    +0.022 C 
ENDBRANCH   7  33
TORSDOF 5
