REMARK  Name = ZINC63742964
REMARK  10 active torsions:
REMARK  status: ('A' for Active; 'I' for Inactive)
REMARK    1  A    between atoms: C_1  and  C_2
REMARK    2  A    between atoms: C_2  and  O_3
REMARK    3  A    between atoms: O_3  and  C_4
REMARK    4  A    between atoms: C_4  and  C_6
REMARK    5  A    between atoms: C_11  and  N_13
REMARK    6  A    between atoms: C_14  and  C_16
REMARK    7  A    between atoms: C_16  and  S_17
REMARK    8  A    between atoms: S_17  and  C_18
REMARK    9  A    between atoms: C_24  and  O_28
REMARK   10  A    between atoms: O_28  and  C_29
REMARK                            x       y       z     vdW  Elec       q    Type
REMARK                         _______ _______ _______ _____ _____    ______ ____
ROOT
ATOM      1  C   UNL     1       4.703  -5.995   1.885  0.00  0.00    +0.168 C 
ENDROOT
BRANCH   1   3
ATOM      2  N   UNL     1       2.789  -4.428   1.861  0.00  0.00    -0.301 N 
ATOM      3  C   UNL     1       3.399  -5.481   2.440  0.00  0.00    +0.224 C 
ATOM      4  O   UNL     1       2.899  -6.015   3.407  0.00  0.00    -0.275 OA
ATOM      5  H   UNL     1       3.189  -4.001   1.087  0.00  0.00    +0.150 HD
BRANCH   2  10
ATOM      6  C   UNL     1       1.516  -2.381   2.500  0.00  0.00    +0.151 C 
ATOM      7  C   UNL     1       0.824  -1.935   3.748  0.00  0.00    -0.003 C 
ATOM      8  C   UNL     1       0.645  -2.787   4.739  0.00  0.00    +0.039 C 
ATOM      9  S   UNL     1       1.344  -4.332   4.187  0.00  0.00    -0.110 S 
ATOM     10  C   UNL     1       1.521  -3.929   2.399  0.00  0.00    +0.153 C 
BRANCH   6  11
ATOM     11  C   UNL     1       0.801  -1.808   1.304  0.00  0.00    +0.317 C 
ATOM     12  O   UNL     1       0.324  -2.546   0.475  0.00  0.00    -0.250 OA
BRANCH  11  13
ATOM     13  O   UNL     1       0.693  -0.477   1.160  0.00  0.00    -0.464 OA
BRANCH  13  15
ATOM     14  C   UNL     1      -0.019   1.526   0.010  0.00  0.00    +0.048 C 
ATOM     15  C   UNL     1       0.002  -0.004   0.002  0.00  0.00    +0.229 C 
ENDBRANCH  13  15
ENDBRANCH  11  13
ENDBRANCH   6  11
ENDBRANCH   2  10
ENDBRANCH   1   3
BRANCH   1  16
ATOM     16  S   UNL     1       5.266  -7.407   2.875  0.00  0.00    -0.106 S 
BRANCH  16  17
ATOM     17  C   UNL     1       6.824  -7.900   2.088  0.00  0.00    +0.236 C 
ATOM     18  N   UNL     1       7.764  -6.772   2.080  0.00  0.00    -0.355 N 
ATOM     19  C   UNL     1       8.042  -6.502   0.838  0.00  0.00    +0.061 A 
ATOM     20  C   UNL     1       8.910  -5.491   0.215  0.00  0.00    +0.031 A 
ATOM     21  C   UNL     1       9.014  -5.433  -1.125  0.00  0.00    +0.048 A 
ATOM     22  C   UNL     1       8.287  -6.349  -1.995  0.00  0.00    +0.122 A 
ATOM     23  C   UNL     1       7.468  -7.308  -1.497  0.00  0.00    +0.073 A 
ATOM     24  C   UNL     1       7.300  -7.439  -0.049  0.00  0.00    +0.064 A 
ATOM     25  N   UNL     1       6.589  -8.255   0.683  0.00  0.00    -0.355 N 
ATOM     26  H   UNL     1       8.114  -6.312   2.859  0.00  0.00    +0.162 HD
ATOM     27  H   UNL     1       6.013  -8.965   0.359  0.00  0.00    +0.162 HD
BRANCH  22  28
ATOM     28  O   UNL     1       8.434  -6.239  -3.338  0.00  0.00    -0.495 OA
ATOM     29  C   UNL     1       9.308  -5.213  -3.814  0.00  0.00    +0.277 C 
ENDBRANCH  22  28
ENDBRANCH  16  17
ENDBRANCH   1  16
TORSDOF 8
