REMARK  Name = ZINC64076601
REMARK  5 active torsions:
REMARK  status: ('A' for Active; 'I' for Inactive)
REMARK    1  A    between atoms: C_7  and  C_10
REMARK    2  A    between atoms: N_13  and  C_16
REMARK    3  A    between atoms: C_16  and  C_17
REMARK    4  A    between atoms: C_17  and  C_18
REMARK    5  A    between atoms: N_20  and  C_21
REMARK                            x       y       z     vdW  Elec       q    Type
REMARK                         _______ _______ _______ _____ _____    ______ ____
ROOT
ATOM      1  C   UNL     1       0.712  -3.192  -0.032  0.00  0.00    +0.014 C 
ATOM      2  C   UNL     1       0.939  -4.041  -1.286  0.00  0.00    -0.011 C 
ATOM      3  C   UNL     1       0.032  -5.272  -1.233  0.00  0.00    -0.078 C 
ATOM      4  N   UNL     1       0.346  -6.066  -0.039  0.00  0.00    +0.380 N 
ATOM      5  C   UNL     1       0.062  -5.282   1.169  0.00  0.00    -0.078 C 
ATOM      6  C   UNL     1       0.971  -4.052   1.209  0.00  0.00    -0.011 C 
ATOM      7  H   UNL     1       1.323  -6.319  -0.053  0.00  0.00    -0.082 HD
ENDROOT
BRANCH   1  14
ATOM      8  C   UNL     1       0.027   1.345   0.006  0.00  0.00    +0.001 A 
ATOM      9  C   UNL     1       1.213   2.092  -0.009  0.00  0.00    +0.002 A 
ATOM     10  C   UNL     1       2.435   1.520  -0.030  0.00  0.00    +0.026 A 
ATOM     11  C   UNL     1       2.566   0.104  -0.041  0.00  0.00    +0.043 A 
ATOM     12  N   UNL     1       3.620  -0.675  -0.062  0.00  0.00    -0.380 N 
ATOM     13  C   UNL     1       3.170  -2.071  -0.063  0.00  0.00    +0.145 C 
ATOM     14  C   UNL     1       1.659  -2.020  -0.039  0.00  0.00    -0.039 C 
ATOM     15  C   UNL     1       1.329  -0.708  -0.026  0.00  0.00    -0.001 A 
ATOM     16  C   UNL     1       0.039  -0.007  -0.002  0.00  0.00    +0.010 A 
ATOM     17  H   UNL     1       4.544  -0.378  -0.075  0.00  0.00    +0.160 HD
ENDBRANCH   1  14
BRANCH   4  18
ATOM     18  C   UNL     1      -0.473  -7.285  -0.034  0.00  0.00    -0.070 C 
BRANCH  18  19
ATOM     19  C   UNL     1      -0.059  -8.173   1.141  0.00  0.00    +0.077 C 
BRANCH  19  20
ATOM     20  C   UNL     1      -0.900  -9.424   1.147  0.00  0.00    +0.215 C 
ATOM     21  O   UNL     1      -1.747  -9.589   0.294  0.00  0.00    -0.276 OA
ATOM     22  N   UNL     1      -0.710 -10.359   2.099  0.00  0.00    -0.285 N 
ATOM     23  H   UNL     1       0.011 -10.259   2.740  0.00  0.00    +0.155 HD
BRANCH  22  24
ATOM     24  C   UNL     1      -1.555 -11.475   2.162  0.00  0.00    +0.037 A 
ATOM     25  C   UNL     1      -1.900 -12.015   3.394  0.00  0.00    +0.027 A 
ATOM     26  C   UNL     1      -2.733 -13.116   3.458  0.00  0.00    +0.051 A 
ATOM     27  C   UNL     1      -3.226 -13.683   2.294  0.00  0.00    +0.166 A 
ATOM     28  C   UNL     1      -2.881 -13.143   1.057  0.00  0.00    +0.168 A 
ATOM     29  C   UNL     1      -2.051 -12.037   0.994  0.00  0.00    +0.072 A 
ATOM     30  O   UNL     1      -3.488 -13.875   0.078  0.00  0.00    -0.453 OA
ATOM     31  C   UNL     1      -3.875 -15.112   0.705  0.00  0.00    +0.466 C 
ATOM     32  O   UNL     1      -4.049 -14.754   2.089  0.00  0.00    -0.453 OA
ENDBRANCH  22  24
ENDBRANCH  19  20
ENDBRANCH  18  19
ENDBRANCH   4  18
TORSDOF 5
