REMARK  Name = ZINC39431844
REMARK  12 active torsions:
REMARK  status: ('A' for Active; 'I' for Inactive)
REMARK    1  A    between atoms: C_1  and  C_2
REMARK    2  A    between atoms: C_2  and  O_3
REMARK    3  A    between atoms: O_3  and  C_4
REMARK    4  A    between atoms: C_4  and  C_6
REMARK    5  A    between atoms: C_8  and  C_35
REMARK    6  A    between atoms: C_12  and  C_16
REMARK    7  A    between atoms: C_16  and  C_18
REMARK    8  A    between atoms: C_16  and  S_19
REMARK    9  A    between atoms: S_19  and  C_20
REMARK   10  A    between atoms: N_30  and  C_31
REMARK   11  A    between atoms: C_31  and  C_32
REMARK   12  A    between atoms: C_31  and  C_33
REMARK                            x       y       z     vdW  Elec       q    Type
REMARK                         _______ _______ _______ _____ _____    ______ ____
ROOT
ATOM      1  C   UNL     1      -4.431  -7.883   2.870  0.00  0.00    +0.116 C 
ATOM      2  C   UNL     1      -3.188  -8.522   3.492  0.00  0.00    +0.027 C 
ENDROOT
BRANCH   1   8
ATOM      3  C   UNL     1      -2.881  -2.427   0.017  0.00  0.00    +0.188 C 
ATOM      4  C   UNL     1      -2.887  -3.794  -0.629  0.00  0.00    -0.034 C 
ATOM      5  C   UNL     1      -3.244  -4.841   0.130  0.00  0.00    +0.071 C 
ATOM      6  C   UNL     1      -3.603  -4.576   1.540  0.00  0.00    +0.112 C 
ATOM      7  N   UNL     1      -3.960  -5.558   2.332  0.00  0.00    -0.226 NA
ATOM      8  C   UNL     1      -4.012  -6.808   1.900  0.00  0.00    +0.137 C 
ATOM      9  N   UNL     1      -3.716  -7.161   0.672  0.00  0.00    -0.160 NA
ATOM     10  C   UNL     1      -3.332  -6.284  -0.261  0.00  0.00    +0.271 C 
ATOM     11  O   UNL     1      -3.065  -6.646  -1.394  0.00  0.00    -0.268 OA
ATOM     12  S   UNL     1      -3.416  -2.820   1.731  0.00  0.00    -0.086 S 
ATOM     13  C   UNL     1      -2.507  -3.974  -2.076  0.00  0.00    +0.041 C 
BRANCH   3  14
ATOM     14  C   UNL     1      -1.496  -1.832   0.006  0.00  0.00    +0.325 C 
ATOM     15  O   UNL     1      -0.528  -2.555  -0.007  0.00  0.00    -0.249 OA
BRANCH  14  16
ATOM     16  O   UNL     1      -1.339  -0.499   0.012  0.00  0.00    -0.464 OA
BRANCH  16  18
ATOM     17  C   UNL     1      -0.019   1.526   0.010  0.00  0.00    +0.048 C 
ATOM     18  C   UNL     1       0.002  -0.004   0.002  0.00  0.00    +0.229 C 
ENDBRANCH  16  18
ENDBRANCH  14  16
ENDBRANCH   3  14
ENDBRANCH   1   8
BRANCH   1  19
ATOM     19  S   UNL     1      -5.388  -9.150   1.992  0.00  0.00    -0.077 S 
BRANCH  19  20
ATOM     20  C   UNL     1      -5.924 -10.239   3.269  0.00  0.00    +0.173 A 
ATOM     21  N   UNL     1      -5.580  -9.971   4.504  0.00  0.00    -0.223 NA
ATOM     22  C   UNL     1      -5.955 -10.762   5.530  0.00  0.00    +0.079 A 
ATOM     23  C   UNL     1      -5.588 -10.476   6.848  0.00  0.00    +0.028 A 
ATOM     24  C   UNL     1      -5.991 -11.304   7.857  0.00  0.00    +0.002 A 
ATOM     25  C   UNL     1      -6.761 -12.430   7.593  0.00  0.00    +0.001 A 
ATOM     26  C   UNL     1      -7.135 -12.736   6.314  0.00  0.00    +0.015 A 
ATOM     27  C   UNL     1      -6.739 -11.908   5.265  0.00  0.00    +0.065 A 
ATOM     28  C   UNL     1      -7.112 -12.188   3.872  0.00  0.00    +0.263 A 
ATOM     29  O   UNL     1      -7.786 -13.159   3.581  0.00  0.00    -0.267 OA
ATOM     30  N   UNL     1      -6.684 -11.321   2.925  0.00  0.00    -0.285 N 
BRANCH  30  31
ATOM     31  C   UNL     1      -7.032 -11.549   1.520  0.00  0.00    +0.087 C 
ATOM     32  C   UNL     1      -6.480 -12.903   1.071  0.00  0.00    +0.031 C 
ATOM     33  C   UNL     1      -8.554 -11.540   1.364  0.00  0.00    +0.031 C 
ENDBRANCH  30  31
ENDBRANCH  19  20
ENDBRANCH   1  19
TORSDOF 7
