REMARK  Name = ZINC63374721
REMARK  9 active torsions:
REMARK  status: ('A' for Active; 'I' for Inactive)
REMARK    1  A    between atoms: C_1  and  C_2
REMARK    2  A    between atoms: C_2  and  O_3
REMARK    3  A    between atoms: O_3  and  C_4
REMARK    4  A    between atoms: C_5  and  C_12
REMARK    5  A    between atoms: C_9  and  O_10
REMARK    6  A    between atoms: O_10  and  C_11
REMARK    7  A    between atoms: N_19  and  C_34
REMARK    8  A    between atoms: C_22  and  C_33
REMARK    9  A    between atoms: C_34  and  C_35
REMARK                            x       y       z     vdW  Elec       q    Type
REMARK                         _______ _______ _______ _____ _____    ______ ____
ROOT
ATOM      1  C   UNL     1       2.980  -1.733  -0.135  0.00  0.00    +0.069 C 
ATOM      2  C   UNL     1       4.344  -1.950  -0.794  0.00  0.00    +0.121 C 
ATOM      3  N   UNL     1       5.464  -1.694   0.094  0.00  0.00    -0.283 N 
ATOM      4  C   UNL     1       6.704  -1.561  -0.487  0.00  0.00    +0.234 C 
ATOM      5  O   UNL     1       6.839  -1.517  -1.691  0.00  0.00    -0.274 OA
ATOM      6  C   UNL     1       7.891  -1.472   0.448  0.00  0.00    +0.204 C 
ATOM      7  N   UNL     1       7.728  -2.483   1.510  0.00  0.00    -0.284 N 
ATOM      8  C   UNL     1       6.497  -2.554   2.101  0.00  0.00    +0.242 C 
ATOM      9  O   UNL     1       6.257  -3.320   3.010  0.00  0.00    -0.273 OA
ATOM     10  C   UNL     1       5.460  -1.614   1.544  0.00  0.00    +0.135 C 
ATOM     11  C   UNL     1       4.132  -1.696   2.230  0.00  0.00    +0.139 C 
ATOM     12  C   UNL     1       3.102  -2.269   1.269  0.00  0.00    -0.027 C 
ATOM     13  C   UNL     1       2.472  -3.232   1.923  0.00  0.00    -0.000 A 
ATOM     14  C   UNL     1       1.321  -4.077   1.564  0.00  0.00    +0.010 A 
ATOM     15  C   UNL     1       0.944  -5.001   2.487  0.00  0.00    +0.001 A 
ATOM     16  C   UNL     1       1.587  -5.168   3.717  0.00  0.00    +0.002 A 
ATOM     17  C   UNL     1       2.646  -4.429   4.134  0.00  0.00    +0.026 A 
ATOM     18  C   UNL     1       3.130  -3.419   3.253  0.00  0.00    +0.043 A 
ATOM     19  N   UNL     1       4.099  -2.580   3.394  0.00  0.00    -0.375 N 
ATOM     20  C   UNL     1       5.979  -0.213   1.871  0.00  0.00    +0.044 C 
ATOM     21  H   UNL     1       4.699  -2.540   4.156  0.00  0.00    +0.160 HD
ENDROOT
BRANCH   1  23
ATOM     22  C   UNL     1       0.833  -1.811  -1.425  0.00  0.00    +0.166 A 
ATOM     23  C   UNL     1       1.915  -2.489  -0.887  0.00  0.00    +0.007 A 
ATOM     24  C   UNL     1       2.017  -3.859  -1.041  0.00  0.00    +0.008 A 
ATOM     25  C   UNL     1       1.043  -4.555  -1.731  0.00  0.00    +0.004 A 
ATOM     26  C   UNL     1      -0.039  -3.885  -2.271  0.00  0.00    +0.049 A 
ATOM     27  C   UNL     1      -0.152  -2.513  -2.115  0.00  0.00    +0.162 A 
BRANCH  27  28
ATOM     28  O   UNL     1      -1.218  -1.852  -2.639  0.00  0.00    -0.491 OA
ATOM     29  C   UNL     1      -2.189  -2.637  -3.334  0.00  0.00    +0.277 C 
ENDBRANCH  27  28
BRANCH  22  30
ATOM     30  O   UNL     1       0.730  -0.463  -1.274  0.00  0.00    -0.488 OA
BRANCH  30  32
ATOM     31  C   UNL     1       0.026   1.539  -0.118  0.00  0.00    +0.048 C 
ATOM     32  C   UNL     1       0.040   0.009  -0.115  0.00  0.00    +0.226 C 
ENDBRANCH  30  32
ENDBRANCH  22  30
ENDBRANCH   1  23
BRANCH   7  33
ATOM     33  C   UNL     1       8.828  -3.365   1.910  0.00  0.00    +0.182 C 
BRANCH  33  34
ATOM     34  C   UNL     1       9.616  -2.714   3.018  0.00  0.00    +0.122 A 
ATOM     35  C   UNL     1       9.382  -2.851   4.335  0.00  0.00    +0.046 A 
ATOM     36  C   UNL     1      10.353  -2.073   5.007  0.00  0.00    +0.041 A 
ATOM     37  C   UNL     1      11.121  -1.506   4.059  0.00  0.00    +0.195 A 
ATOM     38  O   UNL     1      10.674  -1.903   2.857  0.00  0.00    -0.466 OA
ENDBRANCH  33  34
ENDBRANCH   7  33
TORSDOF 6
