REMARK  Name = ZINC66701660
REMARK  8 active torsions:
REMARK  status: ('A' for Active; 'I' for Inactive)
REMARK    1  A    between atoms: C_1  and  C_2
REMARK    2  A    between atoms: C_2  and  N_3
REMARK    3  A    between atoms: C_9  and  C_11
REMARK    4  A    between atoms: C_11  and  C_12
REMARK    5  A    between atoms: N_20  and  C_21
REMARK    6  A    between atoms: N_25  and  C_27
REMARK    7  A    between atoms: C_27  and  C_28
REMARK    8  A    between atoms: C_27  and  C_29
REMARK                            x       y       z     vdW  Elec       q    Type
REMARK                         _______ _______ _______ _____ _____    ______ ____
ROOT
ATOM      1  C   UNL     1       0.742  -4.966   5.747  0.00  0.00    +0.001 C 
ATOM      2  C   UNL     1      -0.777  -4.901   5.926  0.00  0.00    +0.023 C 
ATOM      3  C   UNL     1      -1.163  -5.587   7.240  0.00  0.00    +0.109 C 
ATOM      4  N   UNL     1      -0.613  -6.949   7.241  0.00  0.00    -0.286 N 
ATOM      5  C   UNL     1       0.823  -7.132   6.989  0.00  0.00    +0.109 C 
ATOM      6  C   UNL     1       1.187  -6.429   5.677  0.00  0.00    +0.023 C 
ATOM      7  C   UNL     1      -1.410  -8.012   7.470  0.00  0.00    +0.302 C 
ATOM      8  O   UNL     1      -2.576  -7.843   7.769  0.00  0.00    -0.253 OA
ATOM      9  N   UNL     1      -0.914  -9.261   7.369  0.00  0.00    -0.298 N 
ATOM     10  H   UNL     1       0.032  -9.395   7.203  0.00  0.00    +0.150 HD
ENDROOT
BRANCH   9  11
ATOM     11  C   UNL     1      -1.805 -10.416   7.508  0.00  0.00    +0.056 C 
ATOM     12  C   UNL     1      -1.927 -10.823   8.994  0.00  0.00    +0.002 C 
ATOM     13  C   UNL     1      -1.935 -12.371   8.930  0.00  0.00    -0.077 C 
ATOM     14  N   UNL     1      -0.969 -12.671   7.843  0.00  0.00    +0.382 N 
ATOM     15  C   UNL     1      -1.202 -11.644   6.801  0.00  0.00    -0.056 C 
ATOM     16  H   UNL     1      -0.023 -12.607   8.190  0.00  0.00    -0.081 HD
BRANCH  14  17
ATOM     17  C   UNL     1      -1.220 -14.011   7.296  0.00  0.00    -0.075 C 
ATOM     18  C   UNL     1      -0.240 -14.289   6.155  0.00  0.00    -0.014 C 
ATOM     19  C   UNL     1      -1.029 -15.055   8.399  0.00  0.00    -0.014 C 
ENDBRANCH  14  17
ENDBRANCH   9  11
BRANCH   1  20
ATOM     20  C   UNL     1       1.134  -4.252   4.452  0.00  0.00    +0.099 C 
BRANCH  20  27
ATOM     21  N   UNL     1       0.706  -0.496   1.184  0.00  0.00    +0.382 N 
ATOM     22  C   UNL     1      -0.041  -0.113   2.389  0.00  0.00    -0.060 C 
ATOM     23  C   UNL     1       0.757  -0.518   3.633  0.00  0.00    +0.089 C 
ATOM     24  N   UNL     1       1.067  -1.953   3.542  0.00  0.00    -0.305 N 
ATOM     25  C   UNL     1       1.671  -2.453   2.297  0.00  0.00    +0.089 C 
ATOM     26  C   UNL     1       0.830  -1.957   1.116  0.00  0.00    -0.060 C 
ATOM     27  C   UNL     1       0.807  -2.785   4.569  0.00  0.00    +0.216 C 
ATOM     28  O   UNL     1       0.309  -2.354   5.588  0.00  0.00    -0.276 OA
ATOM     29  H   UNL     1       1.626  -0.082   1.216  0.00  0.00    -0.082 HD
BRANCH  21  31
ATOM     30  C   UNL     1      -0.026   1.520   0.001  0.00  0.00    -0.017 C 
ATOM     31  C   UNL     1      -0.005  -0.010  -0.006  0.00  0.00    -0.082 C 
ENDBRANCH  21  31
ENDBRANCH  20  27
ENDBRANCH   1  20
TORSDOF 5
