REMARK  Name = ZINC06973289
REMARK  8 active torsions:
REMARK  status: ('A' for Active; 'I' for Inactive)
REMARK    1  A    between atoms: C_1  and  C_2
REMARK    2  A    between atoms: C_3  and  C_28
REMARK    3  A    between atoms: N_4  and  C_22
REMARK    4  A    between atoms: C_5  and  S_7
REMARK    5  A    between atoms: S_7  and  C_8
REMARK    6  A    between atoms: C_8  and  C_9
REMARK    7  A    between atoms: N_11  and  C_12
REMARK    8  A    between atoms: C_14  and  N_19
REMARK                            x       y       z     vdW  Elec       q    Type
REMARK                         _______ _______ _______ _____ _____    ______ ____
ROOT
ATOM      1  S   UNL     1       0.087  -3.454   1.776  0.00  0.00    -0.080 S 
ENDROOT
BRANCH   1   6
ATOM      2  C   UNL     1       0.046   1.501   0.008  0.00  0.00    +0.065 C 
ATOM      3  C   UNL     1       0.059  -0.006   0.000  0.00  0.00    +0.034 A 
ATOM      4  C   UNL     1       0.068  -0.787  -1.093  0.00  0.00    +0.037 A 
ATOM      5  N   UNL     1       0.079  -2.092  -0.654  0.00  0.00    -0.321 N 
ATOM      6  C   UNL     1       0.076  -2.054   0.706  0.00  0.00    +0.148 A 
ATOM      7  N   UNL     1       0.069  -0.798   1.086  0.00  0.00    -0.338 N 
ATOM      8  C   UNL     1       0.066  -0.323  -2.527  0.00  0.00    +0.065 C 
ATOM      9  H   UNL     1       0.069  -0.489   2.005  0.00  0.00    +0.168 HD
BRANCH   5  10
ATOM     10  C   UNL     1       0.091  -3.293  -1.493  0.00  0.00    +0.089 C 
ATOM     11  C   UNL     1      -1.151  -4.136  -1.196  0.00  0.00    +0.025 C 
ATOM     12  C   UNL     1      -1.139  -5.390  -2.071  0.00  0.00    +0.002 C 
ATOM     13  C   UNL     1       0.118  -6.210  -1.770  0.00  0.00    +0.000 C 
ATOM     14  C   UNL     1       1.360  -5.368  -2.067  0.00  0.00    +0.002 C 
ATOM     15  C   UNL     1       1.347  -4.113  -1.192  0.00  0.00    +0.025 C 
ENDBRANCH   5  10
ENDBRANCH   1   6
BRANCH   1  16
ATOM     16  C   UNL     1       0.077  -2.735   3.441  0.00  0.00    +0.173 C 
BRANCH  16  17
ATOM     17  C   UNL     1       0.085  -3.839   4.466  0.00  0.00    +0.228 C 
ATOM     18  O   UNL     1       0.096  -4.998   4.109  0.00  0.00    -0.275 OA
ATOM     19  N   UNL     1       0.080  -3.539   5.780  0.00  0.00    -0.282 N 
ATOM     20  H   UNL     1       0.136  -2.614   6.066  0.00  0.00    +0.155 HD
BRANCH  19  21
ATOM     21  C   UNL     1      -0.007  -4.563   6.731  0.00  0.00    +0.071 A 
ATOM     22  C   UNL     1       0.601  -5.788   6.492  0.00  0.00    +0.059 A 
ATOM     23  C   UNL     1       0.514  -6.796   7.433  0.00  0.00    +0.128 A 
ATOM     24  C   UNL     1      -0.177  -6.587   8.613  0.00  0.00    +0.035 A 
ATOM     25  C   UNL     1      -0.784  -5.369   8.855  0.00  0.00    +0.042 A 
ATOM     26  C   UNL     1      -0.696  -4.353   7.920  0.00  0.00    +0.145 A 
ATOM     27  F   UNL     1      -1.284  -3.160   8.160  0.00  0.00    -0.204 F 
BRANCH  23  28
ATOM     28  N   UNL     1       1.161  -8.103   7.178  0.00  0.00    +0.056 N 
ATOM     29  O   UNL     1       1.765  -8.287   6.146  0.00  0.00    -0.126 OA
ATOM     30  O   UNL     1       1.086  -8.986   8.000  0.00  0.00    -0.126 OA
ENDBRANCH  23  28
ENDBRANCH  19  21
ENDBRANCH  16  17
ENDBRANCH   1  16
TORSDOF 6
