REMARK  Name = ZINC39453149
REMARK  4 active torsions:
REMARK  status: ('A' for Active; 'I' for Inactive)
REMARK    1  A    between atoms: C_1  and  S_2
REMARK    2  A    between atoms: S_2  and  C_3
REMARK    3  A    between atoms: C_14  and  C_20
REMARK    4  A    between atoms: C_20  and  C_21
REMARK                            x       y       z     vdW  Elec       q    Type
REMARK                         _______ _______ _______ _____ _____    ______ ____
ROOT
ATOM      1  C   UNL     1      -1.752  -0.467   0.016  0.00  0.00    +0.136 C 
ATOM      2  C   UNL     1      -1.998  -1.590  -0.997  0.00  0.00    +0.114 C 
ATOM      3  C   UNL     1      -1.330  -2.852  -0.516  0.00  0.00    +0.186 C 
ATOM      4  O   UNL     1      -0.926  -3.663  -1.325  0.00  0.00    -0.290 OA
ATOM      5  C   UNL     1      -1.169  -3.100   0.866  0.00  0.00    +0.144 A 
ATOM      6  C   UNL     1      -1.574  -2.152   1.785  0.00  0.00    +0.084 A 
ATOM      7  C   UNL     1      -1.412  -2.411   3.226  0.00  0.00    +0.100 A 
ATOM      8  C   UNL     1      -0.828  -3.644   3.620  0.00  0.00    +0.070 A 
ATOM      9  C   UNL     1      -0.650  -3.938   4.963  0.00  0.00    +0.025 A 
ATOM     10  C   UNL     1      -1.064  -2.980   5.902  0.00  0.00    +0.005 A 
ATOM     11  C   UNL     1      -0.921  -3.185   7.285  0.00  0.00    -0.034 A 
ATOM     12  C   UNL     1      -1.341  -2.222   8.150  0.00  0.00    +0.004 A 
ATOM     13  C   UNL     1      -1.909  -1.034   7.699  0.00  0.00    +0.002 A 
ATOM     14  C   UNL     1      -2.073  -0.776   6.373  0.00  0.00    +0.028 A 
ATOM     15  C   UNL     1      -1.660  -1.730   5.424  0.00  0.00    +0.072 A 
ATOM     16  N   UNL     1      -1.801  -1.517   4.116  0.00  0.00    -0.245 NA
ATOM     17  C   UNL     1      -0.418  -4.599   2.577  0.00  0.00    +0.289 A 
ATOM     18  O   UNL     1       0.085  -5.662   2.890  0.00  0.00    -0.265 OA
ATOM     19  N   UNL     1      -0.597  -4.298   1.279  0.00  0.00    -0.136 N 
ATOM     20  F   UNL     1      -0.223  -5.158   0.378  0.00  0.00    -0.090 F 
ATOM     21  N   UNL     1      -2.124  -0.960   1.351  0.00  0.00    -0.328 N 
ATOM     22  H   UNL     1      -2.740  -0.463   1.912  0.00  0.00    +0.147 HD
ENDROOT
BRANCH   1  24
ATOM     23  C   UNL     1      -0.022   1.810   0.012  0.00  0.00    +0.086 C 
ATOM     24  S   UNL     1       0.002  -0.004   0.002  0.00  0.00    -0.142 S 
ENDBRANCH   1  24
BRANCH  11  25
ATOM     25  C   UNL     1      -0.310  -4.461   7.804  0.00  0.00    +0.071 C 
BRANCH  25  26
ATOM     26  C   UNL     1       1.191  -4.330   7.818  0.00  0.00    -0.043 A 
ATOM     27  C   UNL     1       1.927  -4.696   6.706  0.00  0.00    +0.004 A 
ATOM     28  C   UNL     1       3.304  -4.575   6.719  0.00  0.00    +0.000 A 
ATOM     29  C   UNL     1       3.945  -4.089   7.843  0.00  0.00    +0.000 A 
ATOM     30  C   UNL     1       3.209  -3.722   8.954  0.00  0.00    +0.000 A 
ATOM     31  C   UNL     1       1.832  -3.838   8.940  0.00  0.00    +0.004 A 
ENDBRANCH  25  26
ENDBRANCH  11  25
TORSDOF 3
