REMARK  Name = ZINC14253118
REMARK  5 active torsions:
REMARK  status: ('A' for Active; 'I' for Inactive)
REMARK    1  A    between atoms: C_1  and  C_2
REMARK    2  A    between atoms: C_8  and  C_10
REMARK    3  A    between atoms: C_10  and  C_12
REMARK    4  A    between atoms: C_10  and  S_13
REMARK    5  A    between atoms: S_13  and  C_14
REMARK                            x       y       z     vdW  Elec       q    Type
REMARK                         _______ _______ _______ _____ _____    ______ ____
ROOT
ATOM      1  C   UNL     1       1.625   5.462   0.015  0.00  0.00    +0.136 C 
ATOM      2  C   UNL     1       1.920   5.894  -1.423  0.00  0.00    +0.029 C 
ENDROOT
BRANCH   1  10
ATOM      3  C   UNL     1      -1.194  -0.921   0.008  0.00  0.00    +0.089 C 
ATOM      4  C   UNL     1       0.002  -0.004   0.002  0.00  0.00    +0.136 A 
ATOM      5  C   UNL     1      -0.016   1.348   0.009  0.00  0.00    +0.091 A 
ATOM      6  C   UNL     1       1.357   1.710  -0.002  0.00  0.00    +0.168 A 
ATOM      7  N   UNL     1       2.029   0.589  -0.014  0.00  0.00    -0.063 NA
ATOM      8  O   UNL     1       1.292  -0.370  -0.012  0.00  0.00    -0.358 OA
ATOM      9  N   UNL     1       1.883   3.002  -0.000  0.00  0.00    -0.267 N 
ATOM     10  C   UNL     1       1.057   4.066   0.013  0.00  0.00    +0.231 C 
ATOM     11  O   UNL     1      -0.145   3.900   0.024  0.00  0.00    -0.274 OA
ATOM     12  H   UNL     1       2.844   3.134  -0.009  0.00  0.00    +0.156 HD
ENDBRANCH   1  10
BRANCH   1  13
ATOM     13  S   UNL     1       0.424   6.603   0.754  0.00  0.00    -0.084 S 
BRANCH  13  14
ATOM     14  C   UNL     1       1.282   8.140   0.819  0.00  0.00    +0.161 A 
ATOM     15  N   UNL     1       2.510   8.429   0.435  0.00  0.00    -0.133 NA
ATOM     16  N   UNL     1       2.986   9.713   0.573  0.00  0.00    -0.125 NA
ATOM     17  C   UNL     1       2.216  10.646   1.098  0.00  0.00    +0.180 A 
ATOM     18  S   UNL     1       0.723   9.724   1.429  0.00  0.00    -0.025 S 
ATOM     19  N   UNL     1       2.493  11.987   1.333  0.00  0.00    -0.336 N 
ATOM     20  H   UNL     1       1.819  12.559   1.731  0.00  0.00    +0.144 HD
ATOM     21  H   UNL     1       3.361  12.352   1.097  0.00  0.00    +0.144 HD
ENDBRANCH  13  14
ENDBRANCH   1  13
TORSDOF 3
