REMARK  Name = ZINC39835874
REMARK  7 active torsions:
REMARK  status: ('A' for Active; 'I' for Inactive)
REMARK    1  A    between atoms: C_1  and  C_2
REMARK    2  A    between atoms: C_7  and  O_8
REMARK    3  A    between atoms: O_8  and  C_9
REMARK    4  A    between atoms: C_10  and  C_20
REMARK    5  A    between atoms: N_24  and  C_28
REMARK    6  A    between atoms: C_28  and  C_30
REMARK    7  A    between atoms: C_28  and  C_31
REMARK                            x       y       z     vdW  Elec       q    Type
REMARK                         _______ _______ _______ _____ _____    ______ ____
ROOT
ATOM      1  C   UNL     1      -0.618  -1.154   4.152  0.00  0.00    +0.235 A 
ATOM      2  C   UNL     1      -1.066  -0.528   5.336  0.00  0.00    +0.103 A 
ATOM      3  C   UNL     1      -1.576  -1.343   6.376  0.00  0.00    +0.269 A 
ATOM      4  O   UNL     1      -1.973  -0.845   7.415  0.00  0.00    -0.266 OA
ATOM      5  N   UNL     1      -1.615  -2.681   6.196  0.00  0.00    -0.268 N 
ATOM      6  C   UNL     1      -2.105  -3.474   7.191  0.00  0.00    +0.096 A 
ATOM      7  C   UNL     1      -2.158  -4.817   7.042  0.00  0.00    +0.018 A 
ATOM      8  C   UNL     1      -1.707  -5.411   5.855  0.00  0.00    +0.005 A 
ATOM      9  C   UNL     1      -1.215  -4.626   4.855  0.00  0.00    +0.047 A 
ATOM     10  C   UNL     1      -1.169  -3.231   5.027  0.00  0.00    +0.144 A 
ATOM     11  N   UNL     1      -0.691  -2.470   4.041  0.00  0.00    -0.194 NA
ENDROOT
BRANCH   2  12
ATOM     12  C   UNL     1      -1.005   0.878   5.481  0.00  0.00    +0.039 C 
ATOM     13  C   UNL     1      -1.611   1.685   4.562  0.00  0.00    +0.077 C 
ATOM     14  C   UNL     1      -2.497   1.344   3.500  0.00  0.00    +0.259 C 
ATOM     15  O   UNL     1      -2.821   0.186   3.303  0.00  0.00    -0.269 OA
ATOM     16  N   UNL     1      -2.958   2.318   2.736  0.00  0.00    -0.248 N 
ATOM     17  C   UNL     1      -2.598   3.603   2.955  0.00  0.00    +0.121 C 
ATOM     18  S   UNL     1      -3.066   5.010   2.100  0.00  0.00    -0.027 S 
ATOM     19  S   UNL     1      -1.515   3.460   4.369  0.00  0.00    -0.061 S 
BRANCH  16  20
ATOM     20  C   UNL     1      -3.871   2.002   1.635  0.00  0.00    +0.110 C 
ATOM     21  C   UNL     1      -4.592   3.276   1.189  0.00  0.00    +0.033 C 
BRANCH  20  22
ATOM     22  C   UNL     1      -3.087   1.438   0.478  0.00  0.00    -0.027 A 
ATOM     23  C   UNL     1      -1.850   1.965   0.159  0.00  0.00    +0.005 A 
ATOM     24  C   UNL     1      -1.131   1.448  -0.902  0.00  0.00    +0.000 A 
ATOM     25  C   UNL     1      -1.648   0.402  -1.643  0.00  0.00    +0.000 A 
ATOM     26  C   UNL     1      -2.885  -0.127  -1.323  0.00  0.00    +0.000 A 
ATOM     27  C   UNL     1      -3.602   0.388  -0.259  0.00  0.00    +0.005 A 
ENDBRANCH  20  22
ENDBRANCH  16  20
ENDBRANCH   2  12
BRANCH   1  28
ATOM     28  O   UNL     1      -0.124  -0.412   3.135  0.00  0.00    -0.437 OA
BRANCH  28  35
ATOM     29  C   UNL     1       2.572  -1.229   3.339  0.00  0.00    +0.047 C 
ATOM     30  C   UNL     1       1.734  -1.490   2.114  0.00  0.00    -0.008 A 
ATOM     31  C   UNL     1       2.278  -2.158   1.033  0.00  0.00    +0.007 A 
ATOM     32  C   UNL     1       1.510  -2.398  -0.091  0.00  0.00    +0.000 A 
ATOM     33  C   UNL     1       0.196  -1.970  -0.137  0.00  0.00    +0.004 A 
ATOM     34  C   UNL     1      -0.353  -1.302   0.940  0.00  0.00    +0.046 A 
ATOM     35  C   UNL     1       0.414  -1.065   2.072  0.00  0.00    +0.133 A 
ENDBRANCH  28  35
ENDBRANCH   1  28
TORSDOF 5
