REMARK  Name = ZINC16837238
REMARK  12 active torsions:
REMARK  status: ('A' for Active; 'I' for Inactive)
REMARK    1  A    between atoms: C_1  and  C_2
REMARK    2  A    between atoms: C_2  and  O_3
REMARK    3  A    between atoms: O_3  and  C_4
REMARK    4  A    between atoms: C_4  and  C_6
REMARK    5  A    between atoms: C_7  and  C_34
REMARK    6  A    between atoms: N_8  and  C_33
REMARK    7  A    between atoms: N_10  and  C_11
REMARK    8  A    between atoms: C_11  and  C_13
REMARK    9  A    between atoms: C_16  and  S_19
REMARK   10  A    between atoms: S_19  and  N_22
REMARK   11  A    between atoms: C_24  and  C_31
REMARK   12  A    between atoms: C_27  and  C_30
REMARK                            x       y       z     vdW  Elec       q    Type
REMARK                         _______ _______ _______ _____ _____    ______ ____
ROOT
ATOM      1  C   UNL     1       4.444  -1.688  -7.807  0.00  0.00    +0.039 A 
ATOM      2  C   UNL     1       4.782  -2.902  -8.406  0.00  0.00    +0.015 A 
ATOM      3  C   UNL     1       5.461  -2.910  -9.607  0.00  0.00    +0.029 A 
ATOM      4  C   UNL     1       5.807  -1.718 -10.217  0.00  0.00    +0.106 A 
ATOM      5  C   UNL     1       5.476  -0.511  -9.628  0.00  0.00    +0.029 A 
ATOM      6  C   UNL     1       4.791  -0.490  -8.430  0.00  0.00    +0.015 A 
ENDROOT
BRANCH   4   7
ATOM      7  S   UNL     1       6.675  -1.737 -11.750  0.00  0.00    +0.061 S 
ATOM      8  O   UNL     1       7.362  -0.496 -11.844  0.00  0.00    -0.153 OA
ATOM      9  O   UNL     1       7.347  -2.987 -11.821  0.00  0.00    -0.153 OA
BRANCH   7  10
ATOM     10  N   UNL     1       5.539  -1.741 -12.955  0.00  0.00    -0.176 NA
ATOM     11  C   UNL     1       5.014  -3.007 -13.485  0.00  0.00    +0.112 C 
ATOM     12  C   UNL     1       3.485  -2.977 -13.406  0.00  0.00    +0.002 C 
ATOM     13  C   UNL     1       2.965  -1.731 -14.126  0.00  0.00    +0.009 C 
ATOM     14  C   UNL     1       3.508  -0.477 -13.437  0.00  0.00    +0.002 C 
ATOM     15  C   UNL     1       5.034  -0.478 -13.511  0.00  0.00    +0.112 C 
ATOM     16  C   UNL     1       2.961   0.768 -14.137  0.00  0.00    +0.009 C 
ATOM     17  C   UNL     1       2.914  -4.229 -14.075  0.00  0.00    +0.009 C 
ENDBRANCH   7  10
ENDBRANCH   4   7
BRANCH   1  18
ATOM     18  C   UNL     1       3.714  -1.673  -6.518  0.00  0.00    +0.269 C 
ATOM     19  O   UNL     1       3.415  -0.611  -6.000  0.00  0.00    -0.268 OA
BRANCH  18  24
ATOM     20  C   UNL     1       1.449  -2.345  -2.517  0.00  0.00    +0.118 A 
ATOM     21  C   UNL     1       1.654  -3.643  -2.866  0.00  0.00    +0.038 A 
ATOM     22  N   UNL     1       2.308  -3.870  -4.019  0.00  0.00    -0.328 N 
ATOM     23  C   UNL     1       2.727  -2.808  -4.767  0.00  0.00    +0.166 A 
ATOM     24  N   UNL     1       3.382  -2.822  -5.924  0.00  0.00    -0.152 NA
ATOM     25  S   UNL     1       2.208  -1.478  -3.878  0.00  0.00    -0.045 S 
ATOM     26  C   UNL     1       2.569  -5.240  -4.466  0.00  0.00    +0.151 C 
ATOM     27  C   UNL     1       1.169  -4.777  -2.000  0.00  0.00    +0.065 C 
BRANCH  20  28
ATOM     28  C   UNL     1       0.776  -1.800  -1.335  0.00  0.00    +0.348 C 
ATOM     29  O   UNL     1       0.312  -2.552  -0.499  0.00  0.00    -0.244 OA
BRANCH  28  30
ATOM     30  O   UNL     1       0.671  -0.465  -1.174  0.00  0.00    -0.461 OA
BRANCH  30  32
ATOM     31  C   UNL     1      -0.019   1.526   0.010  0.00  0.00    +0.048 C 
ATOM     32  C   UNL     1       0.002  -0.004   0.002  0.00  0.00    +0.229 C 
ENDBRANCH  30  32
ENDBRANCH  28  30
ENDBRANCH  20  28
ENDBRANCH  18  24
ENDBRANCH   1  18
TORSDOF 7
