REMARK  Name = ZINC02893092
REMARK  3 active torsions:
REMARK  status: ('A' for Active; 'I' for Inactive)
REMARK    1  A    between atoms: C_4  and  C_7
REMARK    2  A    between atoms: C_7  and  N_17
REMARK    3  A    between atoms: N_17  and  C_18
REMARK                            x       y       z     vdW  Elec       q    Type
REMARK                         _______ _______ _______ _____ _____    ______ ____
ROOT
ATOM      1  C   UNL     1      -1.316   6.832   0.130  0.00  0.00    +0.233 C 
ATOM      2  C   UNL     1      -2.058   6.674   1.433  0.00  0.00    +0.033 A 
ATOM      3  C   UNL     1      -2.675   5.608   2.045  0.00  0.00    +0.010 A 
ATOM      4  C   UNL     1      -3.290   5.778   3.274  0.00  0.00    +0.000 A 
ATOM      5  C   UNL     1      -3.285   7.017   3.890  0.00  0.00    +0.001 A 
ATOM      6  C   UNL     1      -2.669   8.093   3.285  0.00  0.00    +0.015 A 
ATOM      7  C   UNL     1      -2.048   7.930   2.046  0.00  0.00    +0.068 A 
ATOM      8  C   UNL     1      -1.322   8.862   1.164  0.00  0.00    +0.342 C 
ATOM      9  O   UNL     1      -1.132  10.038   1.402  0.00  0.00    -0.245 OA
ATOM     10  O   UNL     1      -0.902   8.224   0.059  0.00  0.00    -0.428 OA
ENDROOT
BRANCH   1  14
ATOM     11  C   UNL     1      -3.890   5.901  -3.149  0.00  0.00    +0.000 A 
ATOM     12  C   UNL     1      -3.109   4.912  -2.582  0.00  0.00    +0.000 A 
ATOM     13  C   UNL     1      -2.275   5.213  -1.521  0.00  0.00    +0.009 A 
ATOM     14  C   UNL     1      -2.224   6.503  -1.027  0.00  0.00    +0.019 A 
ATOM     15  C   UNL     1      -3.010   7.491  -1.591  0.00  0.00    +0.009 A 
ATOM     16  C   UNL     1      -3.839   7.191  -2.656  0.00  0.00    +0.000 A 
ENDBRANCH   1  14
BRANCH   1  17
ATOM     17  N   UNL     1      -0.141   5.957   0.111  0.00  0.00    -0.299 N 
ATOM     18  H   UNL     1      -0.045   5.259   0.778  0.00  0.00    +0.150 HD
BRANCH  17  19
ATOM     19  C   UNL     1       0.841   6.126  -0.869  0.00  0.00    +0.030 A 
ATOM     20  C   UNL     1       2.018   5.391  -0.808  0.00  0.00    +0.024 A 
ATOM     21  C   UNL     1       2.987   5.561  -1.778  0.00  0.00    +0.017 A 
ATOM     22  C   UNL     1       2.786   6.462  -2.808  0.00  0.00    +0.018 A 
ATOM     23  C   UNL     1       1.617   7.200  -2.868  0.00  0.00    +0.017 A 
ATOM     24  C   UNL     1       0.642   7.030  -1.904  0.00  0.00    +0.024 A 
ATOM     25 BR   UNL     1       4.115   6.691  -4.134  0.00  0.00    -0.050 Br
ENDBRANCH  17  19
ENDBRANCH   1  17
TORSDOF 3
