REMARK  Name = ZINC00919411
REMARK  7 active torsions:
REMARK  status: ('A' for Active; 'I' for Inactive)
REMARK    1  A    between atoms: C_1  and  C_2
REMARK    2  A    between atoms: C_2  and  O_3
REMARK    3  A    between atoms: O_3  and  C_4
REMARK    4  A    between atoms: C_9  and  N_10
REMARK    5  A    between atoms: C_11  and  C_13
REMARK    6  A    between atoms: C_18  and  C_29
REMARK    7  A    between atoms: C_21  and  C_24
REMARK                            x       y       z     vdW  Elec       q    Type
REMARK                         _______ _______ _______ _____ _____    ______ ____
ROOT
ATOM      1  C   UNL     1       3.317  -1.054  -5.413  0.00  0.00    +0.149 A 
ATOM      2  C   UNL     1       4.080  -1.440  -6.539  0.00  0.00    +0.078 A 
ATOM      3  C   UNL     1       4.504  -0.316  -7.148  0.00  0.00    +0.119 A 
ATOM      4  N   UNL     1       4.034   0.754  -6.441  0.00  0.00    -0.238 N 
ATOM      5  N   UNL     1       3.291   0.266  -5.367  0.00  0.00    -0.164 NA
ATOM      6  C   UNL     1       4.300   2.149  -6.805  0.00  0.00    +0.215 C 
ATOM      7  C   UNL     1       5.517   2.196  -7.736  0.00  0.00    +0.066 C 
ATOM      8  C   UNL     1       5.340   1.187  -8.876  0.00  0.00    +0.140 C 
ATOM      9  N   UNL     1       5.284  -0.170  -8.298  0.00  0.00    -0.319 N 
ATOM     10  H   UNL     1       5.761  -0.917  -8.694  0.00  0.00    +0.148 HD
ENDROOT
BRANCH   8  11
ATOM     11  C   UNL     1       6.505   1.289  -9.827  0.00  0.00    +0.125 A 
ATOM     12  C   UNL     1       6.509   1.949 -10.999  0.00  0.00    +0.046 A 
ATOM     13  C   UNL     1       7.797   1.784 -11.558  0.00  0.00    +0.041 A 
ATOM     14  C   UNL     1       8.503   1.033 -10.694  0.00  0.00    +0.195 A 
ATOM     15  O   UNL     1       7.718   0.741  -9.645  0.00  0.00    -0.466 OA
ENDBRANCH   8  11
BRANCH   1  17
ATOM     16  N   UNL     1       1.953  -1.468  -3.424  0.00  0.00    -0.277 N 
ATOM     17  C   UNL     1       2.659  -1.968  -4.457  0.00  0.00    +0.268 C 
ATOM     18  O   UNL     1       2.753  -3.171  -4.603  0.00  0.00    -0.268 OA
ATOM     19  H   UNL     1       1.810  -0.511  -3.352  0.00  0.00    +0.155 HD
BRANCH  16  25
ATOM     20  C   UNL     1       0.317  -1.943  -1.704  0.00  0.00    +0.142 A 
ATOM     21  C   UNL     1      -0.203  -2.801  -0.749  0.00  0.00    +0.047 A 
ATOM     22  C   UNL     1       0.382  -4.036  -0.537  0.00  0.00    +0.004 A 
ATOM     23  C   UNL     1       1.486  -4.418  -1.277  0.00  0.00    +0.002 A 
ATOM     24  C   UNL     1       2.011  -3.568  -2.232  0.00  0.00    +0.027 A 
ATOM     25  C   UNL     1       1.426  -2.329  -2.453  0.00  0.00    +0.076 A 
BRANCH  20  26
ATOM     26  O   UNL     1      -0.257  -0.728  -1.913  0.00  0.00    -0.490 OA
BRANCH  26  28
ATOM     27  C   UNL     1      -1.895   0.996  -1.483  0.00  0.00    +0.048 C 
ATOM     28  C   UNL     1      -1.390  -0.398  -1.107  0.00  0.00    +0.226 C 
ENDBRANCH  26  28
ENDBRANCH  20  26
ENDBRANCH  16  25
ENDBRANCH   1  17
BRANCH   6  29
ATOM     29  C   UNL     1       4.587   2.962  -5.541  0.00  0.00    +0.412 C 
ATOM     30  F   UNL     1       5.705   2.431  -4.888  0.00  0.00    -0.168 F 
ATOM     31  F   UNL     1       4.841   4.293  -5.891  0.00  0.00    -0.168 F 
ATOM     32  F   UNL     1       3.479   2.907  -4.689  0.00  0.00    -0.168 F 
ENDBRANCH   6  29
TORSDOF 6
