REMARK  Name = ZINC38556158
REMARK  5 active torsions:
REMARK  status: ('A' for Active; 'I' for Inactive)
REMARK    1  A    between atoms: C_4  and  C_7
REMARK    2  A    between atoms: C_9  and  C_13
REMARK    3  A    between atoms: C_17  and  S_27
REMARK    4  A    between atoms: N_19  and  N_20
REMARK    5  A    between atoms: C_21  and  C_22
REMARK                            x       y       z     vdW  Elec       q    Type
REMARK                         _______ _______ _______ _____ _____    ______ ____
ROOT
ATOM      1  C   UNL     1       5.813  -2.804  -1.218  0.00  0.00    +0.206 C 
ATOM      2  N   UNL     1       5.574  -2.023  -2.453  0.00  0.00    -0.231 NA
ATOM      3  N   UNL     1       6.570  -2.534  -3.407  0.00  0.00    -0.225 NA
ATOM      4  C   UNL     1       7.763  -2.767  -2.552  0.00  0.00    +0.231 C 
ATOM      5  N   UNL     1       7.207  -3.278  -1.282  0.00  0.00    -0.207 N 
ATOM      6  H   UNL     1       5.705  -1.036  -2.287  0.00  0.00    +0.143 HD
ATOM      7  H   UNL     1       6.767  -1.853  -4.125  0.00  0.00    +0.143 HD
ENDROOT
BRANCH   1  10
ATOM      8  C   UNL     1       4.196  -0.160   0.054  0.00  0.00    +0.091 C 
ATOM      9  C   UNL     1       4.163  -1.503   0.150  0.00  0.00    +0.034 C 
ATOM     10  C   UNL     1       5.618  -1.914   0.012  0.00  0.00    +0.190 C 
ATOM     11  N   UNL     1       6.315  -0.628  -0.157  0.00  0.00    -0.176 NA
ATOM     12  N   UNL     1       5.471   0.271  -0.128  0.00  0.00    -0.154 NA
BRANCH   8  16
ATOM     13  C   UNL     1       0.787   2.373   0.270  0.00  0.00    +0.000 A 
ATOM     14  C   UNL     1       2.043   2.922   0.082  0.00  0.00    +0.001 A 
ATOM     15  C   UNL     1       3.152   2.104   0.012  0.00  0.00    +0.010 A 
ATOM     16  C   UNL     1       3.006   0.724   0.130  0.00  0.00    +0.002 A 
ATOM     17  C   UNL     1       1.739   0.176   0.319  0.00  0.00    +0.010 A 
ATOM     18  C   UNL     1       0.636   1.003   0.388  0.00  0.00    +0.001 A 
ENDBRANCH   8  16
ENDBRANCH   1  10
BRANCH   5  19
ATOM     19  N   UNL     1       7.872  -4.058  -0.327  0.00  0.00    -0.185 NA
ATOM     20  C   UNL     1       7.222  -4.525   0.698  0.00  0.00    +0.176 C 
BRANCH  20  21
ATOM     21  C   UNL     1       7.940  -5.246   1.755  0.00  0.00    +0.147 A 
ATOM     22  C   UNL     1       7.383  -5.790   2.875  0.00  0.00    +0.051 A 
ATOM     23  C   UNL     1       8.432  -6.380   3.604  0.00  0.00    +0.042 A 
ATOM     24  C   UNL     1       9.566  -6.172   2.906  0.00  0.00    +0.196 A 
ATOM     25  O   UNL     1       9.265  -5.491   1.787  0.00  0.00    -0.462 OA
ENDBRANCH  20  21
ENDBRANCH   5  19
BRANCH   4  26
ATOM     26  S   UNL     1       8.857  -4.000  -3.310  0.00  0.00    -0.138 S 
ATOM     27  H   UNL     1       9.217  -3.441  -4.479  0.00  0.00    +0.105 HD
ENDBRANCH   4  26
TORSDOF 5
