REMARK  Name = ZINC19791502
REMARK  8 active torsions:
REMARK  status: ('A' for Active; 'I' for Inactive)
REMARK    1  A    between atoms: C_1  and  C_2
REMARK    2  A    between atoms: C_6  and  C_8
REMARK    3  A    between atoms: C_13  and  C_14
REMARK    4  A    between atoms: C_17  and  O_20
REMARK    5  A    between atoms: O_20  and  C_21
REMARK    6  A    between atoms: N_22  and  C_24
REMARK    7  A    between atoms: C_24  and  C_26
REMARK    8  A    between atoms: C_24  and  C_27
REMARK                            x       y       z     vdW  Elec       q    Type
REMARK                         _______ _______ _______ _____ _____    ______ ____
ROOT
ATOM      1  C   UNL     1       5.610  -2.021  -0.062  0.00  0.00    +0.070 C 
ATOM      2  C   UNL     1       5.513  -0.517  -0.053  0.00  0.00    +0.087 A 
ATOM      3  C   UNL     1       4.324   0.223  -0.038  0.00  0.00    +0.131 A 
ATOM      4  C   UNL     1       4.670   1.570  -0.033  0.00  0.00    +0.157 A 
ATOM      5  N   UNL     1       3.532   2.283  -0.018  0.00  0.00    -0.323 N 
ATOM      6  C   UNL     1       2.498   1.472  -0.014  0.00  0.00    +0.144 A 
ATOM      7  N   UNL     1       2.938   0.178  -0.020  0.00  0.00    -0.224 NA
ATOM      8  N   UNL     1       6.039   1.625  -0.045  0.00  0.00    -0.243 N 
ATOM      9  N   UNL     1       6.523   0.311  -0.057  0.00  0.00    -0.172 NA
ATOM     10  H   UNL     1       3.572   3.382  -0.012  0.00  0.00    +0.169 HD
ENDROOT
BRANCH   6  11
ATOM     11  C   UNL     1       1.083   1.894   0.002  0.00  0.00    +0.062 A 
ATOM     12  C   UNL     1      -0.013   1.076   0.008  0.00  0.00    +0.117 A 
ATOM     13  N   UNL     1      -1.112   1.851   0.017  0.00  0.00    -0.283 N 
ATOM     14  H   UNL     1      -2.111   1.389   0.016  0.00  0.00    +0.188 HD
ATOM     15  N   UNL     1      -0.734   3.197   0.026  0.00  0.00    -0.173 NA
ATOM     16  C   UNL     1       0.579   3.269   0.014  0.00  0.00    +0.103 A 
BRANCH  16  17
ATOM     17  C   UNL     1       1.395   4.507   0.014  0.00  0.00    +0.003 A 
ATOM     18  C   UNL     1       2.608   4.544   0.700  0.00  0.00    +0.013 A 
ATOM     19  C   UNL     1       3.367   5.695   0.693  0.00  0.00    +0.046 A 
ATOM     20  C   UNL     1       2.920   6.820   0.013  0.00  0.00    +0.120 A 
ATOM     21  C   UNL     1       1.709   6.787  -0.667  0.00  0.00    +0.046 A 
ATOM     22  C   UNL     1       0.948   5.638  -0.668  0.00  0.00    +0.013 A 
BRANCH  20  23
ATOM     23  O   UNL     1       3.667   7.954   0.013  0.00  0.00    -0.495 OA
ATOM     24  C   UNL     1       4.902   7.918   0.732  0.00  0.00    +0.277 C 
ENDBRANCH  20  23
ENDBRANCH  16  17
ENDBRANCH   6  11
BRANCH   8  25
ATOM     25  C   UNL     1       6.852   2.844  -0.045  0.00  0.00    +0.109 C 
ATOM     26  C   UNL     1       7.723   2.876  -1.302  0.00  0.00    +0.033 C 
BRANCH  25  27
ATOM     27  C   UNL     1       7.746   2.860   1.197  0.00  0.00    +0.013 C 
ATOM     28  C   UNL     1       7.444   3.905   2.272  0.00  0.00    +0.006 C 
ATOM     29  C   UNL     1       8.678   4.059   1.381  0.00  0.00    +0.006 C 
ENDBRANCH  25  27
ENDBRANCH   8  25
TORSDOF 5
