REMARK  Name = ZINC20894395
REMARK  9 active torsions:
REMARK  status: ('A' for Active; 'I' for Inactive)
REMARK    1  A    between atoms: C_1  and  C_2
REMARK    2  A    between atoms: C_2  and  N_3
REMARK    3  A    between atoms: C_7  and  C_9
REMARK    4  A    between atoms: C_9  and  C_11
REMARK    5  A    between atoms: C_9  and  S_12
REMARK    6  A    between atoms: S_12  and  C_13
REMARK    7  A    between atoms: C_16  and  C_25
REMARK    8  A    between atoms: N_17  and  C_18
REMARK    9  A    between atoms: C_18  and  C_19
REMARK                            x       y       z     vdW  Elec       q    Type
REMARK                         _______ _______ _______ _____ _____    ______ ____
ROOT
ATOM      1  C   UNL     1      -1.900   1.549  -8.554  0.00  0.00    +0.193 A 
ATOM      2  N   UNL     1      -2.702   2.582  -8.422  0.00  0.00    -0.122 NA
ATOM      3  N   UNL     1      -3.366   2.766  -9.507  0.00  0.00    -0.128 NA
ATOM      4  C   UNL     1      -3.035   1.858 -10.395  0.00  0.00    +0.165 A 
ATOM      5  N   UNL     1      -2.086   1.050  -9.811  0.00  0.00    -0.300 N 
ENDROOT
BRANCH   4   6
ATOM      6  C   UNL     1      -3.580   1.726 -11.763  0.00  0.00    +0.019 A 
ATOM      7  C   UNL     1      -4.219   2.809 -12.369  0.00  0.00    +0.013 A 
ATOM      8  C   UNL     1      -4.720   2.683 -13.648  0.00  0.00    +0.021 A 
ATOM      9  C   UNL     1      -4.601   1.481 -14.326  0.00  0.00    +0.041 A 
ATOM     10  C   UNL     1      -3.973   0.402 -13.727  0.00  0.00    +0.021 A 
ATOM     11  C   UNL     1      -3.463   0.518 -12.450  0.00  0.00    +0.013 A 
ATOM     12 CL   UNL     1      -5.241   1.327 -15.932  0.00  0.00    -0.084 Cl
ENDBRANCH   4   6
BRANCH   1  13
ATOM     13  S   UNL     1      -0.796   0.921  -7.333  0.00  0.00    -0.074 S 
BRANCH  13  14
ATOM     14  C   UNL     1      -1.120   2.086  -5.987  0.00  0.00    +0.137 C 
ATOM     15  C   UNL     1      -0.674   3.488  -6.407  0.00  0.00    +0.029 C 
BRANCH  14  20
ATOM     16  N   UNL     1      -0.533   2.011  -1.216  0.00  0.00    -0.299 N 
ATOM     17  C   UNL     1      -0.101   1.647  -2.439  0.00  0.00    +0.306 C 
ATOM     18  O   UNL     1       0.906   0.977  -2.553  0.00  0.00    -0.252 OA
ATOM     19  N   UNL     1      -0.786   2.026  -3.536  0.00  0.00    -0.239 N 
ATOM     20  C   UNL     1      -0.354   1.662  -4.760  0.00  0.00    +0.233 C 
ATOM     21  O   UNL     1       0.651   0.994  -4.874  0.00  0.00    -0.274 OA
ATOM     22  H   UNL     1      -1.445   2.618  -1.112  0.00  0.00    +0.150 HD
ATOM     23  H   UNL     1      -1.698   2.633  -3.433  0.00  0.00    +0.159 HD
BRANCH  16  25
ATOM     24  C   UNL     1      -0.487   2.140   1.226  0.00  0.00    +0.024 C 
ATOM     25  C   UNL     1       0.211   1.599  -0.023  0.00  0.00    +0.102 C 
ENDBRANCH  16  25
ENDBRANCH  14  20
ENDBRANCH  13  14
ENDBRANCH   1  13
BRANCH   5  26
ATOM     26  C   UNL     1      -1.415  -0.105 -10.414  0.00  0.00    +0.157 C 
BRANCH  26  27
ATOM     27  C   UNL     1      -2.196  -1.378 -10.082  0.00  0.00    +0.138 C 
ATOM     28  C   UNL     1      -1.533  -2.606 -10.756  0.00  0.00    +0.035 C 
ATOM     29  C   UNL     1      -2.018  -3.751  -9.825  0.00  0.00    +0.031 C 
ATOM     30  C   UNL     1      -2.054  -3.058  -8.446  0.00  0.00    +0.160 C 
ATOM     31  O   UNL     1      -2.136  -1.646  -8.672  0.00  0.00    -0.375 OA
ENDBRANCH  26  27
ENDBRANCH   5  26
TORSDOF 7
