REMARK  Name = ZINC15873464
REMARK  6 active torsions:
REMARK  status: ('A' for Active; 'I' for Inactive)
REMARK    1  A    between atoms: C_4  and  C_7
REMARK    2  A    between atoms: C_7  and  N_8
REMARK    3  A    between atoms: N_8  and  C_9
REMARK    4  A    between atoms: C_9  and  N_11
REMARK    5  A    between atoms: N_11  and  N_12
REMARK    6  A    between atoms: C_13  and  C_15
REMARK                            x       y       z     vdW  Elec       q    Type
REMARK                         _______ _______ _______ _____ _____    ______ ____
ROOT
ATOM      1  N   UNL     1       4.933  -1.387   3.909  0.00  0.00    -0.231 N 
ATOM      2  C   UNL     1       5.338  -1.613   5.175  0.00  0.00    +0.260 C 
ATOM      3  O   UNL     1       6.384  -2.197   5.383  0.00  0.00    -0.269 OA
ATOM      4  H   UNL     1       4.099  -0.921   3.743  0.00  0.00    +0.173 HD
ENDROOT
BRANCH   2   5
ATOM      5  C   UNL     1       4.513  -1.150   6.308  0.00  0.00    +0.039 A 
ATOM      6  C   UNL     1       3.304  -0.481   6.067  0.00  0.00    +0.015 A 
ATOM      7  C   UNL     1       2.531  -0.048   7.103  0.00  0.00    +0.027 A 
ATOM      8  C   UNL     1       2.934  -0.265   8.419  0.00  0.00    +0.047 A 
ATOM      9  C   UNL     1       4.148  -0.936   8.676  0.00  0.00    +0.004 A 
ATOM     10  C   UNL     1       4.932  -1.383   7.614  0.00  0.00    +0.023 A 
ATOM     11  C   UNL     1       4.270  -0.997  10.129  0.00  0.00    -0.019 A 
ATOM     12  C   UNL     1       3.185  -0.392  10.648  0.00  0.00    +0.020 A 
ATOM     13  N   UNL     1       2.379   0.050   9.637  0.00  0.00    -0.358 N 
ATOM     14  H   UNL     1       1.538   0.517   9.761  0.00  0.00    +0.166 HD
ATOM     15  C   UNL     1       2.936  -0.248  12.132  0.00  0.00    +0.053 C 
ATOM     16  C   UNL     1       3.846  -1.232  12.877  0.00  0.00    +0.006 C 
ATOM     17  C   UNL     1       5.285  -1.076  12.376  0.00  0.00    +0.005 C 
ATOM     18  C   UNL     1       5.383  -1.607  10.941  0.00  0.00    +0.037 C 
ENDBRANCH   2   5
BRANCH   1  19
ATOM     19  N   UNL     1       5.716  -1.826   2.834  0.00  0.00    -0.246 N 
ATOM     20  H   UNL     1       6.550  -2.292   3.000  0.00  0.00    +0.172 HD
BRANCH  19  21
ATOM     21  C   UNL     1       5.311  -1.601   1.569  0.00  0.00    +0.147 C 
ATOM     22  S   UNL     1       6.268  -2.137   0.255  0.00  0.00    -0.017 S 
BRANCH  21  23
ATOM     23  N   UNL     1       4.152  -0.952   1.338  0.00  0.00    -0.321 N 
ATOM     24  H   UNL     1       3.610  -0.648   2.082  0.00  0.00    +0.148 HD
BRANCH  23  25
ATOM     25  C   UNL     1       3.711  -0.707  -0.038  0.00  0.00    +0.138 C 
BRANCH  25  29
ATOM     26  C   UNL     1      -0.017   1.378   0.010  0.00  0.00    +0.000 A 
ATOM     27  C   UNL     1       1.171   2.086   0.002  0.00  0.00    +0.000 A 
ATOM     28  C   UNL     1       2.377   1.411  -0.013  0.00  0.00    +0.005 A 
ATOM     29  C   UNL     1       2.396   0.029  -0.020  0.00  0.00    -0.030 A 
ATOM     30  C   UNL     1       1.208  -0.679  -0.012  0.00  0.00    +0.005 A 
ATOM     31  C   UNL     1       0.002  -0.004   0.002  0.00  0.00    +0.000 A 
ENDBRANCH  25  29
ENDBRANCH  23  25
ENDBRANCH  21  23
ENDBRANCH  19  21
ENDBRANCH   1  19
TORSDOF 6
