REMARK  Name = ZINC63385312
REMARK  11 active torsions:
REMARK  status: ('A' for Active; 'I' for Inactive)
REMARK    1  A    between atoms: C_1  and  C_2
REMARK    2  A    between atoms: C_7  and  O_34
REMARK    3  A    between atoms: C_8  and  O_32
REMARK    4  A    between atoms: C_13  and  C_15
REMARK    5  A    between atoms: C_15  and  C_16
REMARK    6  A    between atoms: N_18  and  C_19
REMARK    7  A    between atoms: C_19  and  C_21
REMARK    8  A    between atoms: C_19  and  C_22
REMARK    9  A    between atoms: C_22  and  C_23
REMARK   10  A    between atoms: O_32  and  C_33
REMARK   11  A    between atoms: O_34  and  C_35
REMARK                            x       y       z     vdW  Elec       q    Type
REMARK                         _______ _______ _______ _____ _____    ______ ____
ROOT
ATOM      1  C   UNL     1       1.114  -1.984   1.061  0.00  0.00    +0.111 C 
ENDROOT
BRANCH   1  13
ATOM      2  C   UNL     1      -0.019   1.526   0.010  0.00  0.00    +0.013 C 
ATOM      3  C   UNL     1       0.002  -0.004   0.002  0.00  0.00    +0.034 C 
ATOM      4  C   UNL     1      -1.413  -0.524   0.009  0.00  0.00    +0.003 A 
ATOM      5  C   UNL     1      -2.113  -0.549  -1.189  0.00  0.00    +0.011 A 
ATOM      6  C   UNL     1      -3.413  -1.010  -1.232  0.00  0.00    +0.050 A 
ATOM      7  C   UNL     1      -4.031  -1.453  -0.072  0.00  0.00    +0.165 A 
ATOM      8  C   UNL     1      -3.335  -1.433   1.129  0.00  0.00    +0.205 A 
ATOM      9  C   UNL     1      -2.021  -0.971   1.168  0.00  0.00    +0.180 A 
ATOM     10  O   UNL     1      -1.367  -0.985   2.362  0.00  0.00    -0.421 OA
ATOM     11  C   UNL     1      -0.178  -0.353   2.429  0.00  0.00    +0.317 C 
ATOM     12  O   UNL     1       0.133   0.309   3.392  0.00  0.00    -0.250 OA
ATOM     13  C   UNL     1       0.747  -0.510   1.241  0.00  0.00    +0.114 C 
BRANCH   8  14
ATOM     14  O   UNL     1      -3.937  -1.866   2.270  0.00  0.00    -0.488 OA
ATOM     15  C   UNL     1      -3.802  -3.252   2.589  0.00  0.00    +0.277 C 
ENDBRANCH   8  14
BRANCH   7  16
ATOM     16  O   UNL     1      -5.313  -1.905  -0.111  0.00  0.00    -0.491 OA
ATOM     17  C   UNL     1      -5.965  -1.896  -1.382  0.00  0.00    +0.277 C 
ENDBRANCH   7  16
ENDBRANCH   1  13
BRANCH   1  18
ATOM     18  C   UNL     1       1.951  -2.440   2.228  0.00  0.00    +0.214 C 
ATOM     19  O   UNL     1       2.227  -1.662   3.117  0.00  0.00    -0.276 OA
ATOM     20  N   UNL     1       2.393  -3.712   2.284  0.00  0.00    -0.312 N 
ATOM     21  H   UNL     1       2.172  -4.334   1.574  0.00  0.00    +0.149 HD
BRANCH  20  22
ATOM     22  C   UNL     1       3.207  -4.155   3.419  0.00  0.00    +0.074 C 
ATOM     23  C   UNL     1       2.291  -4.577   4.570  0.00  0.00    +0.028 C 
BRANCH  22  24
ATOM     24  C   UNL     1       4.072  -5.343   2.993  0.00  0.00    +0.055 C 
BRANCH  24  25
ATOM     25  C   UNL     1       5.058  -4.896   1.946  0.00  0.00    -0.040 C 
ATOM     26  C   UNL     1       6.338  -4.507   2.147  0.00  0.00    -0.001 A 
ATOM     27  C   UNL     1       7.162  -4.386   3.355  0.00  0.00    +0.010 A 
ATOM     28  C   UNL     1       8.440  -3.958   3.238  0.00  0.00    +0.001 A 
ATOM     29  C   UNL     1       8.995  -3.627   1.994  0.00  0.00    +0.002 A 
ATOM     30  C   UNL     1       8.300  -3.712   0.840  0.00  0.00    +0.026 A 
ATOM     31  C   UNL     1       6.948  -4.151   0.846  0.00  0.00    +0.043 A 
ATOM     32  N   UNL     1       6.079  -4.315  -0.123  0.00  0.00    -0.380 N 
ATOM     33  C   UNL     1       4.820  -4.798   0.455  0.00  0.00    +0.144 C 
ATOM     34  H   UNL     1       6.242  -4.147  -1.064  0.00  0.00    +0.160 HD
ENDBRANCH  24  25
ENDBRANCH  22  24
ENDBRANCH  20  22
ENDBRANCH   1  18
TORSDOF 7
