REMARK  Name = ZINC43499184
REMARK  3 active torsions:
REMARK  status: ('A' for Active; 'I' for Inactive)
REMARK    1  A    between atoms: N_5  and  C_6
REMARK    2  A    between atoms: C_6  and  C_7
REMARK    3  A    between atoms: C_7  and  C_8
REMARK                            x       y       z     vdW  Elec       q    Type
REMARK                         _______ _______ _______ _____ _____    ______ ____
ROOT
ATOM      1  C   UNL     1      -1.171  -0.882   0.009  0.00  0.00    +0.142 C 
ENDROOT
BRANCH   1   6
ATOM      2  C   UNL     1      -0.016   1.346   0.009  0.00  0.00    +0.126 A 
ATOM      3  C   UNL     1       1.267   1.776  -0.001  0.00  0.00    +0.086 A 
ATOM      4  C   UNL     1       2.098   0.650  -0.015  0.00  0.00    +0.249 A 
ATOM      5  N   UNL     1       1.341  -0.417  -0.013  0.00  0.00    -0.145 NA
ATOM      6  N   UNL     1       0.002  -0.004   0.002  0.00  0.00    -0.268 N 
ATOM      7  N   UNL     1       3.578   0.663  -0.029  0.00  0.00    +0.078 N 
ATOM      8  O   UNL     1       4.173   1.716  -0.029  0.00  0.00    -0.125 OA
ATOM      9  O   UNL     1       4.192  -0.378  -0.040  0.00  0.00    -0.125 OA
ATOM     10 BR   UNL     1       1.837   3.579   0.003  0.00  0.00    -0.045 Br
ENDBRANCH   1   6
BRANCH   1  11
ATOM     11  C   UNL     1      -1.095  -1.844  -1.179  0.00  0.00    +0.007 C 
BRANCH  11  12
ATOM     12  C   UNL     1      -2.319  -2.760  -1.172  0.00  0.00    -0.070 C 
ATOM     13  C   UNL     1      -2.181  -3.803  -2.284  0.00  0.00    -0.016 C 
ATOM     14  C   UNL     1      -3.409  -4.718  -2.273  0.00  0.00    -0.003 C 
ATOM     15  C   UNL     1      -4.671  -3.865  -2.431  0.00  0.00    -0.019 C 
ATOM     16  C   UNL     1      -4.717  -2.820  -1.314  0.00  0.00    -0.082 C 
ATOM     17  N   UNL     1      -3.530  -1.961  -1.395  0.00  0.00    +0.381 N 
ATOM     18  H   UNL     1      -3.590  -1.240  -0.692  0.00  0.00    -0.086 HD
ATOM     19  H   UNL     1      -3.486  -1.534  -2.309  0.00  0.00    -0.086 HD
ENDBRANCH  11  12
ENDBRANCH   1  11
TORSDOF 3
