REMARK  Name = ZINC63328791
REMARK  7 active torsions:
REMARK  status: ('A' for Active; 'I' for Inactive)
REMARK    1  A    between atoms: C_1  and  C_2
REMARK    2  A    between atoms: C_2  and  C_4
REMARK    3  A    between atoms: C_2  and  N_17
REMARK    4  A    between atoms: C_4  and  N_6
REMARK    5  A    between atoms: C_18  and  C_20
REMARK    6  A    between atoms: C_29  and  O_30
REMARK    7  A    between atoms: O_30  and  C_31
REMARK                            x       y       z     vdW  Elec       q    Type
REMARK                         _______ _______ _______ _____ _____    ______ ____
ROOT
ATOM      1  N   UNL     1       0.665  -0.503  -1.204  0.00  0.00    -0.302 N 
ATOM      2  C   UNL     1      -0.024  -0.638  -2.354  0.00  0.00    +0.240 C 
ATOM      3  O   UNL     1      -1.203  -0.359  -2.391  0.00  0.00    -0.273 OA
ATOM      4  H   UNL     1       1.609  -0.726  -1.174  0.00  0.00    +0.150 HD
ENDROOT
BRANCH   2   5
ATOM      5  C   UNL     1       0.672  -1.137  -3.595  0.00  0.00    +0.190 C 
ATOM      6  C   UNL     1       0.779  -2.645  -3.562  0.00  0.00    +0.020 C 
ATOM      7  C   UNL     1       0.101  -3.093  -4.639  0.00  0.00    +0.038 A 
ATOM      8  C   UNL     1      -0.452  -1.938  -5.382  0.00  0.00    +0.047 A 
ATOM      9  N   UNL     1      -0.124  -0.814  -4.785  0.00  0.00    -0.370 N 
ATOM     10  C   UNL     1      -1.205  -2.198  -6.556  0.00  0.00    +0.026 A 
ATOM     11  C   UNL     1      -1.407  -3.468  -6.975  0.00  0.00    +0.006 A 
ATOM     12  C   UNL     1      -0.900  -4.579  -6.296  0.00  0.00    +0.046 A 
ATOM     13  C   UNL     1      -0.163  -4.445  -5.160  0.00  0.00    +0.129 A 
ATOM     14  H   UNL     1      -0.367   0.078  -5.079  0.00  0.00    +0.161 HD
BRANCH  13  15
ATOM     15  O   UNL     1       0.319  -5.537  -4.518  0.00  0.00    -0.494 OA
ATOM     16  C   UNL     1       0.017  -6.811  -5.090  0.00  0.00    +0.277 C 
ENDBRANCH  13  15
ENDBRANCH   2   5
BRANCH   1  18
ATOM     17  C   UNL     1      -0.023   1.511   0.001  0.00  0.00    +0.038 C 
ATOM     18  C   UNL     1      -0.011  -0.019   0.002  0.00  0.00    +0.158 C 
BRANCH  18  19
ATOM     19  C   UNL     1       0.722  -0.514   1.222  0.00  0.00    +0.258 C 
ATOM     20  O   UNL     1       1.715  -1.205   1.097  0.00  0.00    -0.272 OA
BRANCH  19  21
ATOM     21  N   UNL     1       0.284  -0.195   2.436  0.00  0.00    -0.155 NA
ATOM     22  C   UNL     1       0.868  -0.717   3.513  0.00  0.00    +0.164 A 
ATOM     23  N   UNL     1       1.980  -1.493   3.563  0.00  0.00    -0.335 N 
ATOM     24  H   UNL     1       2.446  -1.728   2.745  0.00  0.00    +0.168 HD
ATOM     25  C   UNL     1       2.446  -1.948   4.782  0.00  0.00    +0.055 A 
ATOM     26  C   UNL     1       3.561  -2.752   5.059  0.00  0.00    +0.027 A 
ATOM     27  C   UNL     1       3.866  -3.103   6.353  0.00  0.00    +0.002 A 
ATOM     28  C   UNL     1       3.085  -2.677   7.415  0.00  0.00    +0.001 A 
ATOM     29  C   UNL     1       1.980  -1.883   7.168  0.00  0.00    +0.017 A 
ATOM     30  C   UNL     1       1.674  -1.530   5.875  0.00  0.00    +0.039 A 
ATOM     31  S   UNL     1       0.399  -0.556   5.119  0.00  0.00    -0.052 S 
ENDBRANCH  19  21
ENDBRANCH  18  19
ENDBRANCH   1  18
TORSDOF 5
