REMARK  Name = ZINC52331935
REMARK  5 active torsions:
REMARK  status: ('A' for Active; 'I' for Inactive)
REMARK    1  A    between atoms: C_1  and  C_2
REMARK    2  A    between atoms: C_2  and  C_4
REMARK    3  A    between atoms: C_2  and  N_10
REMARK    4  A    between atoms: C_11  and  C_13
REMARK    5  A    between atoms: C_16  and  N_18
REMARK                            x       y       z     vdW  Elec       q    Type
REMARK                         _______ _______ _______ _____ _____    ______ ____
ROOT
ATOM      1  N   UNL     1       0.688  -0.476  -1.203  0.00  0.00    -0.312 N 
ATOM      2  C   UNL     1       0.006  -0.608  -2.358  0.00  0.00    +0.215 C 
ATOM      3  O   UNL     1      -1.175  -0.336  -2.400  0.00  0.00    -0.276 OA
ATOM      4  H   UNL     1       1.632  -0.695  -1.170  0.00  0.00    +0.149 HD
ENDROOT
BRANCH   2   5
ATOM      5  C   UNL     1       0.712  -1.094  -3.598  0.00  0.00    +0.059 C 
ATOM      6  C   UNL     1       0.908  -0.092  -4.738  0.00  0.00    -0.005 C 
ATOM      7  C   UNL     1      -0.117  -1.220  -4.879  0.00  0.00    -0.063 C 
BRANCH   7   8
ATOM      8  N   UNL     1      -1.538  -0.859  -4.805  0.00  0.00    +0.380 N 
ATOM      9  H   UNL     1      -1.626   0.107  -4.525  0.00  0.00    -0.090 HD
ATOM     10  H   UNL     1      -1.965  -0.986  -5.711  0.00  0.00    -0.090 HD
ATOM     11  H   UNL     1      -2.001  -1.448  -4.129  0.00  0.00    -0.090 HD
ENDBRANCH   7   8
ENDBRANCH   2   5
BRANCH   1  13
ATOM     12  C   UNL     1      -0.019   1.526   0.010  0.00  0.00    +0.028 C 
ATOM     13  C   UNL     1       0.002  -0.004   0.002  0.00  0.00    +0.073 C 
BRANCH  13  14
ATOM     14  C   UNL     1       0.742  -0.511   1.242  0.00  0.00    +0.009 C 
ATOM     15  C   UNL     1       0.763  -2.041   1.233  0.00  0.00    +0.005 C 
ATOM     16  C   UNL     1       1.503  -2.548   2.473  0.00  0.00    +0.000 C 
ATOM     17  C   UNL     1       0.787  -2.054   3.732  0.00  0.00    +0.000 C 
ATOM     18  C   UNL     1       0.766  -0.524   3.740  0.00  0.00    +0.000 C 
ATOM     19  C   UNL     1       0.026  -0.018   2.500  0.00  0.00    +0.005 C 
ENDBRANCH  13  14
ENDBRANCH   1  13
TORSDOF 4
