REMARK  Name = ZINC09003978
REMARK  10 active torsions:
REMARK  status: ('A' for Active; 'I' for Inactive)
REMARK    1  A    between atoms: C_1  and  C_2
REMARK    2  A    between atoms: C_2  and  C_3
REMARK    3  A    between atoms: C_3  and  N_4
REMARK    4  A    between atoms: N_4  and  C_5
REMARK    5  A    between atoms: N_4  and  C_8
REMARK    6  A    between atoms: C_5  and  C_6
REMARK    7  A    between atoms: C_6  and  C_7
REMARK    8  A    between atoms: C_9  and  C_20
REMARK    9  A    between atoms: C_16  and  C_19
REMARK   10  A    between atoms: N_24  and  C_28
REMARK                            x       y       z     vdW  Elec       q    Type
REMARK                         _______ _______ _______ _____ _____    ______ ____
ROOT
ATOM      1  C   UNL     1       1.718  -7.466  -3.078  0.00  0.00    +0.136 A 
ATOM      2  C   UNL     1       2.043  -6.367  -2.249  0.00  0.00    +0.081 A 
ATOM      3  C   UNL     1       2.555  -6.628  -0.956  0.00  0.00    +0.267 A 
ATOM      4  O   UNL     1       2.853  -5.710  -0.211  0.00  0.00    -0.267 OA
ATOM      5  N   UNL     1       2.703  -7.910  -0.560  0.00  0.00    -0.267 N 
ATOM      6  C   UNL     1       3.191  -8.171   0.686  0.00  0.00    +0.096 A 
ATOM      7  C   UNL     1       3.356  -9.444   1.112  0.00  0.00    +0.019 A 
ATOM      8  C   UNL     1       3.027 -10.515   0.271  0.00  0.00    +0.008 A 
ATOM      9  C   UNL     1       2.538 -10.265  -0.977  0.00  0.00    -0.007 A 
ATOM     10  C   UNL     1       2.373  -8.934  -1.403  0.00  0.00    +0.145 A 
ATOM     11  N   UNL     1       1.895  -8.699  -2.625  0.00  0.00    -0.213 NA
ATOM     12  C   UNL     1       2.180 -11.405  -1.895  0.00  0.00    +0.047 C 
ENDROOT
BRANCH   2  13
ATOM     13  C   UNL     1       1.865  -5.039  -2.704  0.00  0.00    +0.037 C 
ATOM     14  C   UNL     1       2.467  -4.627  -3.858  0.00  0.00    +0.077 C 
ATOM     15  C   UNL     1       2.328  -3.397  -4.563  0.00  0.00    +0.259 C 
ATOM     16  O   UNL     1       1.587  -2.521  -4.154  0.00  0.00    -0.269 OA
ATOM     17  N   UNL     1       3.027  -3.233  -5.673  0.00  0.00    -0.251 N 
ATOM     18  C   UNL     1       3.845  -4.207  -6.129  0.00  0.00    +0.121 C 
ATOM     19  S   UNL     1       4.828  -4.215  -7.531  0.00  0.00    -0.027 S 
ATOM     20  S   UNL     1       3.643  -5.484  -4.896  0.00  0.00    -0.061 S 
BRANCH  17  21
ATOM     21  C   UNL     1       2.908  -1.980  -6.422  0.00  0.00    +0.105 C 
ATOM     22  C   UNL     1       4.286  -1.303  -6.506  0.00  0.00    +0.047 C 
ATOM     23  C   UNL     1       4.200  -0.159  -7.557  0.00  0.00    +0.168 C 
ATOM     24  S   UNL     1       3.183  -0.974  -8.860  0.00  0.00    -0.029 S 
ATOM     25  O   UNL     1       2.189  -0.062  -9.308  0.00  0.00    -0.174 OA
ATOM     26  O   UNL     1       4.048  -1.587  -9.806  0.00  0.00    -0.174 OA
ATOM     27  C   UNL     1       2.381  -2.282  -7.846  0.00  0.00    +0.188 C 
ENDBRANCH  17  21
ENDBRANCH   2  13
BRANCH   1  28
ATOM     28  N   UNL     1       1.222  -7.257  -4.346  0.00  0.00    -0.315 N 
BRANCH  28  29
ATOM     29  C   UNL     1       1.139  -8.519  -5.094  0.00  0.00    +0.106 C 
BRANCH  29  31
ATOM     30  C   UNL     1       0.799  -9.533  -7.352  0.00  0.00    +0.005 C 
ATOM     31  C   UNL     1       0.918  -8.219  -6.578  0.00  0.00    +0.016 C 
ENDBRANCH  29  31
ENDBRANCH  28  29
BRANCH  28  32
ATOM     32  C   UNL     1      -0.085  -6.588  -4.296  0.00  0.00    +0.106 C 
BRANCH  32  33
ATOM     33  C   UNL     1      -1.051  -7.418  -3.447  0.00  0.00    +0.016 C 
ATOM     34  C   UNL     1      -2.440  -6.778  -3.482  0.00  0.00    +0.005 C 
ENDBRANCH  32  33
ENDBRANCH  28  32
ENDBRANCH   1  28
TORSDOF 7
