REMARK  Name = ZINC54823930
REMARK  3 active torsions:
REMARK  status: ('A' for Active; 'I' for Inactive)
REMARK    1  A    between atoms: C_6  and  N_7
REMARK    2  A    between atoms: N_7  and  C_8
REMARK    3  A    between atoms: C_13  and  C_15
REMARK                            x       y       z     vdW  Elec       q    Type
REMARK                         _______ _______ _______ _____ _____    ______ ____
ROOT
ATOM      1  N   UNL     1      -1.198  -0.721   0.010  0.00  0.00    -0.340 N 
ATOM      2  H   UNL     1      -2.045  -0.248   0.021  0.00  0.00    +0.146 HD
ENDROOT
BRANCH   1   8
ATOM      3  C   UNL     1      -0.017   1.385   0.010  0.00  0.00    +0.024 A 
ATOM      4  C   UNL     1       1.171   2.090   0.002  0.00  0.00    +0.022 A 
ATOM      5  C   UNL     1       2.378   1.415  -0.013  0.00  0.00    +0.041 A 
ATOM      6  C   UNL     1       2.400   0.031  -0.022  0.00  0.00    +0.022 A 
ATOM      7  C   UNL     1       1.216  -0.679  -0.014  0.00  0.00    +0.024 A 
ATOM      8  C   UNL     1       0.002  -0.004   0.002  0.00  0.00    +0.027 A 
ATOM      9 CL   UNL     1       3.869   2.305  -0.024  0.00  0.00    -0.084 Cl
ENDBRANCH   1   8
BRANCH   1  10
ATOM     10  C   UNL     1      -1.176  -2.185   0.002  0.00  0.00    +0.087 C 
ATOM     11  C   UNL     1      -1.081  -2.720   1.446  0.00  0.00    +0.023 C 
ATOM     12  C   UNL     1      -2.550  -3.014   1.840  0.00  0.00    +0.003 C 
ATOM     13  C   UNL     1      -3.150  -3.575   0.527  0.00  0.00    +0.020 C 
ATOM     14  C   UNL     1      -2.492  -2.728  -0.583  0.00  0.00    +0.112 C 
BRANCH  14  15
ATOM     15  C   UNL     1      -3.375  -1.613  -0.958  0.00  0.00    +0.068 C 
ATOM     16  N   UNL     1      -4.057  -0.751  -1.248  0.00  0.00    -0.196 NA
ENDBRANCH  14  15
ENDBRANCH   1  10
TORSDOF 3
