REMARK  Name = ZINC07587764
REMARK  7 active torsions:
REMARK  status: ('A' for Active; 'I' for Inactive)
REMARK    1  A    between atoms: C_1  and  C_2
REMARK    2  A    between atoms: C_2  and  C_3
REMARK    3  A    between atoms: C_3  and  N_4
REMARK    4  A    between atoms: C_5  and  N_27
REMARK    5  A    between atoms: C_6  and  C_13
REMARK    6  A    between atoms: C_13  and  C_15
REMARK    7  A    between atoms: C_15  and  N_53
REMARK                            x       y       z     vdW  Elec       q    Type
REMARK                         _______ _______ _______ _____ _____    ______ ____
ROOT
ATOM      1  N   UNL     1      -5.797   7.545  -2.721  0.00  0.00    -0.281 N 
ATOM      2  C   UNL     1      -4.778   7.078  -1.941  0.00  0.00    +0.116 A 
ATOM      3  C   UNL     1      -4.152   5.870  -2.293  0.00  0.00    +0.118 A 
ATOM      4  C   UNL     1      -4.641   5.165  -3.485  0.00  0.00    +0.266 A 
ATOM      5  O   UNL     1      -4.139   4.112  -3.833  0.00  0.00    -0.267 OA
ATOM      6  N   UNL     1      -5.658   5.707  -4.184  0.00  0.00    -0.274 N 
ATOM      7  H   UNL     1      -6.002   5.239  -4.998  0.00  0.00    +0.173 HD
ATOM      8  C   UNL     1      -6.214   6.869  -3.803  0.00  0.00    +0.331 A 
ATOM      9  O   UNL     1      -7.128   7.324  -4.462  0.00  0.00    -0.246 OA
ENDROOT
BRANCH   2  10
ATOM     10  N   UNL     1      -4.373   7.773  -0.844  0.00  0.00    -0.344 N 
ATOM     11  H   UNL     1      -3.975   7.306  -0.093  0.00  0.00    +0.144 HD
ATOM     12  H   UNL     1      -4.481   8.737  -0.813  0.00  0.00    +0.144 HD
ENDBRANCH   2  10
BRANCH   3  13
ATOM     13  C   UNL     1      -3.090   5.349  -1.522  0.00  0.00    +0.155 C 
ATOM     14  O   UNL     1      -2.773   5.889  -0.482  0.00  0.00    -0.294 OA
BRANCH  13  15
ATOM     15  C   UNL     1      -2.350   4.122  -1.991  0.00  0.00    +0.003 C 
BRANCH  15  25
ATOM     16  C   UNL     1      -0.293   4.983  -1.050  0.00  0.00    -0.078 C 
ATOM     17  C   UNL     1       0.932   4.612  -0.211  0.00  0.00    -0.018 C 
ATOM     18  C   UNL     1       0.483   4.254   1.208  0.00  0.00    +0.000 C 
ATOM     19  C   UNL     1      -0.525   3.103   1.140  0.00  0.00    -0.025 C 
ATOM     20  C   UNL     1      -1.708   3.520   0.264  0.00  0.00    -0.065 C 
ATOM     21  C   UNL     1      -2.714   2.371   0.182  0.00  0.00    -0.015 C 
ATOM     22  C   UNL     1      -2.036   1.142  -0.428  0.00  0.00    -0.002 C 
ATOM     23  C   UNL     1      -0.855   0.724   0.449  0.00  0.00    +0.000 C 
ATOM     24  C   UNL     1       0.152   1.873   0.531  0.00  0.00    +0.002 C 
ATOM     25  N   UNL     1      -1.214   3.827  -1.095  0.00  0.00    +0.387 N 
ATOM     26  H   UNL     1      -0.707   3.011  -1.457  0.00  0.00    -0.081 HD
ENDBRANCH  15  25
ENDBRANCH  13  15
ENDBRANCH   3  13
BRANCH   1  27
ATOM     27  C   UNL     1      -6.453   8.806  -2.367  0.00  0.00    +0.128 C 
BRANCH  27  29
ATOM     28  C   UNL     1      -8.312   9.842  -1.058  0.00  0.00    +0.005 C 
ATOM     29  C   UNL     1      -7.628   8.525  -1.428  0.00  0.00    +0.018 C 
ENDBRANCH  27  29
ENDBRANCH   1  27
TORSDOF 6
