REMARK  Name = ZINC46792136
REMARK  10 active torsions:
REMARK  status: ('A' for Active; 'I' for Inactive)
REMARK    1  A    between atoms: C_1  and  C_2
REMARK    2  A    between atoms: C_7  and  C_10
REMARK    3  A    between atoms: C_14  and  C_17
REMARK    4  A    between atoms: C_17  and  N_18
REMARK    5  A    between atoms: C_19  and  C_21
REMARK    6  A    between atoms: C_25  and  S_27
REMARK    7  A    between atoms: S_27  and  N_30
REMARK    8  A    between atoms: N_30  and  C_31
REMARK    9  A    between atoms: N_30  and  O_32
REMARK   10  A    between atoms: O_32  and  C_33
REMARK                            x       y       z     vdW  Elec       q    Type
REMARK                         _______ _______ _______ _____ _____    ______ ____
ROOT
ATOM      1  N   UNL     1      -3.925  -5.417  -4.609  0.00  0.00    -0.307 N 
ATOM      2  C   UNL     1      -4.281  -6.323  -5.541  0.00  0.00    +0.244 C 
ATOM      3  O   UNL     1      -5.382  -6.836  -5.500  0.00  0.00    -0.270 OA
ATOM      4  H   UNL     1      -3.046  -5.007  -4.642  0.00  0.00    +0.149 HD
ENDROOT
BRANCH   2   5
ATOM      5  C   UNL     1      -3.333  -6.693  -6.613  0.00  0.00    +0.039 A 
ATOM      6  C   UNL     1      -2.065  -6.109  -6.660  0.00  0.00    +0.014 A 
ATOM      7  C   UNL     1      -1.185  -6.458  -7.662  0.00  0.00    +0.023 A 
ATOM      8  C   UNL     1      -1.556  -7.386  -8.621  0.00  0.00    +0.067 A 
ATOM      9  C   UNL     1      -2.812  -7.968  -8.580  0.00  0.00    +0.127 A 
ATOM     10  C   UNL     1      -3.699  -7.631  -7.579  0.00  0.00    +0.043 A 
ATOM     11 CL   UNL     1      -0.443  -7.820  -9.880  0.00  0.00    -0.082 Cl
BRANCH   9  12
ATOM     12  S   UNL     1      -3.275  -9.148  -9.805  0.00  0.00    +0.084 S 
ATOM     13  O   UNL     1      -2.185 -10.052  -9.930  0.00  0.00    -0.151 OA
ATOM     14  O   UNL     1      -4.588  -9.579  -9.477  0.00  0.00    -0.151 OA
BRANCH  12  15
ATOM     15  N   UNL     1      -3.388  -8.339 -11.245  0.00  0.00    -0.058 NA
ATOM     16  C   UNL     1      -2.326  -8.473 -12.245  0.00  0.00    +0.166 C 
BRANCH  15  17
ATOM     17  O   UNL     1      -4.510  -7.518 -11.510  0.00  0.00    -0.280 OA
ATOM     18  C   UNL     1      -4.348  -6.160 -11.095  0.00  0.00    +0.223 C 
ENDBRANCH  15  17
ENDBRANCH  12  15
ENDBRANCH   9  12
ENDBRANCH   2   5
BRANCH   1  19
ATOM     19  C   UNL     1      -4.864  -5.050  -3.547  0.00  0.00    +0.141 C 
BRANCH  19  31
ATOM     20  C   UNL     1      -1.512  -1.283   3.570  0.00  0.00    +0.039 C 
ATOM     21  C   UNL     1      -2.311  -0.960   2.307  0.00  0.00    +0.133 C 
ATOM     22  C   UNL     1      -1.784  -1.800   1.138  0.00  0.00    +0.137 C 
ATOM     23  N   UNL     1      -2.437  -1.338  -0.097  0.00  0.00    -0.312 N 
ATOM     24  C   UNL     1      -2.426   0.104  -0.388  0.00  0.00    +0.137 C 
ATOM     25  C   UNL     1      -2.922   0.852   0.855  0.00  0.00    +0.133 C 
ATOM     26  O   UNL     1      -2.167   0.428   1.993  0.00  0.00    -0.371 OA
ATOM     27  C   UNL     1      -4.404   0.542   1.081  0.00  0.00    +0.039 C 
ATOM     28  C   UNL     1      -3.046  -2.238  -0.964  0.00  0.00    +0.099 A 
ATOM     29  C   UNL     1      -3.765  -1.764  -2.057  0.00  0.00    +0.042 A 
ATOM     30  C   UNL     1      -4.365  -2.671  -2.911  0.00  0.00    +0.010 A 
ATOM     31  C   UNL     1      -4.226  -4.026  -2.643  0.00  0.00    -0.014 A 
ATOM     32  C   UNL     1      -3.499  -4.427  -1.541  0.00  0.00    +0.089 A 
ATOM     33  N   UNL     1      -2.932  -3.539  -0.746  0.00  0.00    -0.349 N 
ATOM     34  H   UNL     1      -2.423  -3.847   0.020  0.00  0.00    +0.167 HD
ENDBRANCH  19  31
ENDBRANCH   1  19
TORSDOF 6
