REMARK  Name = ZINC20827632
REMARK  10 active torsions:
REMARK  status: ('A' for Active; 'I' for Inactive)
REMARK    1  A    between atoms: C_1  and  C_2
REMARK    2  A    between atoms: C_6  and  C_8
REMARK    3  A    between atoms: C_8  and  S_9
REMARK    4  A    between atoms: S_9  and  C_10
REMARK    5  A    between atoms: N_14  and  N_15
REMARK    6  A    between atoms: N_16  and  N_17
REMARK    7  A    between atoms: C_18  and  C_19
REMARK    8  A    between atoms: N_22  and  C_24
REMARK    9  A    between atoms: C_24  and  C_25
REMARK   10  A    between atoms: C_24  and  C_26
REMARK                            x       y       z     vdW  Elec       q    Type
REMARK                         _______ _______ _______ _____ _____    ______ ____
ROOT
ATOM      1  C   UNL     1      -0.117   7.713  -1.501  0.00  0.00    +0.210 A 
ATOM      2  N   UNL     1      -0.115   8.373  -0.368  0.00  0.00    -0.119 NA
ATOM      3  N   UNL     1      -0.137   9.742  -0.665  0.00  0.00    -0.109 NA
ATOM      4  C   UNL     1      -0.151   9.874  -1.970  0.00  0.00    +0.254 A 
ATOM      5  N   UNL     1      -0.134   8.622  -2.520  0.00  0.00    -0.211 N 
ATOM      6  N   UNL     1      -0.175  11.072  -2.668  0.00  0.00    -0.204 N 
ATOM      7  H   UNL     1      -0.186  11.067  -3.768  0.00  0.00    +0.177 HD
ENDROOT
BRANCH   5   8
ATOM      8  N   UNL     1      -0.136   8.332  -3.855  0.00  0.00    -0.294 N 
ATOM      9  H   UNL     1      -0.150   9.146  -4.595  0.00  0.00    +0.163 HD
ATOM     10  H   UNL     1      -0.124   7.285  -4.191  0.00  0.00    +0.163 HD
ENDBRANCH   5   8
BRANCH   6  11
ATOM     11  N   UNL     1      -0.184  12.288  -1.973  0.00  0.00    -0.187 NA
ATOM     12  C   UNL     1      -0.206  13.409  -2.627  0.00  0.00    +0.141 C 
BRANCH  12  13
ATOM     13  C   UNL     1      -0.215  14.691  -1.894  0.00  0.00    +0.032 A 
ATOM     14  C   UNL     1      -0.209  14.853  -0.492  0.00  0.00    +0.143 A 
ATOM     15  N   UNL     1      -0.219  16.133  -0.232  0.00  0.00    -0.179 NA
ATOM     16  N   UNL     1      -0.240  16.840  -1.439  0.00  0.00    -0.268 N 
ATOM     17  C   UNL     1      -0.238  15.950  -2.452  0.00  0.00    +0.118 A 
BRANCH  16  18
ATOM     18  C   UNL     1      -0.262  18.298  -1.578  0.00  0.00    +0.101 C 
ATOM     19  C   UNL     1       1.166  18.814  -1.766  0.00  0.00    +0.032 C 
ATOM     20  C   UNL     1      -1.107  18.682  -2.795  0.00  0.00    +0.032 C 
ENDBRANCH  16  18
ENDBRANCH  12  13
ENDBRANCH   6  11
BRANCH   1  21
ATOM     21  S   UNL     1      -0.095   5.960  -1.677  0.00  0.00    -0.080 S 
BRANCH  21  22
ATOM     22  C   UNL     1      -0.070   5.347   0.030  0.00  0.00    +0.112 C 
BRANCH  22  28
ATOM     23  C   UNL     1      -2.514   0.980   0.019  0.00  0.00    +0.044 C 
ATOM     24  C   UNL     1      -1.219   1.751   0.017  0.00  0.00    -0.050 A 
ATOM     25  C   UNL     1      -0.013   1.076   0.008  0.00  0.00    +0.003 A 
ATOM     26  C   UNL     1       1.175   1.783   0.000  0.00  0.00    +0.001 A 
ATOM     27  C   UNL     1       1.156   3.166   0.008  0.00  0.00    +0.004 A 
ATOM     28  C   UNL     1      -0.050   3.840   0.022  0.00  0.00    -0.037 A 
ATOM     29  C   UNL     1      -1.238   3.133   0.030  0.00  0.00    +0.007 A 
ENDBRANCH  22  28
ENDBRANCH  21  22
ENDBRANCH   1  21
TORSDOF 7
