REMARK  Name = ZINC13124470
REMARK  9 active torsions:
REMARK  status: ('A' for Active; 'I' for Inactive)
REMARK    1  A    between atoms: C_1  and  C_2
REMARK    2  A    between atoms: C_7  and  C_8
REMARK    3  A    between atoms: C_8  and  N_9
REMARK    4  A    between atoms: C_10  and  C_35
REMARK    5  A    between atoms: C_11  and  N_15
REMARK    6  A    between atoms: C_12  and  C_14
REMARK    7  A    between atoms: C_16  and  C_18
REMARK    8  A    between atoms: C_23  and  C_32
REMARK    9  A    between atoms: C_26  and  C_29
REMARK                            x       y       z     vdW  Elec       q    Type
REMARK                         _______ _______ _______ _____ _____    ______ ____
ROOT
ATOM      1  N   UNL     1      -4.729   1.883   2.551  0.00  0.00    -0.277 N 
ATOM      2  C   UNL     1      -5.979   1.533   2.913  0.00  0.00    +0.268 C 
ATOM      3  O   UNL     1      -6.161   0.538   3.587  0.00  0.00    -0.268 OA
ATOM      4  H   UNL     1      -4.578   2.708   2.064  0.00  0.00    +0.155 HD
ENDROOT
BRANCH   2   5
ATOM      5  C   UNL     1      -7.129   2.359   2.490  0.00  0.00    +0.149 A 
ATOM      6  C   UNL     1      -8.485   2.113   2.801  0.00  0.00    +0.078 A 
ATOM      7  C   UNL     1      -9.217   3.091   2.232  0.00  0.00    +0.119 A 
ATOM      8  N   UNL     1      -8.364   3.936   1.580  0.00  0.00    -0.242 N 
ATOM      9  N   UNL     1      -7.067   3.459   1.760  0.00  0.00    -0.164 NA
ATOM     10  C   UNL     1      -8.803   5.125   0.845  0.00  0.00    +0.177 C 
ATOM     11  C   UNL     1     -10.207   5.513   1.321  0.00  0.00    +0.060 C 
ATOM     12  C   UNL     1     -11.125   4.286   1.295  0.00  0.00    +0.140 C 
ATOM     13  N   UNL     1     -10.601   3.288   2.248  0.00  0.00    -0.321 N 
ATOM     14  H   UNL     1     -11.182   2.798   2.850  0.00  0.00    +0.148 HD
BRANCH  12  15
ATOM     15  C   UNL     1     -12.542   4.695   1.701  0.00  0.00    +0.361 C 
ATOM     16  F   UNL     1     -13.377   3.573   1.676  0.00  0.00    -0.207 F 
ATOM     17  F   UNL     1     -12.521   5.232   2.993  0.00  0.00    -0.207 F 
ENDBRANCH  12  15
BRANCH  10  18
ATOM     18  C   UNL     1      -7.832   6.278   1.109  0.00  0.00    +0.365 C 
ATOM     19  F   UNL     1      -6.550   5.915   0.685  0.00  0.00    -0.207 F 
ATOM     20  F   UNL     1      -8.253   7.412   0.406  0.00  0.00    -0.207 F 
ENDBRANCH  10  18
ENDBRANCH   2   5
BRANCH   1  23
ATOM     21  N   UNL     1      -1.773  -0.085   2.763  0.00  0.00    -0.262 N 
ATOM     22  C   UNL     1      -2.601   0.737   2.068  0.00  0.00    +0.058 A 
ATOM     23  C   UNL     1      -3.642   1.052   2.881  0.00  0.00    +0.077 A 
ATOM     24  C   UNL     1      -3.442   0.401   4.107  0.00  0.00    +0.081 A 
ATOM     25  N   UNL     1      -2.329  -0.282   4.034  0.00  0.00    -0.174 NA
ATOM     26  C   UNL     1      -4.356   0.472   5.303  0.00  0.00    +0.069 C 
ATOM     27  C   UNL     1      -2.401   1.214   0.653  0.00  0.00    +0.067 C 
BRANCH  21  28
ATOM     28  C   UNL     1      -0.523  -0.668   2.269  0.00  0.00    +0.179 C 
BRANCH  28  35
ATOM     29  C   UNL     1      -1.035  -3.128   3.695  0.00  0.00    +0.044 C 
ATOM     30  C   UNL     1      -1.071  -3.110   2.189  0.00  0.00    -0.046 A 
ATOM     31  C   UNL     1      -1.354  -4.268   1.489  0.00  0.00    +0.004 A 
ATOM     32  C   UNL     1      -1.387  -4.250   0.107  0.00  0.00    +0.000 A 
ATOM     33  C   UNL     1      -1.137  -3.074  -0.575  0.00  0.00    +0.000 A 
ATOM     34  C   UNL     1      -0.854  -1.916   0.124  0.00  0.00    +0.006 A 
ATOM     35  C   UNL     1      -0.826  -1.933   1.506  0.00  0.00    -0.023 A 
ENDBRANCH  28  35
ENDBRANCH  21  28
ENDBRANCH   1  23
TORSDOF 6
