REMARK  Name = ZINC31711965
REMARK  6 active torsions:
REMARK  status: ('A' for Active; 'I' for Inactive)
REMARK    1  A    between atoms: C_1  and  C_2
REMARK    2  A    between atoms: C_2  and  C_23
REMARK    3  A    between atoms: N_5  and  C_9
REMARK    4  A    between atoms: C_9  and  C_10
REMARK    5  A    between atoms: N_12  and  C_13
REMARK    6  A    between atoms: C_18  and  N_19
REMARK                            x       y       z     vdW  Elec       q    Type
REMARK                         _______ _______ _______ _____ _____    ______ ____
ROOT
ATOM      1  C   UNL     1       1.218   4.143  -1.437  0.00  0.00    +0.047 C 
ATOM      2  C   UNL     1       1.186   3.606  -0.004  0.00  0.00    +0.135 C 
ATOM      3  C   UNL     1       2.356   4.144   0.796  0.00  0.00    +0.251 C 
ATOM      4  O   UNL     1       3.536   3.973   0.574  0.00  0.00    -0.272 OA
ATOM      5  N   UNL     1       1.812   4.850   1.807  0.00  0.00    -0.215 N 
ATOM      6  C   UNL     1       0.475   4.833   1.757  0.00  0.00    +0.310 C 
ATOM      7  O   UNL     1      -0.238   5.399   2.562  0.00  0.00    -0.252 OA
ATOM      8  N   UNL     1       0.009   4.120   0.716  0.00  0.00    -0.281 N 
ATOM      9  H   UNL     1      -1.003   3.884   0.355  0.00  0.00    +0.152 HD
ENDROOT
BRANCH   2  10
ATOM     10  C   UNL     1       1.192   2.099  -0.004  0.00  0.00    -0.015 A 
ATOM     11  C   UNL     1       2.391   1.411  -0.004  0.00  0.00    +0.006 A 
ATOM     12  C   UNL     1       2.394   0.030  -0.005  0.00  0.00    +0.004 A 
ATOM     13  C   UNL     1       1.199  -0.669  -0.005  0.00  0.00    -0.044 A 
ATOM     14  C   UNL     1      -0.000   0.018  -0.004  0.00  0.00    -0.044 A 
ATOM     15  C   UNL     1      -0.001   1.403  -0.003  0.00  0.00    +0.010 A 
ATOM     16  C   UNL     1      -1.153  -0.963  -0.004  0.00  0.00    +0.036 C 
ATOM     17  C   UNL     1      -0.537  -2.309   0.435  0.00  0.00    +0.009 C 
ATOM     18  C   UNL     1       0.934  -2.159  -0.006  0.00  0.00    +0.036 C 
ENDBRANCH   2  10
BRANCH   5  19
ATOM     19  C   UNL     1       2.589   5.548   2.834  0.00  0.00    +0.214 C 
BRANCH  19  20
ATOM     20  C   UNL     1       2.839   4.619   3.994  0.00  0.00    +0.235 C 
ATOM     21  O   UNL     1       2.411   3.485   3.965  0.00  0.00    -0.274 OA
ATOM     22  N   UNL     1       3.539   5.048   5.062  0.00  0.00    -0.282 N 
ATOM     23  H   UNL     1       3.989   6.052   5.058  0.00  0.00    +0.155 HD
BRANCH  22  24
ATOM     24  C   UNL     1       3.692   4.217   6.178  0.00  0.00    +0.064 A 
ATOM     25  C   UNL     1       3.824   2.845   6.010  0.00  0.00    +0.027 A 
ATOM     26  C   UNL     1       3.980   2.028   7.112  0.00  0.00    +0.022 A 
ATOM     27  C   UNL     1       3.995   2.574   8.384  0.00  0.00    +0.043 A 
ATOM     28  C   UNL     1       3.859   3.940   8.554  0.00  0.00    +0.054 A 
ATOM     29  C   UNL     1       3.708   4.763   7.455  0.00  0.00    +0.149 A 
ATOM     30 CL   UNL     1       4.185   1.543   9.768  0.00  0.00    -0.083 Cl
BRANCH  29  31
ATOM     31  N   UNL     1       3.563   6.224   7.638  0.00  0.00    +0.058 N 
ATOM     32  O   UNL     1       3.676   6.714   8.747  0.00  0.00    -0.126 OA
ATOM     33  O   UNL     1       3.330   6.938   6.678  0.00  0.00    -0.126 OA
ENDBRANCH  29  31
ENDBRANCH  22  24
ENDBRANCH  19  20
ENDBRANCH   5  19
TORSDOF 5
