REMARK  Name = ZINC52098431
REMARK  7 active torsions:
REMARK  status: ('A' for Active; 'I' for Inactive)
REMARK    1  A    between atoms: C_1  and  C_2
REMARK    2  A    between atoms: C_2  and  C_3
REMARK    3  A    between atoms: C_2  and  C_13
REMARK    4  A    between atoms: C_2  and  O_19
REMARK    5  A    between atoms: C_3  and  S_4
REMARK    6  A    between atoms: S_4  and  C_5
REMARK    7  A    between atoms: C_9  and  N_11
REMARK                            x       y       z     vdW  Elec       q    Type
REMARK                         _______ _______ _______ _____ _____    ______ ____
ROOT
ATOM      1  S   UNL     1       2.395   0.234   1.306  0.00  0.00    -0.083 S 
ENDROOT
BRANCH   1   2
ATOM      2  C   UNL     1       3.109  -0.439   2.769  0.00  0.00    +0.192 A 
ATOM      3  N   UNL     1       2.404  -1.291   3.499  0.00  0.00    -0.207 NA
ATOM      4  C   UNL     1       2.911  -1.820   4.609  0.00  0.00    +0.122 A 
ATOM      5  C   UNL     1       4.200  -1.468   5.000  0.00  0.00    +0.086 A 
ATOM      6  C   UNL     1       4.911  -0.571   4.208  0.00  0.00    +0.122 A 
ATOM      7  N   UNL     1       4.340  -0.086   3.108  0.00  0.00    -0.207 NA
ATOM      8  N   UNL     1       2.166  -2.710   5.367  0.00  0.00    -0.343 N 
ATOM      9  H   UNL     1       1.268  -2.951   5.090  0.00  0.00    +0.144 HD
ATOM     10  H   UNL     1       2.542  -3.092   6.176  0.00  0.00    +0.144 HD
BRANCH   6  11
ATOM     11  N   UNL     1       6.197  -0.192   4.558  0.00  0.00    -0.343 N 
ATOM     12  H   UNL     1       6.608  -0.552   5.360  0.00  0.00    +0.144 HD
ATOM     13  H   UNL     1       6.687   0.434   4.002  0.00  0.00    +0.144 HD
ENDBRANCH   6  11
ENDBRANCH   1   2
BRANCH   1  14
ATOM     14  C   UNL     1       0.742  -0.511   1.242  0.00  0.00    +0.116 C 
BRANCH  14  16
ATOM     15  C   UNL     1      -0.019   1.526   0.010  0.00  0.00    +0.047 C 
ATOM     16  C   UNL     1       0.002  -0.004   0.002  0.00  0.00    +0.097 C 
BRANCH  16  17
ATOM     17  C   UNL     1      -1.412  -0.526   0.013  0.00  0.00    -0.016 A 
ATOM     18  C   UNL     1      -2.051  -0.766   1.215  0.00  0.00    +0.006 A 
ATOM     19  C   UNL     1      -3.348  -1.244   1.225  0.00  0.00    +0.000 A 
ATOM     20  C   UNL     1      -4.006  -1.482   0.032  0.00  0.00    +0.000 A 
ATOM     21  C   UNL     1      -3.367  -1.241  -1.170  0.00  0.00    +0.000 A 
ATOM     22  C   UNL     1      -2.072  -0.758  -1.179  0.00  0.00    +0.006 A 
ENDBRANCH  16  17
BRANCH  16  23
ATOM     23  O   UNL     1       0.671  -0.465  -1.174  0.00  0.00    -0.383 OA
ATOM     24  H   UNL     1       0.722  -1.428  -1.246  0.00  0.00    +0.211 HD
ENDBRANCH  16  23
ENDBRANCH  14  16
ENDBRANCH   1  14
TORSDOF 6
