REMARK  Name = ZINC13033684
REMARK  11 active torsions:
REMARK  status: ('A' for Active; 'I' for Inactive)
REMARK    1  A    between atoms: C_1  and  C_2
REMARK    2  A    between atoms: C_2  and  C_3
REMARK    3  A    between atoms: C_3  and  C_4
REMARK    4  A    between atoms: C_3  and  C_5
REMARK    5  A    between atoms: C_3  and  N_6
REMARK    6  A    between atoms: C_7  and  C_11
REMARK    7  A    between atoms: C_11  and  N_62
REMARK    8  A    between atoms: C_12  and  C_13
REMARK    9  A    between atoms: C_12  and  N_62
REMARK   10  A    between atoms: C_18  and  C_19
REMARK   11  A    between atoms: C_18  and  N_62
REMARK                            x       y       z     vdW  Elec       q    Type
REMARK                         _______ _______ _______ _____ _____    ______ ____
ROOT
ATOM      1  N   UNL     1       2.683   1.189  -1.737  0.00  0.00    +0.390 N 
ATOM      2  H   UNL     1       2.925   1.996  -2.324  0.00  0.00    -0.080 HD
ENDROOT
BRANCH   1   3
ATOM      3  C   UNL     1       3.913   0.421  -1.448  0.00  0.00    +0.001 C 
BRANCH   3   5
ATOM      4  N   UNL     1       5.926   1.978  -1.615  0.00  0.00    -0.226 N 
ATOM      5  C   UNL     1       4.959   1.363  -0.909  0.00  0.00    +0.136 A 
ATOM      6  N   UNL     1       5.106   1.738   0.338  0.00  0.00    -0.115 NA
ATOM      7  N   UNL     1       6.109   2.545   0.395  0.00  0.00    -0.023 NA
ATOM      8  N   UNL     1       6.605   2.695  -0.784  0.00  0.00    -0.043 NA
BRANCH   4   9
ATOM      9  C   UNL     1       6.162   1.858  -3.055  0.00  0.00    +0.061 C 
ATOM     10  C   UNL     1       6.606   0.431  -3.383  0.00  0.00    +0.036 C 
ATOM     11  C   UNL     1       4.872   2.177  -3.812  0.00  0.00    +0.036 C 
BRANCH   9  13
ATOM     12  C   UNL     1       7.503   2.716  -4.981  0.00  0.00    +0.006 C 
ATOM     13  C   UNL     1       7.257   2.841  -3.476  0.00  0.00    +0.026 C 
ENDBRANCH   9  13
ENDBRANCH   4   9
ENDBRANCH   3   5
ENDBRANCH   1   3
BRANCH   1  14
ATOM     14  C   UNL     1       2.083   1.674  -0.477  0.00  0.00    -0.035 C 
BRANCH  14  15
ATOM     15  C   UNL     1       1.071   2.743  -0.803  0.00  0.00    -0.027 A 
ATOM     16  C   UNL     1      -0.266   2.623  -0.993  0.00  0.00    +0.009 A 
ATOM     17  C   UNL     1      -1.004   3.753  -1.291  0.00  0.00    +0.008 A 
ATOM     18  C   UNL     1      -0.371   4.949  -1.374  0.00  0.00    +0.045 A 
ATOM     19  S   UNL     1       1.323   4.495  -1.038  0.00  0.00    -0.103 S 
ENDBRANCH  14  15
ENDBRANCH   1  14
BRANCH   1  20
ATOM     20  C   UNL     1       1.716   0.339  -2.464  0.00  0.00    -0.036 C 
BRANCH  20  21
ATOM     21  C   UNL     1       2.193   0.169  -3.883  0.00  0.00    +0.001 A 
ATOM     22  C   UNL     1       2.897  -0.939  -4.231  0.00  0.00    +0.017 A 
ATOM     23  C   UNL     1       3.341  -1.078  -5.617  0.00  0.00    +0.002 A 
ATOM     24  C   UNL     1       4.067  -2.200  -6.034  0.00  0.00    +0.059 A 
ATOM     25  C   UNL     1       4.477  -2.302  -7.347  0.00  0.00    +0.163 A 
ATOM     26  C   UNL     1       4.170  -1.289  -8.261  0.00  0.00    +0.164 A 
ATOM     27  C   UNL     1       3.453  -0.176  -7.857  0.00  0.00    +0.075 A 
ATOM     28  C   UNL     1       3.034  -0.058  -6.538  0.00  0.00    +0.053 A 
ATOM     29  N   UNL     1       2.319   1.046  -6.119  0.00  0.00    -0.322 N 
ATOM     30  H   UNL     1       2.108   1.748  -6.753  0.00  0.00    +0.169 HD
ATOM     31  C   UNL     1       1.911   1.161  -4.843  0.00  0.00    +0.251 A 
ATOM     32  O   UNL     1       1.282   2.150  -4.507  0.00  0.00    -0.268 OA
ATOM     33  O   UNL     1       4.567  -1.384  -9.559  0.00  0.00    -0.485 OA
ATOM     34  C   UNL     1       5.603  -2.328  -9.848  0.00  0.00    +0.270 C 
ATOM     35  C   UNL     1       5.261  -3.648  -9.144  0.00  0.00    +0.270 C 
ATOM     36  O   UNL     1       5.185  -3.398  -7.737  0.00  0.00    -0.485 OA
ENDBRANCH  20  21
ENDBRANCH   1  20
TORSDOF 8
