REMARK  Name = ZINC47362270
REMARK  5 active torsions:
REMARK  status: ('A' for Active; 'I' for Inactive)
REMARK    1  A    between atoms: C_1  and  C_2
REMARK    2  A    between atoms: C_4  and  C_7
REMARK    3  A    between atoms: C_7  and  C_9
REMARK    4  A    between atoms: C_9  and  C_11
REMARK    5  A    between atoms: C_9  and  C_13
REMARK                            x       y       z     vdW  Elec       q    Type
REMARK                         _______ _______ _______ _____ _____    ______ ____
ROOT
ATOM      1  C   UNL     1       0.779  -5.630  -1.913  0.00  0.00    +0.136 A 
ATOM      2  N   UNL     1       1.360  -6.747  -1.405  0.00  0.00    -0.309 N 
ATOM      3  H   UNL     1       1.305  -6.920  -0.452  0.00  0.00    +0.170 HD
ATOM      4  C   UNL     1       2.011  -7.619  -2.197  0.00  0.00    +0.260 A 
ATOM      5  O   UNL     1       2.527  -8.618  -1.726  0.00  0.00    -0.267 OA
ATOM      6  C   UNL     1       2.088  -7.354  -3.604  0.00  0.00    +0.075 A 
ATOM      7  C   UNL     1       2.736  -8.150  -4.644  0.00  0.00    -0.023 A 
ATOM      8  C   UNL     1       2.666  -7.681  -5.908  0.00  0.00    -0.004 A 
ATOM      9  S   UNL     1       1.744  -6.171  -5.786  0.00  0.00    -0.073 S 
ATOM     10  C   UNL     1       1.457  -6.176  -4.035  0.00  0.00    +0.116 A 
ATOM     11  N   UNL     1       0.827  -5.364  -3.191  0.00  0.00    -0.225 NA
ATOM     12  C   UNL     1       3.245  -8.304  -7.141  0.00  0.00    +0.043 C 
ATOM     13  C   UNL     1       4.257  -9.376  -6.713  0.00  0.00    +0.005 C 
ATOM     14  C   UNL     1       3.616 -10.253  -5.634  0.00  0.00    +0.005 C 
ATOM     15  C   UNL     1       3.465  -9.456  -4.338  0.00  0.00    +0.037 C 
ENDROOT
BRANCH   1  16
ATOM     16  C   UNL     1       0.060  -4.683  -0.986  0.00  0.00    +0.231 C 
BRANCH  16  17
ATOM     17  C   UNL     1       0.039  -3.304  -1.595  0.00  0.00    +0.225 C 
ATOM     18  O   UNL     1       0.031  -3.174  -2.800  0.00  0.00    -0.287 OA
BRANCH  17  22
ATOM     19  C   UNL     1      -0.018   1.503   0.010  0.00  0.00    +0.069 C 
ATOM     20  C   UNL     1       0.002  -0.004   0.002  0.00  0.00    +0.081 A 
ATOM     21  C   UNL     1       0.008  -0.820  -1.141  0.00  0.00    +0.079 A 
ATOM     22  C   UNL     1       0.028  -2.120  -0.728  0.00  0.00    +0.204 A 
ATOM     23  O   UNL     1       0.034  -2.120   0.620  0.00  0.00    -0.351 OA
ATOM     24  N   UNL     1       0.023  -0.772   1.054  0.00  0.00    -0.083 NA
ENDBRANCH  17  22
ENDBRANCH  16  17
BRANCH  16  25
ATOM     25  C   UNL     1      -1.320  -5.150  -0.781  0.00  0.00    +0.082 C 
ATOM     26  N   UNL     1      -2.386  -5.511  -0.623  0.00  0.00    -0.195 NA
ENDBRANCH  16  25
ENDBRANCH   1  16
TORSDOF 4
