REMARK  Name = ZINC39674991
REMARK  8 active torsions:
REMARK  status: ('A' for Active; 'I' for Inactive)
REMARK    1  A    between atoms: C_1  and  C_2
REMARK    2  A    between atoms: C_4  and  C_32
REMARK    3  A    between atoms: N_5  and  C_7
REMARK    4  A    between atoms: C_7  and  C_8
REMARK    5  A    between atoms: C_8  and  N_9
REMARK    6  A    between atoms: C_10  and  C_12
REMARK    7  A    between atoms: C_23  and  C_25
REMARK    8  A    between atoms: C_25  and  C_31
REMARK                            x       y       z     vdW  Elec       q    Type
REMARK                         _______ _______ _______ _____ _____    ______ ____
ROOT
ATOM      1  C   UNL     1       2.429  -7.063   4.207  0.00  0.00    +0.100 C 
ATOM      2  C   UNL     1       1.732  -8.059   3.253  0.00  0.00    +0.121 C 
ATOM      3  N   UNL     1       2.842  -8.796   2.604  0.00  0.00    -0.300 N 
ATOM      4  C   UNL     1       3.831  -9.003   3.689  0.00  0.00    +0.115 C 
ATOM      5  C   UNL     1       3.805  -7.688   4.493  0.00  0.00    -0.004 C 
ATOM      6  C   UNL     1       3.954  -7.977   5.984  0.00  0.00    -0.010 C 
ATOM      7  C   UNL     1       5.351  -8.543   6.252  0.00  0.00    -0.082 C 
ATOM      8  N   UNL     1       6.366  -7.576   5.817  0.00  0.00    +0.379 N 
ATOM      9  C   UNL     1       6.275  -7.374   4.366  0.00  0.00    -0.082 C 
ATOM     10  C   UNL     1       4.917  -6.758   4.018  0.00  0.00    -0.010 C 
ATOM     11  C   UNL     1       2.931  -9.190   1.319  0.00  0.00    +0.222 C 
ATOM     12  O   UNL     1       2.068  -8.876   0.527  0.00  0.00    -0.275 OA
ATOM     13  H   UNL     1       6.213  -6.696   6.288  0.00  0.00    -0.086 HD
ATOM     14  H   UNL     1       7.283  -7.925   6.051  0.00  0.00    -0.086 HD
ENDROOT
BRANCH  11  15
ATOM     15  C   UNL     1       4.104 -10.020   0.865  0.00  0.00    +0.044 C 
ATOM     16  C   UNL     1       5.383  -9.185   0.949  0.00  0.00    +0.016 C 
ATOM     17  C   UNL     1       5.250  -7.955   0.048  0.00  0.00    +0.001 C 
ATOM     18  C   UNL     1       5.028  -8.404  -1.397  0.00  0.00    +0.000 C 
ATOM     19  C   UNL     1       3.749  -9.239  -1.482  0.00  0.00    +0.001 C 
ATOM     20  C   UNL     1       3.882 -10.469  -0.581  0.00  0.00    +0.016 C 
ATOM     21  C   UNL     1       4.238 -11.249   1.766  0.00  0.00    +0.021 C 
ENDBRANCH  11  15
BRANCH   1  23
ATOM     22  N   UNL     1       2.604  -4.597   4.279  0.00  0.00    -0.313 N 
ATOM     23  C   UNL     1       2.591  -5.722   3.538  0.00  0.00    +0.218 C 
ATOM     24  O   UNL     1       2.710  -5.656   2.332  0.00  0.00    -0.275 OA
ATOM     25  H   UNL     1       2.510  -4.649   5.242  0.00  0.00    +0.149 HD
BRANCH  22  26
ATOM     26  C   UNL     1       2.762  -3.293   3.628  0.00  0.00    +0.127 C 
BRANCH  26  27
ATOM     27  C   UNL     1       2.743  -2.189   4.687  0.00  0.00    +0.162 C 
BRANCH  27  32
ATOM     28  C   UNL     1       4.865   1.917   2.730  0.00  0.00    +0.067 C 
ATOM     29  C   UNL     1       3.850   0.902   3.187  0.00  0.00    +0.060 A 
ATOM     30  C   UNL     1       2.462   1.012   3.051  0.00  0.00    +0.047 A 
ATOM     31  C   UNL     1       1.902  -0.100   3.582  0.00  0.00    +0.036 A 
ATOM     32  N   UNL     1       2.901  -0.886   4.037  0.00  0.00    -0.267 N 
ATOM     33  N   UNL     1       4.114  -0.238   3.772  0.00  0.00    -0.176 NA
ATOM     34  C   UNL     1       0.428  -0.406   3.653  0.00  0.00    +0.065 C 
ENDBRANCH  27  32
ENDBRANCH  26  27
ENDBRANCH  22  26
ENDBRANCH   1  23
TORSDOF 5
