REMARK  Name = ZINC35622365
REMARK  9 active torsions:
REMARK  status: ('A' for Active; 'I' for Inactive)
REMARK    1  A    between atoms: C_1  and  O_2
REMARK    2  A    between atoms: O_2  and  C_3
REMARK    3  A    between atoms: C_3  and  C_5
REMARK    4  A    between atoms: C_8  and  C_27
REMARK    5  A    between atoms: C_9  and  N_11
REMARK    6  A    between atoms: C_12  and  C_16
REMARK    7  A    between atoms: C_16  and  N_26
REMARK    8  A    between atoms: C_27  and  O_29
REMARK    9  A    between atoms: O_29  and  C_30
REMARK                            x       y       z     vdW  Elec       q    Type
REMARK                         _______ _______ _______ _____ _____    ______ ____
ROOT
ATOM      1  N   UNL     1       4.427  -3.684  -1.041  0.00  0.00    -0.198 N 
ATOM      2  C   UNL     1       5.454  -3.332  -1.847  0.00  0.00    +0.146 A 
ATOM      3  N   UNL     1       6.191  -4.397  -2.023  0.00  0.00    -0.114 NA
ATOM      4  N   UNL     1       5.701  -5.398  -1.384  0.00  0.00    -0.023 NA
ATOM      5  N   UNL     1       4.630  -5.046  -0.757  0.00  0.00    -0.039 NA
ENDROOT
BRANCH   2   6
ATOM      6  C   UNL     1       5.702  -1.966  -2.433  0.00  0.00    -0.002 C 
ATOM      7  C   UNL     1       5.793  -0.936  -1.305  0.00  0.00    -0.014 C 
ATOM      8  C   UNL     1       6.944  -1.306  -0.368  0.00  0.00    +0.006 C 
ATOM      9  C   UNL     1       8.257  -1.319  -1.154  0.00  0.00    -0.010 C 
ATOM     10  C   UNL     1       8.509   0.068  -1.749  0.00  0.00    +0.007 C 
ATOM     11  C   UNL     1       7.358   0.438  -2.686  0.00  0.00    -0.010 C 
ATOM     12  C   UNL     1       6.045   0.451  -1.900  0.00  0.00    +0.006 C 
ATOM     13  C   UNL     1       7.267  -0.593  -3.814  0.00  0.00    +0.006 C 
ATOM     14  C   UNL     1       7.015  -1.979  -3.218  0.00  0.00    -0.014 C 
ATOM     15  C   UNL     1       8.166  -2.349  -2.281  0.00  0.00    +0.006 C 
BRANCH   6  16
ATOM     16  N   UNL     1       4.596  -1.611  -3.333  0.00  0.00    +0.387 N 
ATOM     17  H   UNL     1       3.747  -2.051  -3.012  0.00  0.00    -0.089 HD
ATOM     18  H   UNL     1       4.475  -0.609  -3.337  0.00  0.00    -0.089 HD
ATOM     19  H   UNL     1       4.808  -1.928  -4.267  0.00  0.00    -0.089 HD
ENDBRANCH   6  16
ENDBRANCH   2   6
BRANCH   1  24
ATOM     20  C   UNL     1       2.172  -0.792  -0.665  0.00  0.00    +0.061 A 
ATOM     21  C   UNL     1       1.315  -1.251   0.339  0.00  0.00    +0.016 A 
ATOM     22  C   UNL     1       1.490  -2.505   0.878  0.00  0.00    +0.018 A 
ATOM     23  C   UNL     1       2.527  -3.324   0.424  0.00  0.00    +0.084 A 
ATOM     24  C   UNL     1       3.388  -2.867  -0.583  0.00  0.00    +0.084 A 
ATOM     25  C   UNL     1       3.205  -1.605  -1.128  0.00  0.00    +0.043 A 
BRANCH  20  26
ATOM     26  C   UNL     1       1.979   0.557  -1.242  0.00  0.00    +0.339 C 
ATOM     27  O   UNL     1       2.720   0.954  -2.118  0.00  0.00    -0.245 OA
BRANCH  26  29
ATOM     28  C   UNL     1       0.853   2.633  -1.398  0.00  0.00    +0.280 C 
ATOM     29  O   UNL     1       0.981   1.343  -0.796  0.00  0.00    -0.464 OA
ENDBRANCH  26  29
ENDBRANCH  20  26
BRANCH  23  30
ATOM     30  C   UNL     1       2.715  -4.669   1.003  0.00  0.00    +0.341 C 
ATOM     31  O   UNL     1       2.698  -5.648   0.284  0.00  0.00    -0.245 OA
BRANCH  30  32
ATOM     32  O   UNL     1       2.905  -4.811   2.330  0.00  0.00    -0.464 OA
ATOM     33  C   UNL     1       3.080  -6.141   2.822  0.00  0.00    +0.280 C 
ENDBRANCH  30  32
ENDBRANCH  23  30
ENDBRANCH   1  24
TORSDOF 7
