REMARK  Name = ZINC11872294
REMARK  7 active torsions:
REMARK  status: ('A' for Active; 'I' for Inactive)
REMARK    1  A    between atoms: C_1  and  C_2
REMARK    2  A    between atoms: C_4  and  C_8
REMARK    3  A    between atoms: C_5  and  C_7
REMARK    4  A    between atoms: N_10  and  C_11
REMARK    5  A    between atoms: C_11  and  C_12
REMARK    6  A    between atoms: C_21  and  C_22
REMARK    7  A    between atoms: C_21  and  N_57
REMARK                            x       y       z     vdW  Elec       q    Type
REMARK                         _______ _______ _______ _____ _____    ______ ____
ROOT
ATOM      1  C   UNL     1      -2.850   0.614  -2.582  0.00  0.00    +0.151 A 
ATOM      2  N   UNL     1      -3.878  -0.156  -2.337  0.00  0.00    -0.133 NA
ATOM      3  N   UNL     1      -3.900  -0.467  -1.088  0.00  0.00    -0.134 NA
ATOM      4  C   UNL     1      -2.888   0.084  -0.484  0.00  0.00    +0.132 A 
ATOM      5  N   UNL     1      -2.203   0.798  -1.412  0.00  0.00    -0.315 N 
ATOM      6  C   UNL     1      -1.009   1.607  -1.165  0.00  0.00    +0.106 C 
ATOM      7  C   UNL     1      -0.248   1.030   0.032  0.00  0.00    -0.057 C 
ATOM      8  C   UNL     1      -2.157   1.354   1.506  0.00  0.00    -0.071 C 
ATOM      9  C   UNL     1      -2.501  -0.038   0.967  0.00  0.00    +0.058 C 
ATOM     10  N   UNL     1      -0.732   1.673   1.275  0.00  0.00    +0.381 N 
ATOM     11  H   UNL     1      -0.632   2.691   1.180  0.00  0.00    -0.082 HD
ENDROOT
BRANCH   1  12
ATOM     12  C   UNL     1      -2.462   1.190  -3.920  0.00  0.00    +0.181 C 
BRANCH  12  15
ATOM     13  C   UNL     1      -1.080   0.568  -5.828  0.00  0.00    +0.248 C 
ATOM     14  O   UNL     1      -1.395   1.616  -6.360  0.00  0.00    -0.270 OA
ATOM     15  N   UNL     1      -1.560   0.261  -4.607  0.00  0.00    -0.304 N 
ATOM     16  H   UNL     1      -1.309  -0.574  -4.183  0.00  0.00    +0.149 HD
BRANCH  13  20
ATOM     17  C   UNL     1       1.834  -3.469  -6.940  0.00  0.00    +0.086 C 
ATOM     18  C   UNL     1       1.105  -2.151  -6.992  0.00  0.00    +0.103 A 
ATOM     19  C   UNL     1       0.312  -1.662  -6.026  0.00  0.00    +0.057 A 
ATOM     20  C   UNL     1      -0.174  -0.365  -6.520  0.00  0.00    +0.077 A 
ATOM     21  C   UNL     1       0.395  -0.205  -7.749  0.00  0.00    +0.114 A 
ATOM     22  O   UNL     1       1.149  -1.277  -8.009  0.00  0.00    -0.464 OA
ATOM     23  C   UNL     1       0.204   0.981  -8.660  0.00  0.00    +0.087 C 
ENDBRANCH  13  20
ENDBRANCH  12  15
ENDBRANCH   1  12
BRANCH  10  24
ATOM     24  C   UNL     1       0.073   1.220   2.422  0.00  0.00    -0.075 C 
BRANCH  24  25
ATOM     25  C   UNL     1       1.401   1.979   2.409  0.00  0.00    -0.024 C 
ATOM     26  C   UNL     1       2.306   1.454   3.531  0.00  0.00    +0.006 C 
ATOM     27  C   UNL     1       3.685   2.101   3.383  0.00  0.00    +0.027 C 
ATOM     28  C   UNL     1       3.545   3.587   3.225  0.00  0.00    -0.031 C 
ATOM     29  C   UNL     1       2.441   4.181   2.902  0.00  0.00    -0.031 C 
ATOM     30  C   UNL     1       1.145   3.469   2.644  0.00  0.00    +0.028 C 
ENDBRANCH  24  25
ENDBRANCH  10  24
TORSDOF 5
