REMARK  Name = ZINC13065125
REMARK  12 active torsions:
REMARK  status: ('A' for Active; 'I' for Inactive)
REMARK    1  A    between atoms: C_1  and  C_2
REMARK    2  A    between atoms: C_2  and  C_3
REMARK    3  A    between atoms: C_3  and  C_5
REMARK    4  A    between atoms: C_3  and  N_69
REMARK    5  A    between atoms: N_9  and  C_10
REMARK    6  A    between atoms: C_10  and  C_11
REMARK    7  A    between atoms: C_16  and  C_17
REMARK    8  A    between atoms: C_16  and  N_69
REMARK    9  A    between atoms: C_26  and  C_27
REMARK   10  A    between atoms: C_26  and  N_69
REMARK   11  A    between atoms: C_32  and  C_40
REMARK   12  A    between atoms: C_33  and  C_39
REMARK                            x       y       z     vdW  Elec       q    Type
REMARK                         _______ _______ _______ _____ _____    ______ ____
ROOT
ATOM      1  N   UNL     1      -1.808   2.353  -1.831  0.00  0.00    +0.392 N 
ATOM      2  H   UNL     1      -1.251   2.705  -2.619  0.00  0.00    -0.080 HD
ENDROOT
BRANCH   1   3
ATOM      3  C   UNL     1      -3.113   3.047  -1.820  0.00  0.00    +0.003 C 
BRANCH   3   4
ATOM      4  C   UNL     1      -2.909   4.464  -2.289  0.00  0.00    +0.139 A 
ATOM      5  N   UNL     1      -1.931   5.268  -1.948  0.00  0.00    -0.115 NA
ATOM      6  N   UNL     1      -2.107   6.389  -2.558  0.00  0.00    -0.023 NA
ATOM      7  N   UNL     1      -3.172   6.322  -3.279  0.00  0.00    -0.044 NA
ATOM      8  N   UNL     1      -3.692   5.148  -3.144  0.00  0.00    -0.223 N 
BRANCH   8   9
ATOM      9  C   UNL     1      -4.907   4.655  -3.796  0.00  0.00    +0.221 C 
BRANCH   9  10
ATOM     10  C   UNL     1      -6.101   4.959  -2.929  0.00  0.00    +0.126 A 
ATOM     11  C   UNL     1      -6.842   6.082  -2.976  0.00  0.00    +0.046 A 
ATOM     12  C   UNL     1      -7.854   5.945  -1.998  0.00  0.00    +0.041 A 
ATOM     13  C   UNL     1      -7.666   4.752  -1.407  0.00  0.00    +0.195 A 
ATOM     14  O   UNL     1      -6.604   4.159  -1.975  0.00  0.00    -0.466 OA
ENDBRANCH   9  10
ENDBRANCH   8   9
ENDBRANCH   3   4
BRANCH   3  16
ATOM     15  C   UNL     1      -4.035   1.625   0.017  0.00  0.00    +0.002 C 
ATOM     16  C   UNL     1      -3.700   3.057  -0.407  0.00  0.00    -0.011 C 
ENDBRANCH   3  16
ENDBRANCH   1   3
BRANCH   1  17
ATOM     17  C   UNL     1      -2.010   0.899  -1.998  0.00  0.00    -0.041 C 
BRANCH  17  18
ATOM     18  C   UNL     1      -2.472   0.632  -3.407  0.00  0.00    -0.060 A 
ATOM     19  C   UNL     1      -3.822   0.500  -3.677  0.00  0.00    +0.005 A 
ATOM     20  C   UNL     1      -4.251   0.261  -4.969  0.00  0.00    +0.050 A 
ATOM     21  C   UNL     1      -3.328   0.140  -5.995  0.00  0.00    +0.166 A 
ATOM     22  C   UNL     1      -1.968   0.267  -5.722  0.00  0.00    +0.166 A 
ATOM     23  C   UNL     1      -1.545   0.513  -4.426  0.00  0.00    +0.051 A 
ATOM     24  O   UNL     1      -1.272   0.109  -6.886  0.00  0.00    -0.453 OA
ATOM     25  C   UNL     1      -2.190  -0.520  -7.800  0.00  0.00    +0.466 C 
ATOM     26  O   UNL     1      -3.484  -0.098  -7.330  0.00  0.00    -0.453 OA
ENDBRANCH  17  18
ENDBRANCH   1  17
BRANCH   1  27
ATOM     27  C   UNL     1      -1.083   2.622  -0.572  0.00  0.00    -0.036 C 
BRANCH  27  28
ATOM     28  C   UNL     1       0.351   2.187  -0.736  0.00  0.00    +0.001 A 
ATOM     29  C   UNL     1       1.289   3.085  -1.124  0.00  0.00    +0.017 A 
ATOM     30  C   UNL     1       2.672   2.629  -1.281  0.00  0.00    -0.001 A 
ATOM     31  C   UNL     1       3.684   3.510  -1.678  0.00  0.00    +0.010 A 
ATOM     32  C   UNL     1       4.963   3.053  -1.815  0.00  0.00    +0.004 A 
ATOM     33  C   UNL     1       5.270   1.722  -1.563  0.00  0.00    -0.046 A 
ATOM     34  C   UNL     1       4.289   0.837  -1.170  0.00  0.00    -0.024 A 
ATOM     35  C   UNL     1       2.978   1.280  -1.024  0.00  0.00    +0.052 A 
ATOM     36  N   UNL     1       1.978   0.416  -0.632  0.00  0.00    -0.322 N 
ATOM     37  H   UNL     1       2.191  -0.513  -0.455  0.00  0.00    +0.169 HD
ATOM     38  C   UNL     1       0.711   0.844  -0.491  0.00  0.00    +0.251 A 
ATOM     39  O   UNL     1      -0.148   0.053  -0.142  0.00  0.00    -0.268 OA
ATOM     40  C   UNL     1       4.636  -0.604  -0.899  0.00  0.00    +0.046 C 
ATOM     41  C   UNL     1       6.689   1.241  -1.721  0.00  0.00    +0.044 C 
ENDBRANCH  27  28
ENDBRANCH   1  27
TORSDOF 9
