REMARK  Name = ZINC08236370
REMARK  6 active torsions:
REMARK  status: ('A' for Active; 'I' for Inactive)
REMARK    1  A    between atoms: C_1  and  C_2
REMARK    2  A    between atoms: C_2  and  C_30
REMARK    3  A    between atoms: C_6  and  C_17
REMARK    4  A    between atoms: C_20  and  C_23
REMARK    5  A    between atoms: C_23  and  O_25
REMARK    6  A    between atoms: O_25  and  C_26
REMARK                            x       y       z     vdW  Elec       q    Type
REMARK                         _______ _______ _______ _____ _____    ______ ____
ROOT
ATOM      1  C   UNL     1      -0.019   1.526   0.010  0.00  0.00    +0.011 C 
ATOM      2  C   UNL     1       0.002  -0.004   0.002  0.00  0.00    -0.023 C 
ATOM      3  C   UNL     1       0.740  -0.501  -1.242  0.00  0.00    +0.058 C 
ATOM      4  C   UNL     1       2.168  -0.014  -1.215  0.00  0.00    +0.017 C 
ATOM      5  C   UNL     1       2.815   0.179  -0.046  0.00  0.00    +0.024 C 
ATOM      6  C   UNL     1       4.246   0.652  -0.018  0.00  0.00    +0.090 C 
ATOM      7  C   UNL     1       4.644   1.257  -1.332  0.00  0.00    +0.042 A 
ATOM      8  C   UNL     1       5.782   2.074  -1.418  0.00  0.00    +0.126 A 
ATOM      9  N   UNL     1       6.126   2.601  -2.588  0.00  0.00    -0.208 NA
ATOM     10  C   UNL     1       5.408   2.367  -3.683  0.00  0.00    +0.180 A 
ATOM     11  S   UNL     1       5.890   3.066  -5.170  0.00  0.00    -0.011 S 
ATOM     12  N   UNL     1       4.310   1.589  -3.643  0.00  0.00    -0.322 N 
ATOM     13  C   UNL     1       3.914   1.024  -2.461  0.00  0.00    +0.110 A 
ATOM     14  N   UNL     1       2.793   0.233  -2.408  0.00  0.00    -0.304 N 
ATOM     15  N   UNL     1       6.538   2.329  -0.294  0.00  0.00    -0.343 N 
ATOM     16  C   UNL     1       2.173  -0.055   1.183  0.00  0.00    +0.162 C 
ATOM     17  O   UNL     1       2.785   0.119   2.218  0.00  0.00    -0.292 OA
ATOM     18  C   UNL     1       0.742  -0.516   1.242  0.00  0.00    +0.086 C 
ATOM     19  C   UNL     1      -1.432  -0.538   0.002  0.00  0.00    +0.011 C 
ATOM     20  H   UNL     1       2.440  -0.155  -3.223  0.00  0.00    +0.153 HD
ATOM     21  H   UNL     1       7.324   2.894  -0.356  0.00  0.00    +0.144 HD
ATOM     22  H   UNL     1       6.285   1.943   0.559  0.00  0.00    +0.144 HD
ATOM     23  H   UNL     1       3.800   1.429  -4.452  0.00  0.00    +0.169 HD
ENDROOT
BRANCH   6  24
ATOM     24  C   UNL     1       5.147  -0.518   0.279  0.00  0.00    -0.035 A 
ATOM     25  C   UNL     1       5.169  -1.605  -0.576  0.00  0.00    +0.005 A 
ATOM     26  C   UNL     1       5.992  -2.680  -0.310  0.00  0.00    +0.015 A 
ATOM     27  C   UNL     1       6.805  -2.668   0.825  0.00  0.00    +0.059 A 
ATOM     28  C   UNL     1       6.778  -1.568   1.684  0.00  0.00    +0.015 A 
ATOM     29  C   UNL     1       5.954  -0.497   1.403  0.00  0.00    +0.005 A 
BRANCH  27  30
ATOM     30  C   UNL     1       7.688  -3.816   1.117  0.00  0.00    +0.339 C 
ATOM     31  O   UNL     1       7.709  -4.772   0.368  0.00  0.00    -0.245 OA
BRANCH  30  32
ATOM     32  O   UNL     1       8.471  -3.802   2.213  0.00  0.00    -0.464 OA
ATOM     33  C   UNL     1       9.300  -4.944   2.433  0.00  0.00    +0.280 C 
ENDBRANCH  30  32
ENDBRANCH  27  30
ENDBRANCH   6  24
TORSDOF 3
