REMARK  Name = ZINC65458348
REMARK  7 active torsions:
REMARK  status: ('A' for Active; 'I' for Inactive)
REMARK    1  A    between atoms: C_1  and  C_2
REMARK    2  A    between atoms: C_2  and  N_3
REMARK    3  A    between atoms: N_3  and  C_4
REMARK    4  A    between atoms: C_4  and  C_5
REMARK    5  A    between atoms: C_9  and  N_12
REMARK    6  A    between atoms: N_15  and  C_16
REMARK    7  A    between atoms: N_15  and  C_17
REMARK                            x       y       z     vdW  Elec       q    Type
REMARK                         _______ _______ _______ _____ _____    ______ ____
ROOT
ATOM      1  N   UNL     1      -2.104  -1.436  -5.866  0.00  0.00    -0.268 N 
ATOM      2  C   UNL     1      -3.357  -1.931  -5.840  0.00  0.00    +0.307 C 
ATOM      3  O   UNL     1      -3.933  -2.072  -4.778  0.00  0.00    -0.252 OA
ATOM      4  N   UNL     1      -3.973  -2.270  -6.990  0.00  0.00    -0.284 N 
ATOM      5  C   UNL     1      -3.279  -2.100  -8.269  0.00  0.00    +0.134 C 
ATOM      6  H   UNL     1      -1.670  -1.260  -6.715  0.00  0.00    +0.156 HD
ENDROOT
BRANCH   1  11
ATOM      7  N   UNL     1       0.677  -0.449  -1.203  0.00  0.00    -0.317 N 
ATOM      8  C   UNL     1      -0.044  -0.691  -2.369  0.00  0.00    +0.099 A 
ATOM      9  C   UNL     1      -1.418  -0.471  -2.386  0.00  0.00    +0.043 A 
ATOM     10  C   UNL     1      -2.125  -0.715  -3.549  0.00  0.00    +0.028 A 
ATOM     11  C   UNL     1      -1.428  -1.175  -4.665  0.00  0.00    +0.051 A 
ATOM     12  C   UNL     1      -0.059  -1.372  -4.574  0.00  0.00    +0.107 A 
ATOM     13  N   UNL     1       0.585  -1.124  -3.450  0.00  0.00    -0.348 N 
ATOM     14  H   UNL     1       1.544  -1.266  -3.413  0.00  0.00    +0.167 HD
BRANCH   7  16
ATOM     15  C   UNL     1      -0.034   1.560  -0.001  0.00  0.00    +0.024 C 
ATOM     16  C   UNL     1      -0.012   0.030  -0.001  0.00  0.00    +0.103 C 
ENDBRANCH   7  16
BRANCH   7  17
ATOM     17  C   UNL     1       2.125  -0.672  -1.177  0.00  0.00    +0.103 C 
ATOM     18  C   UNL     1       2.411  -2.114  -0.750  0.00  0.00    +0.024 C 
ENDBRANCH   7  17
ENDBRANCH   1  11
BRANCH   4  19
ATOM     19  C   UNL     1      -5.335  -2.808  -6.961  0.00  0.00    +0.100 C 
ATOM     20  C   UNL     1      -5.356  -4.203  -7.608  0.00  0.00    +0.047 C 
ATOM     21  C   UNL     1      -6.817  -4.640  -7.873  0.00  0.00    +0.168 C 
ATOM     22  S   UNL     1      -7.684  -3.034  -8.098  0.00  0.00    -0.029 S 
ATOM     23  O   UNL     1      -8.652  -2.883  -7.069  0.00  0.00    -0.174 OA
ATOM     24  O   UNL     1      -8.083  -2.910  -9.457  0.00  0.00    -0.174 OA
ATOM     25  C   UNL     1      -6.282  -1.882  -7.777  0.00  0.00    +0.188 C 
ENDBRANCH   4  19
TORSDOF 4
