REMARK  Name = ZINC06805864
REMARK  5 active torsions:
REMARK  status: ('A' for Active; 'I' for Inactive)
REMARK    1  A    between atoms: C_1  and  C_2
REMARK    2  A    between atoms: N_12  and  C_13
REMARK    3  A    between atoms: C_13  and  C_14
REMARK    4  A    between atoms: N_16  and  C_17
REMARK    5  A    between atoms: C_22  and  C_23
REMARK                            x       y       z     vdW  Elec       q    Type
REMARK                         _______ _______ _______ _____ _____    ______ ____
ROOT
ATOM      1  C   UNL     1       1.895   8.056   0.538  0.00  0.00    +0.044 C 
ATOM      2  C   UNL     1       2.258   6.626   0.233  0.00  0.00    -0.050 A 
ATOM      3  C   UNL     1       3.569   6.292  -0.056  0.00  0.00    +0.007 A 
ATOM      4  C   UNL     1       3.919   4.987  -0.348  0.00  0.00    +0.046 A 
ATOM      5  C   UNL     1       2.953   3.993  -0.353  0.00  0.00    +0.130 A 
ATOM      6  C   UNL     1       1.625   4.336  -0.041  0.00  0.00    +0.042 A 
ATOM      7  C   UNL     1       1.280   5.648   0.241  0.00  0.00    +0.017 A 
ATOM      8  C   UNL     1       0.652   3.227  -0.008  0.00  0.00    +0.079 A 
ATOM      9  C   UNL     1       1.115   1.923  -0.010  0.00  0.00    +0.035 A 
ATOM     10  C   UNL     1       0.017   1.088   0.019  0.00  0.00    +0.142 A 
ATOM     11  N   UNL     1      -1.069   1.829   0.034  0.00  0.00    -0.178 NA
ATOM     12  N   UNL     1      -0.690   3.183   0.024  0.00  0.00    -0.254 N 
ATOM     13  C   UNL     1       2.591   1.624  -0.037  0.00  0.00    +0.268 C 
ATOM     14  O   UNL     1       3.279   2.713  -0.656  0.00  0.00    -0.487 OA
ENDROOT
BRANCH  12  15
ATOM     15  C   UNL     1      -1.594   4.336   0.041  0.00  0.00    +0.240 C 
BRANCH  15  16
ATOM     16  C   UNL     1      -1.963   4.664   1.464  0.00  0.00    +0.239 C 
ATOM     17  O   UNL     1      -1.515   4.001   2.375  0.00  0.00    -0.273 OA
ATOM     18  N   UNL     1      -2.791   5.695   1.725  0.00  0.00    -0.284 N 
ATOM     19  H   UNL     1      -3.195   6.190   0.995  0.00  0.00    +0.155 HD
BRANCH  18  20
ATOM     20  C   UNL     1      -3.068   6.053   3.049  0.00  0.00    +0.036 A 
ATOM     21  C   UNL     1      -2.964   5.107   4.061  0.00  0.00    +0.024 A 
ATOM     22  C   UNL     1      -3.238   5.462   5.367  0.00  0.00    +0.017 A 
ATOM     23  C   UNL     1      -3.616   6.759   5.668  0.00  0.00    +0.018 A 
ATOM     24  C   UNL     1      -3.720   7.703   4.662  0.00  0.00    +0.020 A 
ATOM     25  C   UNL     1      -3.442   7.354   3.355  0.00  0.00    -0.028 A 
ATOM     26  C   UNL     1      -3.549   8.385   2.260  0.00  0.00    +0.046 C 
ATOM     27 BR   UNL     1      -3.991   7.242   7.458  0.00  0.00    -0.050 Br
ENDBRANCH  18  20
ENDBRANCH  15  16
ENDBRANCH  12  15
TORSDOF 3
