REMARK  Name = ZINC50846893
REMARK  5 active torsions:
REMARK  status: ('A' for Active; 'I' for Inactive)
REMARK    1  A    between atoms: C_1  and  O_2
REMARK    2  A    between atoms: O_2  and  C_3
REMARK    3  A    between atoms: C_6  and  C_9
REMARK    4  A    between atoms: C_9  and  C_10
REMARK    5  A    between atoms: C_14  and  N_16
REMARK                            x       y       z     vdW  Elec       q    Type
REMARK                         _______ _______ _______ _____ _____    ______ ____
ROOT
ATOM      1  C   UNL     1       3.963  -2.719  -4.071  0.00  0.00    +0.136 A 
ATOM      2  N   UNL     1       4.830  -1.779  -4.380  0.00  0.00    -0.236 NA
ATOM      3  C   UNL     1       6.128  -1.924  -4.123  0.00  0.00    +0.050 A 
ATOM      4  C   UNL     1       6.562  -3.079  -3.521  0.00  0.00    +0.013 A 
ATOM      5  C   UNL     1       5.615  -4.062  -3.208  0.00  0.00    +0.123 A 
ATOM      6  N   UNL     1       4.336  -3.843  -3.492  0.00  0.00    -0.217 NA
ATOM      7  C   UNL     1       8.004  -3.329  -3.177  0.00  0.00    +0.040 C 
ATOM      8  C   UNL     1       8.911  -2.378  -3.956  0.00  0.00    +0.005 C 
ATOM      9  C   UNL     1       8.393  -0.947  -3.767  0.00  0.00    +0.006 C 
ATOM     10  C   UNL     1       7.064  -0.811  -4.510  0.00  0.00    +0.056 C 
ENDROOT
BRANCH   5  11
ATOM     11  N   UNL     1       6.007  -5.247  -2.605  0.00  0.00    -0.343 N 
ATOM     12  H   UNL     1       6.942  -5.399  -2.397  0.00  0.00    +0.144 HD
ATOM     13  H   UNL     1       5.346  -5.924  -2.391  0.00  0.00    +0.144 HD
ENDBRANCH   5  11
BRANCH   1  14
ATOM     14  C   UNL     1       2.505  -2.503  -4.381  0.00  0.00    +0.111 C 
BRANCH  14  18
ATOM     15  C   UNL     1       0.606  -0.607  -1.056  0.00  0.00    +0.120 A 
ATOM     16  C   UNL     1       1.173   0.161  -2.062  0.00  0.00    +0.046 A 
ATOM     17  C   UNL     1       1.786  -0.455  -3.136  0.00  0.00    +0.007 A 
ATOM     18  C   UNL     1       1.835  -1.835  -3.209  0.00  0.00    -0.040 A 
ATOM     19  C   UNL     1       1.270  -2.602  -2.207  0.00  0.00    +0.007 A 
ATOM     20  C   UNL     1       0.661  -1.992  -1.128  0.00  0.00    +0.046 A 
BRANCH  15  22
ATOM     21  C   UNL     1      -0.017   1.425   0.010  0.00  0.00    +0.277 C 
ATOM     22  O   UNL     1       0.002  -0.004   0.002  0.00  0.00    -0.495 OA
ENDBRANCH  15  22
ENDBRANCH  14  18
ENDBRANCH   1  14
TORSDOF 4
