REMARK  Name = ZINC42192635
REMARK  7 active torsions:
REMARK  status: ('A' for Active; 'I' for Inactive)
REMARK    1  A    between atoms: C_1  and  C_2
REMARK    2  A    between atoms: C_2  and  N_3
REMARK    3  A    between atoms: C_4  and  C_6
REMARK    4  A    between atoms: C_6  and  C_8
REMARK    5  A    between atoms: C_6  and  S_9
REMARK    6  A    between atoms: S_9  and  C_12
REMARK    7  A    between atoms: C_17  and  N_21
REMARK                            x       y       z     vdW  Elec       q    Type
REMARK                         _______ _______ _______ _____ _____    ______ ____
ROOT
ATOM      1  C   UNL     1      -4.724  -4.559  -0.514  0.00  0.00    +0.342 A 
ATOM      2  N   UNL     1      -5.572  -4.421  -1.488  0.00  0.00    -0.193 NA
ATOM      3  C   UNL     1      -6.781  -4.901  -1.089  0.00  0.00    +0.111 A 
ATOM      4  C   UNL     1      -8.029  -5.007  -1.707  0.00  0.00    +0.033 A 
ATOM      5  C   UNL     1      -9.082  -5.551  -1.028  0.00  0.00    +0.025 A 
ATOM      6  C   UNL     1      -8.922  -6.002   0.281  0.00  0.00    +0.028 A 
ATOM      7  C   UNL     1      -7.691  -5.905   0.908  0.00  0.00    +0.071 A 
ATOM      8  C   UNL     1      -6.615  -5.355   0.228  0.00  0.00    +0.159 A 
ATOM      9  O   UNL     1      -5.321  -5.129   0.545  0.00  0.00    -0.422 OA
ENDROOT
BRANCH   1  10
ATOM     10  S   UNL     1      -3.031  -4.075  -0.576  0.00  0.00    +0.059 S 
ATOM     11  O   UNL     1      -2.692  -4.118  -1.955  0.00  0.00    -0.164 OA
ATOM     12  O   UNL     1      -2.377  -4.923   0.358  0.00  0.00    -0.164 OA
BRANCH  10  13
ATOM     13  C   UNL     1      -3.014  -2.361   0.018  0.00  0.00    +0.223 C 
ATOM     14  C   UNL     1      -3.566  -2.310   1.444  0.00  0.00    +0.042 C 
BRANCH  13  16
ATOM     15  N   UNL     1      -1.372  -0.511   0.012  0.00  0.00    -0.314 N 
ATOM     16  C   UNL     1      -1.601  -1.839   0.007  0.00  0.00    +0.238 C 
ATOM     17  O   UNL     1      -0.668  -2.615  -0.006  0.00  0.00    -0.274 OA
ATOM     18  H   UNL     1      -2.118   0.109   0.023  0.00  0.00    +0.149 HD
BRANCH  15  20
ATOM     19  C   UNL     1      -0.019   1.526   0.010  0.00  0.00    +0.024 C 
ATOM     20  C   UNL     1       0.002  -0.004   0.002  0.00  0.00    +0.101 C 
ENDBRANCH  15  20
ENDBRANCH  13  16
ENDBRANCH  10  13
ENDBRANCH   1  10
BRANCH   6  21
ATOM     21  N   UNL     1     -10.009  -6.555   0.963  0.00  0.00    -0.358 N 
ATOM     22  H   UNL     1     -10.872  -6.624   0.526  0.00  0.00    +0.142 HD
ATOM     23  H   UNL     1      -9.900  -6.870   1.874  0.00  0.00    +0.142 HD
ENDBRANCH   6  21
TORSDOF 5
