REMARK  Name = ZINC63279970
REMARK  8 active torsions:
REMARK  status: ('A' for Active; 'I' for Inactive)
REMARK    1  A    between atoms: C_1  and  C_2
REMARK    2  A    between atoms: C_2  and  C_33
REMARK    3  A    between atoms: C_3  and  C_21
REMARK    4  A    between atoms: C_12  and  O_19
REMARK    5  A    between atoms: C_13  and  O_17
REMARK    6  A    between atoms: O_17  and  C_18
REMARK    7  A    between atoms: O_19  and  C_20
REMARK    8  A    between atoms: N_23  and  C_24
REMARK                            x       y       z     vdW  Elec       q    Type
REMARK                         _______ _______ _______ _____ _____    ______ ____
ROOT
ATOM      1  C   UNL     1      -0.019   1.526   0.010  0.00  0.00    +0.025 C 
ATOM      2  C   UNL     1       0.002  -0.004   0.002  0.00  0.00    +0.040 C 
ATOM      3  C   UNL     1       0.855  -0.541  -1.172  0.00  0.00    +0.179 C 
ATOM      4  N   UNL     1       2.107  -1.169  -0.743  0.00  0.00    -0.268 N 
ATOM      5  C   UNL     1       1.928  -1.905   0.542  0.00  0.00    +0.167 C 
ATOM      6  S   UNL     1       0.924  -0.661   1.460  0.00  0.00    -0.125 S 
ATOM      7  C   UNL     1       3.305  -2.028   1.129  0.00  0.00    -0.001 A 
ATOM      8  C   UNL     1       3.781  -2.375   2.371  0.00  0.00    +0.011 A 
ATOM      9  C   UNL     1       5.146  -2.417   2.608  0.00  0.00    +0.050 A 
ATOM     10  C   UNL     1       6.040  -2.109   1.597  0.00  0.00    +0.162 A 
ATOM     11  C   UNL     1       5.572  -1.748   0.337  0.00  0.00    +0.174 A 
ATOM     12  C   UNL     1       4.194  -1.698   0.098  0.00  0.00    +0.088 A 
ATOM     13  C   UNL     1       3.407  -1.308  -1.077  0.00  0.00    +0.252 C 
ATOM     14  O   UNL     1       3.862  -1.155  -2.195  0.00  0.00    -0.270 OA
ATOM     15  C   UNL     1      -1.419  -0.569  -0.048  0.00  0.00    +0.025 C 
ENDROOT
BRANCH   3  16
ATOM     16  C   UNL     1       1.184   0.605  -2.094  0.00  0.00    +0.238 C 
ATOM     17  O   UNL     1       2.271   1.140  -2.033  0.00  0.00    -0.274 OA
ATOM     18  N   UNL     1       0.270   1.036  -2.986  0.00  0.00    -0.277 N 
ATOM     19  H   UNL     1      -0.599   0.608  -3.035  0.00  0.00    +0.152 HD
BRANCH  18  20
ATOM     20  C   UNL     1       0.590   2.150  -3.882  0.00  0.00    +0.269 C 
ATOM     21  N   UNL     1       0.480   3.424  -3.161  0.00  0.00    -0.348 N 
ATOM     22  C   UNL     1      -0.435   4.133  -3.757  0.00  0.00    +0.061 A 
ATOM     23  C   UNL     1      -0.984   5.472  -3.505  0.00  0.00    +0.027 A 
ATOM     24  C   UNL     1      -1.950   5.957  -4.310  0.00  0.00    +0.002 A 
ATOM     25  C   UNL     1      -2.467   5.231  -5.398  0.00  0.00    +0.002 A 
ATOM     26  C   UNL     1      -2.035   3.994  -5.717  0.00  0.00    +0.027 A 
ATOM     27  C   UNL     1      -0.982   3.364  -4.909  0.00  0.00    +0.061 A 
ATOM     28  N   UNL     1      -0.383   2.210  -4.980  0.00  0.00    -0.348 N 
ATOM     29  H   UNL     1       0.994   3.690  -2.383  0.00  0.00    +0.163 HD
ATOM     30  H   UNL     1      -0.550   1.516  -5.637  0.00  0.00    +0.163 HD
ENDBRANCH  18  20
ENDBRANCH   3  16
BRANCH  11  31
ATOM     31  O   UNL     1       6.447  -1.446  -0.655  0.00  0.00    -0.491 OA
ATOM     32  C   UNL     1       6.884  -2.523  -1.486  0.00  0.00    +0.277 C 
ENDBRANCH  11  31
BRANCH  10  33
ATOM     33  O   UNL     1       7.378  -2.160   1.835  0.00  0.00    -0.491 OA
ATOM     34  C   UNL     1       7.789  -2.537   3.150  0.00  0.00    +0.277 C 
ENDBRANCH  10  33
TORSDOF 4
