REMARK  Name = ZINC35539197
REMARK  5 active torsions:
REMARK  status: ('A' for Active; 'I' for Inactive)
REMARK    1  A    between atoms: C_1  and  C_2
REMARK    2  A    between atoms: C_3  and  S_13
REMARK    3  A    between atoms: C_5  and  C_7
REMARK    4  A    between atoms: C_9  and  C_12
REMARK    5  A    between atoms: S_13  and  N_16
REMARK                            x       y       z     vdW  Elec       q    Type
REMARK                         _______ _______ _______ _____ _____    ______ ____
ROOT
ATOM      1  C   UNL     1      -0.018   1.503   0.010  0.00  0.00    +0.053 C 
ATOM      2  C   UNL     1       0.002  -0.004   0.002  0.00  0.00    +0.014 A 
ATOM      3  C   UNL     1      -1.043  -0.873   0.002  0.00  0.00    +0.123 A 
ATOM      4  C   UNL     1      -0.790  -2.225  -0.007  0.00  0.00    +0.048 A 
ATOM      5  C   UNL     1       0.511  -2.653  -0.015  0.00  0.00    +0.062 A 
ATOM      6  S   UNL     1       1.405  -1.107  -0.018  0.00  0.00    -0.088 S 
ENDROOT
BRANCH   5   7
ATOM      7  C   UNL     1       1.038  -4.033  -0.024  0.00  0.00    +0.209 A 
ATOM      8  N   UNL     1       2.340  -4.378  -0.026  0.00  0.00    -0.191 NA
ATOM      9  C   UNL     1       2.457  -5.675  -0.036  0.00  0.00    +0.225 A 
ATOM     10  O   UNL     1       1.231  -6.214  -0.040  0.00  0.00    -0.338 OA
ATOM     11  N   UNL     1       0.315  -5.129  -0.027  0.00  0.00    -0.056 NA
ATOM     12  C   UNL     1       3.755  -6.440  -0.041  0.00  0.00    +0.112 C 
ENDBRANCH   5   7
BRANCH   3  13
ATOM     13  S   UNL     1      -2.700  -0.274   0.013  0.00  0.00    +0.101 S 
ATOM     14  O   UNL     1      -2.783   0.712  -1.007  0.00  0.00    -0.146 OA
ATOM     15  O   UNL     1      -3.544  -1.417   0.037  0.00  0.00    -0.146 OA
BRANCH  13  16
ATOM     16  N   UNL     1      -2.927   0.512   1.452  0.00  0.00    -0.111 NA
ATOM     17  C   UNL     1      -4.092   1.063   1.725  0.00  0.00    +0.153 A 
ATOM     18  C   UNL     1      -4.289   1.741   2.951  0.00  0.00    +0.048 A 
ATOM     19  C   UNL     1      -5.498   2.302   3.213  0.00  0.00    +0.005 A 
ATOM     20  C   UNL     1      -6.532   2.201   2.266  0.00  0.00    +0.018 A 
ATOM     21  C   UNL     1      -6.330   1.551   1.101  0.00  0.00    +0.084 A 
ATOM     22  N   UNL     1      -5.122   0.987   0.819  0.00  0.00    -0.345 N 
ATOM     23  H   UNL     1      -4.990   0.526  -0.025  0.00  0.00    +0.167 HD
ENDBRANCH  13  16
ENDBRANCH   3  13
TORSDOF 3
