REMARK  Name = ZINC58445949
REMARK  3 active torsions:
REMARK  status: ('A' for Active; 'I' for Inactive)
REMARK    1  A    between atoms: C_1  and  C_2
REMARK    2  A    between atoms: C_5  and  N_8
REMARK    3  A    between atoms: C_13  and  C_15
REMARK                            x       y       z     vdW  Elec       q    Type
REMARK                         _______ _______ _______ _____ _____    ______ ____
ROOT
ATOM      1  N   UNL     1      -0.308  -4.226   0.080  0.00  0.00    -0.158 N 
ATOM      2  C   UNL     1       0.390  -4.803   1.079  0.00  0.00    +0.256 C 
ATOM      3  O   UNL     1       0.519  -4.234   2.143  0.00  0.00    -0.272 OA
ATOM      4  C   UNL     1       1.009  -6.163   0.863  0.00  0.00    +0.201 C 
ATOM      5  N   UNL     1       0.209  -6.875  -0.146  0.00  0.00    -0.315 N 
ATOM      6  C   UNL     1      -0.238  -6.157  -1.260  0.00  0.00    +0.200 C 
ATOM      7  N   UNL     1      -0.484  -4.883  -1.142  0.00  0.00    -0.152 NA
ATOM      8  H   UNL     1      -0.004  -7.815  -0.040  0.00  0.00    +0.148 HD
ENDROOT
BRANCH   6   9
ATOM      9  C   UNL     1      -0.432  -6.837  -2.553  0.00  0.00    +0.281 C 
ATOM     10  O   UNL     1      -0.853  -7.978  -2.583  0.00  0.00    -0.267 OA
ATOM     11  N   UNL     1      -0.144  -6.195  -3.702  0.00  0.00    -0.287 N 
ATOM     12  C   UNL     1       0.394  -4.822  -3.700  0.00  0.00    +0.136 C 
ATOM     13  C   UNL     1      -0.435  -3.964  -4.661  0.00  0.00    +0.179 C 
ATOM     14  O   UNL     1      -0.533  -4.615  -5.932  0.00  0.00    -0.373 OA
ATOM     15  C   UNL     1      -1.186  -5.881  -5.874  0.00  0.00    +0.139 C 
ATOM     16  C   UNL     1      -0.346  -6.835  -5.008  0.00  0.00    +0.105 C 
ATOM     17  C   UNL     1      -1.095  -8.158  -4.856  0.00  0.00    +0.025 C 
ATOM     18  C   UNL     1      -1.280  -8.785  -6.241  0.00  0.00    +0.002 C 
ATOM     19  C   UNL     1      -2.073  -7.837  -7.142  0.00  0.00    +0.003 C 
ATOM     20  C   UNL     1      -1.348  -6.489  -7.265  0.00  0.00    +0.033 C 
ENDBRANCH   6   9
BRANCH   1  25
ATOM     21  C   UNL     1      -2.575   0.917   0.852  0.00  0.00    +0.044 C 
ATOM     22  C   UNL     1      -1.973  -0.449   0.646  0.00  0.00    -0.050 A 
ATOM     23  C   UNL     1      -2.735  -1.464   0.095  0.00  0.00    +0.005 A 
ATOM     24  C   UNL     1      -2.186  -2.716  -0.094  0.00  0.00    +0.026 A 
ATOM     25  C   UNL     1      -0.867  -2.958   0.270  0.00  0.00    +0.060 A 
ATOM     26  C   UNL     1      -0.105  -1.936   0.823  0.00  0.00    +0.026 A 
ATOM     27  C   UNL     1      -0.658  -0.684   1.004  0.00  0.00    +0.005 A 
ENDBRANCH   1  25
TORSDOF 2
