REMARK  Name = ZINC13192617
REMARK  10 active torsions:
REMARK  status: ('A' for Active; 'I' for Inactive)
REMARK    1  A    between atoms: C_1  and  C_2
REMARK    2  A    between atoms: C_2  and  C_4
REMARK    3  A    between atoms: C_2  and  S_15
REMARK    4  A    between atoms: N_6  and  C_7
REMARK    5  A    between atoms: C_12  and  C_13
REMARK    6  A    between atoms: S_15  and  C_16
REMARK    7  A    between atoms: C_19  and  C_25
REMARK    8  A    between atoms: N_20  and  C_21
REMARK    9  A    between atoms: C_21  and  C_22
REMARK   10  A    between atoms: C_22  and  C_23
REMARK                            x       y       z     vdW  Elec       q    Type
REMARK                         _______ _______ _______ _____ _____    ______ ____
ROOT
ATOM      1  S   UNL     1       1.471  -2.264  -2.806  0.00  0.00    -0.074 S 
ENDROOT
BRANCH   1   2
ATOM      2  C   UNL     1       1.506  -2.767  -1.118  0.00  0.00    +0.193 A 
ATOM      3  N   UNL     1       1.530  -4.003  -0.674  0.00  0.00    -0.122 NA
ATOM      4  N   UNL     1       1.551  -4.011   0.611  0.00  0.00    -0.128 NA
ATOM      5  C   UNL     1       1.547  -2.778   1.068  0.00  0.00    +0.172 A 
ATOM      6  N   UNL     1       1.512  -1.943  -0.026  0.00  0.00    -0.301 N 
BRANCH   5   7
ATOM      7  C   UNL     1       1.573  -2.369   2.481  0.00  0.00    +0.056 A 
ATOM      8  C   UNL     1       1.326  -3.119   3.604  0.00  0.00    +0.019 A 
ATOM      9  C   UNL     1       1.415  -2.512   4.836  0.00  0.00    +0.008 A 
ATOM     10  C   UNL     1       1.731  -1.193   4.904  0.00  0.00    +0.046 A 
ATOM     11  S   UNL     1       1.924  -0.764   3.182  0.00  0.00    -0.094 S 
ENDBRANCH   5   7
BRANCH   6  12
ATOM     12  C   UNL     1       1.492  -0.478  -0.022  0.00  0.00    +0.137 C 
BRANCH  12  13
ATOM     13  C   UNL     1       0.043   0.012   0.003  0.00  0.00    +0.147 C 
BRANCH  13  14
ATOM     14  C   UNL     1       0.022   1.518   0.007  0.00  0.00    +0.358 C 
ATOM     15  O   UNL     1       1.060   2.137  -0.008  0.00  0.00    -0.246 OA
ATOM     16  O   UNL     1      -1.150   2.174   0.023  0.00  0.00    -0.246 OA
ENDBRANCH  13  14
ENDBRANCH  12  13
ENDBRANCH   6  12
ENDBRANCH   1   2
BRANCH   1  18
ATOM     17  C   UNL     1       0.189  -4.629  -3.279  0.00  0.00    +0.029 C 
ATOM     18  C   UNL     1       1.480  -3.882  -3.617  0.00  0.00    +0.137 C 
BRANCH  18  19
ATOM     19  C   UNL     1       1.577  -3.696  -5.109  0.00  0.00    +0.230 C 
ATOM     20  O   UNL     1       1.275  -2.633  -5.609  0.00  0.00    -0.274 OA
ATOM     21  N   UNL     1       2.000  -4.711  -5.889  0.00  0.00    -0.284 N 
ATOM     22  H   UNL     1       2.304  -5.539  -5.485  0.00  0.00    +0.155 HD
BRANCH  21  23
ATOM     23  C   UNL     1       2.001  -4.571  -7.276  0.00  0.00    +0.051 A 
ATOM     24  C   UNL     1       2.281  -3.340  -7.852  0.00  0.00    +0.024 A 
ATOM     25  C   UNL     1       2.286  -3.204  -9.226  0.00  0.00    +0.002 A 
ATOM     26  C   UNL     1       2.002  -4.289 -10.039  0.00  0.00    +0.001 A 
ATOM     27  C   UNL     1       1.716  -5.518  -9.484  0.00  0.00    +0.021 A 
ATOM     28  C   UNL     1       1.712  -5.672  -8.096  0.00  0.00    +0.073 A 
BRANCH  28  29
ATOM     29  C   UNL     1       1.416  -6.946  -7.513  0.00  0.00    +0.101 C 
ATOM     30  N   UNL     1       1.180  -7.956  -7.050  0.00  0.00    -0.191 NA
ENDBRANCH  28  29
ENDBRANCH  21  23
ENDBRANCH  18  19
ENDBRANCH   1  18
TORSDOF 9
