REMARK  Name = ZINC43407949
REMARK  4 active torsions:
REMARK  status: ('A' for Active; 'I' for Inactive)
REMARK    1  A    between atoms: C_3  and  O_8
REMARK    2  A    between atoms: O_8  and  C_9
REMARK    3  A    between atoms: C_10  and  C_18
REMARK    4  A    between atoms: N_19  and  O_20
REMARK                            x       y       z     vdW  Elec       q    Type
REMARK                         _______ _______ _______ _____ _____    ______ ____
ROOT
ATOM      1  C   UNL     1       4.749   1.378   0.163  0.00  0.00    +0.231 A 
ATOM      2  C   UNL     1       5.957   2.088   0.198  0.00  0.00    +0.080 A 
ATOM      3  C   UNL     1       7.154   1.370   0.239  0.00  0.00    +0.022 A 
ATOM      4  C   UNL     1       7.097  -0.015   0.243  0.00  0.00    -0.025 A 
ATOM      5  C   UNL     1       5.868  -0.648   0.207  0.00  0.00    +0.048 A 
ATOM      6  N   UNL     1       4.748   0.058   0.174  0.00  0.00    -0.217 NA
ATOM      7  C   UNL     1       6.070  -2.150   0.221  0.00  0.00    +0.056 C 
ATOM      8  C   UNL     1       7.547  -2.363  -0.174  0.00  0.00    +0.011 C 
ATOM      9  C   UNL     1       8.206  -1.044   0.281  0.00  0.00    +0.037 C 
ENDROOT
BRANCH   2  10
ATOM     10  C   UNL     1       5.964   3.566   0.191  0.00  0.00    +0.168 C 
ATOM     11  N   UNL     1       6.622   4.210  -0.729  0.00  0.00    -0.071 NA
ATOM     12  N   UNL     1       5.269   4.266   1.163  0.00  0.00    -0.340 N 
ATOM     13  H   UNL     1       4.778   3.787   1.849  0.00  0.00    +0.144 HD
ATOM     14  H   UNL     1       5.273   5.236   1.159  0.00  0.00    +0.144 HD
BRANCH  11  15
ATOM     15  O   UNL     1       7.389   3.496  -1.681  0.00  0.00    -0.408 OA
ATOM     16  H   UNL     1       7.842   4.059  -2.323  0.00  0.00    +0.328 HD
ENDBRANCH  11  15
ENDBRANCH   2  10
BRANCH   1  17
ATOM     17  O   UNL     1       3.573   2.051   0.123  0.00  0.00    -0.437 OA
BRANCH  17  20
ATOM     18  C   UNL     1       0.827   0.096   1.493  0.00  0.00    +0.005 A 
ATOM     19  C   UNL     1       1.998   0.827   1.419  0.00  0.00    +0.046 A 
ATOM     20  C   UNL     1       2.423   1.332   0.198  0.00  0.00    +0.131 A 
ATOM     21  C   UNL     1       1.671   1.101  -0.945  0.00  0.00    +0.061 A 
ATOM     22  C   UNL     1       0.502   0.370  -0.866  0.00  0.00    +0.021 A 
ATOM     23  C   UNL     1       0.080  -0.133   0.352  0.00  0.00    +0.015 A 
ATOM     24 BR   UNL     1      -0.523   0.055  -2.424  0.00  0.00    -0.050 Br
ENDBRANCH  17  20
ENDBRANCH   1  17
TORSDOF 4
