REMARK  Name = ZINC42304697
REMARK  3 active torsions:
REMARK  status: ('A' for Active; 'I' for Inactive)
REMARK    1  A    between atoms: C_6  and  O_7
REMARK    2  A    between atoms: O_7  and  C_8
REMARK    3  A    between atoms: C_13  and  O_15
REMARK                            x       y       z     vdW  Elec       q    Type
REMARK                         _______ _______ _______ _____ _____    ______ ____
ROOT
ATOM      1  C   UNL     1      -0.062   1.372  -0.380  0.00  0.00    +0.046 A 
ATOM      2  C   UNL     1       1.107   2.074  -0.583  0.00  0.00    +0.007 A 
ATOM      3  C   UNL     1       2.332   1.418  -0.600  0.00  0.00    -0.044 A 
ATOM      4  C   UNL     1       2.380   0.055  -0.409  0.00  0.00    -0.041 A 
ATOM      5  C   UNL     1       1.205  -0.655  -0.208  0.00  0.00    +0.049 A 
ATOM      6  C   UNL     1      -0.016  -0.002  -0.192  0.00  0.00    +0.121 A 
ATOM      7  C   UNL     1       3.674  -0.716  -0.399  0.00  0.00    +0.035 C 
ATOM      8  C   UNL     1       4.791   0.100  -1.046  0.00  0.00    +0.005 C 
ATOM      9  C   UNL     1       4.816   1.488  -0.396  0.00  0.00    +0.005 C 
ATOM     10  C   UNL     1       3.567   2.248  -0.835  0.00  0.00    +0.035 C 
ENDROOT
BRANCH   6  11
ATOM     11  O   UNL     1      -1.163  -0.703   0.006  0.00  0.00    -0.486 OA
BRANCH  11  12
ATOM     12  C   UNL     1      -2.371   0.051   0.130  0.00  0.00    +0.202 C 
ATOM     13  C   UNL     1      -3.014   0.275  -1.261  0.00  0.00    +0.047 C 
ATOM     14  C   UNL     1      -4.504   0.522  -0.913  0.00  0.00    +0.006 C 
ATOM     15  C   UNL     1      -4.787  -0.453   0.248  0.00  0.00    +0.035 C 
ATOM     16  C   UNL     1      -3.430  -0.751   0.914  0.00  0.00    +0.155 C 
BRANCH  16  17
ATOM     17  O   UNL     1      -3.449  -0.332   2.280  0.00  0.00    -0.388 OA
ATOM     18  H   UNL     1      -4.096  -0.799   2.827  0.00  0.00    +0.210 HD
ENDBRANCH  16  17
ENDBRANCH  11  12
ENDBRANCH   6  11
TORSDOF 3
