REMARK  Name = ZINC13252467
REMARK  10 active torsions:
REMARK  status: ('A' for Active; 'I' for Inactive)
REMARK    1  A    between atoms: C_1  and  C_2
REMARK    2  A    between atoms: C_2  and  C_3
REMARK    3  A    between atoms: C_3  and  N_4
REMARK    4  A    between atoms: N_4  and  C_5
REMARK    5  A    between atoms: N_4  and  S_17
REMARK    6  A    between atoms: C_5  and  C_6
REMARK    7  A    between atoms: S_17  and  C_20
REMARK    8  A    between atoms: C_22  and  C_28
REMARK    9  A    between atoms: C_24  and  C_27
REMARK   10  A    between atoms: C_25  and  C_26
REMARK                            x       y       z     vdW  Elec       q    Type
REMARK                         _______ _______ _______ _____ _____    ______ ____
ROOT
ATOM      1  N   UNL     1      -0.832   1.522  -1.288  0.00  0.00    -0.169 NA
ENDROOT
BRANCH   1   2
ATOM      2  S   UNL     1      -0.326   2.993  -1.857  0.00  0.00    +0.062 S 
ATOM      3  O   UNL     1      -1.457   3.605  -2.461  0.00  0.00    -0.153 OA
ATOM      4  O   UNL     1       0.401   3.608  -0.802  0.00  0.00    -0.153 OA
BRANCH   2   5
ATOM      5  C   UNL     1       0.829   2.682  -3.151  0.00  0.00    +0.109 A 
ATOM      6  C   UNL     1       0.527   3.050  -4.446  0.00  0.00    +0.044 A 
ATOM      7  C   UNL     1       1.443   2.804  -5.470  0.00  0.00    +0.065 A 
ATOM      8  C   UNL     1       2.660   2.185  -5.175  0.00  0.00    +0.018 A 
ATOM      9  C   UNL     1       2.949   1.822  -3.876  0.00  0.00    -0.045 A 
ATOM     10  C   UNL     1       2.038   2.075  -2.865  0.00  0.00    -0.021 A 
ATOM     11  C   UNL     1       2.363   1.680  -1.448  0.00  0.00    +0.046 C 
ATOM     12  C   UNL     1       4.262   1.155  -3.557  0.00  0.00    +0.044 C 
BRANCH   7  13
ATOM     13  C   UNL     1       1.127   3.196  -6.859  0.00  0.00    +0.387 C 
ATOM     14  O   UNL     1       0.068   3.734  -7.112  0.00  0.00    -0.241 OA
ATOM     15  O   UNL     1       2.014   2.957  -7.844  0.00  0.00    -0.241 OA
ENDBRANCH   7  13
ENDBRANCH   2   5
ENDBRANCH   1   2
BRANCH   1  16
ATOM     16  C   UNL     1      -1.871   0.778  -2.004  0.00  0.00    +0.109 C 
BRANCH  16  18
ATOM     17  C   UNL     1      -4.321   0.301  -2.126  0.00  0.00    +0.005 C 
ATOM     18  C   UNL     1      -3.235   1.078  -1.379  0.00  0.00    +0.014 C 
ENDBRANCH  16  18
ENDBRANCH   1  16
BRANCH   1  19
ATOM     19  C   UNL     1      -0.239   0.965  -0.070  0.00  0.00    +0.183 C 
BRANCH  19  20
ATOM     20  C   UNL     1      -1.079   1.353   1.120  0.00  0.00    +0.126 A 
ATOM     21  N   UNL     1      -0.691   0.928   2.351  0.00  0.00    -0.309 N 
ATOM     22  H   UNL     1       0.108   0.388   2.453  0.00  0.00    +0.170 HD
ATOM     23  C   UNL     1      -1.431   1.267   3.434  0.00  0.00    +0.266 A 
ATOM     24  O   UNL     1      -1.110   0.901   4.552  0.00  0.00    -0.267 OA
ATOM     25  C   UNL     1      -2.572   2.045   3.234  0.00  0.00    +0.102 A 
ATOM     26  C   UNL     1      -2.952   2.471   1.949  0.00  0.00    +0.085 A 
ATOM     27  N   UNL     1      -2.132   2.079   0.919  0.00  0.00    -0.232 NA
ATOM     28  C   UNL     1      -4.118   3.246   1.891  0.00  0.00    +0.036 A 
ATOM     29  C   UNL     1      -4.797   3.538   3.021  0.00  0.00    +0.048 A 
ATOM     30  S   UNL     1      -3.829   2.727   4.283  0.00  0.00    -0.090 S 
ENDBRANCH  19  20
ENDBRANCH   1  19
TORSDOF 7
