REMARK  Name = ZINC49554809
REMARK  10 active torsions:
REMARK  status: ('A' for Active; 'I' for Inactive)
REMARK    1  A    between atoms: C_1  and  C_2
REMARK    2  A    between atoms: C_2  and  C_4
REMARK    3  A    between atoms: C_2  and  N_9
REMARK    4  A    between atoms: C_4  and  C_5
REMARK    5  A    between atoms: C_5  and  N_6
REMARK    6  A    between atoms: N_6  and  C_7
REMARK    7  A    between atoms: N_6  and  C_8
REMARK    8  A    between atoms: N_9  and  S_10
REMARK    9  A    between atoms: S_10  and  C_13
REMARK   10  A    between atoms: C_14  and  N_21
REMARK                            x       y       z     vdW  Elec       q    Type
REMARK                         _______ _______ _______ _____ _____    ______ ____
ROOT
ATOM      1  S   UNL     1       3.300  -0.962  -1.192  0.00  0.00    +0.061 S 
ATOM      2  O   UNL     1       4.002  -1.535  -2.286  0.00  0.00    -0.153 OA
ATOM      3  O   UNL     1       3.847   0.083  -0.399  0.00  0.00    -0.153 OA
ENDROOT
BRANCH   1   4
ATOM      4  C   UNL     1       2.918  -2.283  -0.091  0.00  0.00    +0.140 A 
ATOM      5  C   UNL     1       2.784  -2.037   1.270  0.00  0.00    +0.053 A 
ATOM      6  C   UNL     1       2.483  -3.081   2.135  0.00  0.00    +0.040 A 
ATOM      7  C   UNL     1       2.317  -4.361   1.640  0.00  0.00    +0.021 A 
ATOM      8  C   UNL     1       2.451  -4.603   0.285  0.00  0.00    +0.032 A 
ATOM      9  C   UNL     1       2.746  -3.563  -0.580  0.00  0.00    +0.047 A 
ATOM     10 BR   UNL     1       2.920  -3.898  -2.433  0.00  0.00    -0.048 Br
ATOM     11 BR   UNL     1       1.906  -5.783   2.817  0.00  0.00    -0.050 Br
BRANCH   5  12
ATOM     12  N   UNL     1       2.953  -0.743   1.767  0.00  0.00    -0.356 N 
ATOM     13  H   UNL     1       2.785   0.022   1.195  0.00  0.00    +0.142 HD
ATOM     14  H   UNL     1       3.237  -0.609   2.685  0.00  0.00    +0.142 HD
ENDBRANCH   5  12
ENDBRANCH   1   4
BRANCH   1  15
ATOM     15  N   UNL     1       1.864  -0.396  -1.794  0.00  0.00    -0.187 NA
ATOM     16  H   UNL     1       1.667  -0.484  -2.740  0.00  0.00    +0.148 HD
BRANCH  15  18
ATOM     17  C   UNL     1       1.084   1.754  -0.930  0.00  0.00    +0.025 C 
ATOM     18  C   UNL     1       0.893   0.237  -0.899  0.00  0.00    +0.072 C 
BRANCH  18  19
ATOM     19  C   UNL     1      -0.525  -0.108  -1.359  0.00  0.00    +0.001 C 
BRANCH  19  20
ATOM     20  C   UNL     1      -0.758  -1.613  -1.210  0.00  0.00    -0.078 C 
BRANCH  20  21
ATOM     21  N   UNL     1      -2.119  -1.944  -1.652  0.00  0.00    +0.376 N 
ATOM     22  C   UNL     1      -2.302  -3.401  -1.622  0.00  0.00    -0.097 C 
ATOM     23  C   UNL     1      -3.093  -1.310  -0.754  0.00  0.00    -0.097 C 
ATOM     24  H   UNL     1      -2.259  -1.607  -2.593  0.00  0.00    -0.083 HD
ENDBRANCH  20  21
ENDBRANCH  19  20
ENDBRANCH  18  19
ENDBRANCH  15  18
ENDBRANCH   1  15
TORSDOF 7
