REMARK  Name = ZINC66636706
REMARK  7 active torsions:
REMARK  status: ('A' for Active; 'I' for Inactive)
REMARK    1  A    between atoms: C_1  and  C_2
REMARK    2  A    between atoms: C_2  and  N_3
REMARK    3  A    between atoms: C_4  and  C_9
REMARK    4  A    between atoms: C_9  and  N_10
REMARK    5  A    between atoms: C_11  and  C_13
REMARK    6  A    between atoms: C_13  and  N_14
REMARK    7  A    between atoms: C_22  and  C_26
REMARK                            x       y       z     vdW  Elec       q    Type
REMARK                         _______ _______ _______ _____ _____    ______ ____
ROOT
ATOM      1  N   UNL     1      -2.731  -1.025   3.468  0.00  0.00    -0.307 N 
ATOM      2  C   UNL     1      -2.543  -0.961   4.801  0.00  0.00    +0.231 C 
ATOM      3  O   UNL     1      -1.484  -0.572   5.246  0.00  0.00    -0.274 OA
ATOM      4  H   UNL     1      -3.578  -1.336   3.112  0.00  0.00    +0.149 HD
ENDROOT
BRANCH   1   5
ATOM      5  C   UNL     1      -1.656  -0.625   2.556  0.00  0.00    +0.180 C 
BRANCH   5   7
ATOM      6  N   UNL     1      -1.372  -0.511   0.012  0.00  0.00    -0.306 N 
ATOM      7  C   UNL     1      -2.118  -0.790   1.131  0.00  0.00    +0.149 A 
ATOM      8  N   UNL     1      -3.282  -1.218   0.762  0.00  0.00    -0.157 NA
ATOM      9  N   UNL     1      -3.319  -1.227  -0.639  0.00  0.00    -0.254 N 
ATOM     10  C   UNL     1      -2.123  -0.778  -1.075  0.00  0.00    +0.176 A 
ATOM     11  S   UNL     1      -1.646  -0.587  -2.708  0.00  0.00    -0.011 S 
ATOM     12  H   UNL     1      -4.067  -1.501  -1.193  0.00  0.00    +0.191 HD
BRANCH   6  14
ATOM     13  C   UNL     1      -0.019   1.526   0.010  0.00  0.00    +0.027 C 
ATOM     14  C   UNL     1       0.002  -0.004   0.002  0.00  0.00    +0.122 C 
ENDBRANCH   6  14
ENDBRANCH   5   7
ENDBRANCH   1   5
BRANCH   2  15
ATOM     15  C   UNL     1      -3.649  -1.372   5.738  0.00  0.00    +0.209 C 
BRANCH  15  16
ATOM     16  N   UNL     1      -3.200  -1.212   7.123  0.00  0.00    -0.256 N 
ATOM     17  C   UNL     1      -2.558  -2.266   7.790  0.00  0.00    +0.079 A 
ATOM     18  C   UNL     1      -2.052  -3.345   7.085  0.00  0.00    +0.027 A 
ATOM     19  C   UNL     1      -1.424  -4.375   7.763  0.00  0.00    +0.002 A 
ATOM     20  C   UNL     1      -1.300  -4.329   9.139  0.00  0.00    +0.004 A 
ATOM     21  C   UNL     1      -1.803  -3.253   9.848  0.00  0.00    +0.047 A 
ATOM     22  C   UNL     1      -2.433  -2.218   9.178  0.00  0.00    +0.143 A 
ATOM     23  O   UNL     1      -2.930  -1.151   9.858  0.00  0.00    -0.478 OA
ATOM     24  C   UNL     1      -2.893   0.112   9.190  0.00  0.00    +0.256 C 
ATOM     25  C   UNL     1      -3.392  -0.045   7.776  0.00  0.00    +0.261 C 
ATOM     26  O   UNL     1      -3.967   0.872   7.228  0.00  0.00    -0.271 OA
ATOM     27  C   UNL     1      -1.454   0.631   9.161  0.00  0.00    +0.062 C 
ENDBRANCH  15  16
ENDBRANCH   2  15
TORSDOF 5
