REMARK  Name = ZINC21629191
REMARK  9 active torsions:
REMARK  status: ('A' for Active; 'I' for Inactive)
REMARK    1  A    between atoms: C_1  and  C_2
REMARK    2  A    between atoms: C_2  and  O_3
REMARK    3  A    between atoms: O_3  and  C_4
REMARK    4  A    between atoms: C_9  and  N_10
REMARK    5  A    between atoms: C_11  and  C_13
REMARK    6  A    between atoms: C_13  and  N_14
REMARK    7  A    between atoms: N_18  and  C_22
REMARK    8  A    between atoms: C_22  and  C_23
REMARK    9  A    between atoms: C_28  and  C_29
REMARK                            x       y       z     vdW  Elec       q    Type
REMARK                         _______ _______ _______ _____ _____    ______ ____
ROOT
ATOM      1  N   UNL     1      -2.970   0.063   5.114  0.00  0.00    +0.445 N 
ATOM      2  C   UNL     1      -3.671   1.212   4.514  0.00  0.00    -0.041 C 
ATOM      3  C   UNL     1      -2.677   2.039   3.699  0.00  0.00    +0.002 C 
ATOM      4  C   UNL     1      -2.142   1.234   2.521  0.00  0.00    +0.106 C 
ATOM      5  N   UNL     1      -1.370   0.084   3.020  0.00  0.00    -0.189 NA
ATOM      6  S   UNL     1      -2.142  -0.948   4.079  0.00  0.00    +0.016 S 
ATOM      7  O   UNL     1      -3.115  -1.663   3.329  0.00  0.00    -0.173 OA
ATOM      8  O   UNL     1      -1.133  -1.591   4.844  0.00  0.00    -0.173 OA
ATOM      9  H   UNL     1      -3.418   0.551   5.993  0.00  0.00    -0.043 HD
ENDROOT
BRANCH   1  10
ATOM     10  C   UNL     1      -3.000  -0.180   6.559  0.00  0.00    +0.054 C 
BRANCH  10  12
ATOM     11  N   UNL     1      -1.755   0.563   8.563  0.00  0.00    -0.284 N 
ATOM     12  C   UNL     1      -1.918   0.628   7.227  0.00  0.00    +0.204 C 
ATOM     13  O   UNL     1      -1.193   1.338   6.562  0.00  0.00    -0.277 OA
ATOM     14  H   UNL     1      -2.470  -0.006   9.177  0.00  0.00    +0.155 HD
BRANCH  11  20
ATOM     15  C   UNL     1      -0.754   1.598  10.509  0.00  0.00    +0.142 A 
ATOM     16  C   UNL     1       0.315   2.247  11.105  0.00  0.00    +0.047 A 
ATOM     17  C   UNL     1       1.456   2.516  10.372  0.00  0.00    +0.004 A 
ATOM     18  C   UNL     1       1.533   2.140   9.043  0.00  0.00    +0.002 A 
ATOM     19  C   UNL     1       0.473   1.488   8.443  0.00  0.00    +0.027 A 
ATOM     20  C   UNL     1      -0.677   1.219   9.171  0.00  0.00    +0.076 A 
BRANCH  15  21
ATOM     21  O   UNL     1      -1.876   1.331  11.229  0.00  0.00    -0.490 OA
BRANCH  21  23
ATOM     22  C   UNL     1      -3.219   1.365  13.238  0.00  0.00    +0.048 C 
ATOM     23  C   UNL     1      -1.885   1.748  12.596  0.00  0.00    +0.226 C 
ENDBRANCH  21  23
ENDBRANCH  15  21
ENDBRANCH  11  20
ENDBRANCH  10  12
ENDBRANCH   1  10
BRANCH   5  24
ATOM     24  C   UNL     1       0.018  -0.141   2.610  0.00  0.00    +0.142 C 
BRANCH  24  25
ATOM     25  C   UNL     1       0.041  -0.800   1.255  0.00  0.00    -0.029 A 
ATOM     26  C   UNL     1      -1.139  -1.001   0.564  0.00  0.00    +0.005 A 
ATOM     27  C   UNL     1      -1.118  -1.606  -0.678  0.00  0.00    +0.000 A 
ATOM     28  C   UNL     1       0.084  -2.010  -1.230  0.00  0.00    +0.000 A 
ATOM     29  C   UNL     1       1.264  -1.804  -0.542  0.00  0.00    +0.003 A 
ATOM     30  C   UNL     1       1.242  -1.204   0.704  0.00  0.00    -0.046 A 
ATOM     31  C   UNL     1       2.529  -0.985   1.457  0.00  0.00    +0.044 C 
ENDBRANCH  24  25
ENDBRANCH   5  24
TORSDOF 7
