REMARK  Name = ZINC49421743
REMARK  10 active torsions:
REMARK  status: ('A' for Active; 'I' for Inactive)
REMARK    1  A    between atoms: C_1  and  C_2
REMARK    2  A    between atoms: C_5  and  C_8
REMARK    3  A    between atoms: C_10  and  C_13
REMARK    4  A    between atoms: C_14  and  C_36
REMARK    5  A    between atoms: N_20  and  C_23
REMARK    6  A    between atoms: C_23  and  C_24
REMARK    7  A    between atoms: N_26  and  C_27
REMARK    8  A    between atoms: C_28  and  C_35
REMARK    9  A    between atoms: C_30  and  C_34
REMARK   10  A    between atoms: C_32  and  C_33
REMARK                            x       y       z     vdW  Elec       q    Type
REMARK                         _______ _______ _______ _____ _____    ______ ____
ROOT
ATOM      1  C   UNL     1       2.437 -10.445  -1.317  0.00  0.00    +0.082 A 
ATOM      2  C   UNL     1       2.261 -11.639  -0.683  0.00  0.00    -0.017 A 
ATOM      3  C   UNL     1       1.633 -11.678   0.566  0.00  0.00    +0.076 A 
ATOM      4  C   UNL     1       1.217 -10.431   1.084  0.00  0.00    +0.116 A 
ATOM      5  S   UNL     1       1.721  -9.280  -0.170  0.00  0.00    -0.063 S 
ATOM      6  N   UNL     1       0.609 -10.329   2.259  0.00  0.00    -0.230 NA
ATOM      7  C   UNL     1       0.364 -11.377   2.996  0.00  0.00    +0.203 A 
ATOM      8  N   UNL     1       0.716 -12.627   2.604  0.00  0.00    -0.290 N 
ATOM      9  C   UNL     1       1.338 -12.843   1.429  0.00  0.00    +0.263 A 
ATOM     10  O   UNL     1       1.650 -13.970   1.085  0.00  0.00    -0.267 OA
ATOM     11  C   UNL     1       2.743 -12.914  -1.326  0.00  0.00    +0.046 C 
ENDROOT
BRANCH   1  14
ATOM     12  C   UNL     1       3.826  -9.133  -4.365  0.00  0.00    +0.202 A 
ATOM     13  N   UNL     1       3.212  -9.001  -3.181  0.00  0.00    -0.187 NA
ATOM     14  C   UNL     1       3.065 -10.183  -2.618  0.00  0.00    +0.266 A 
ATOM     15  O   UNL     1       3.590 -11.108  -3.443  0.00  0.00    -0.332 OA
ATOM     16  N   UNL     1       4.075 -10.403  -4.576  0.00  0.00    -0.056 NA
BRANCH  12  21
ATOM     17  C   UNL     1       5.138  -4.823  -7.954  0.00  0.00    +0.044 C 
ATOM     18  C   UNL     1       4.795  -5.951  -7.015  0.00  0.00    -0.050 A 
ATOM     19  C   UNL     1       5.114  -7.253  -7.356  0.00  0.00    +0.004 A 
ATOM     20  C   UNL     1       4.802  -8.289  -6.500  0.00  0.00    +0.012 A 
ATOM     21  C   UNL     1       4.165  -8.022  -5.290  0.00  0.00    +0.022 A 
ATOM     22  C   UNL     1       3.846  -6.709  -4.951  0.00  0.00    +0.012 A 
ATOM     23  C   UNL     1       4.168  -5.679  -5.812  0.00  0.00    +0.004 A 
ENDBRANCH  12  21
ENDBRANCH   1  14
BRANCH   8  24
ATOM     24  C   UNL     1       0.414 -13.764   3.477  0.00  0.00    +0.222 C 
BRANCH  24  25
ATOM     25  C   UNL     1      -0.949 -14.309   3.138  0.00  0.00    +0.237 C 
ATOM     26  O   UNL     1      -1.604 -13.798   2.255  0.00  0.00    -0.274 OA
ATOM     27  N   UNL     1      -1.440 -15.365   3.817  0.00  0.00    -0.284 N 
ATOM     28  H   UNL     1      -0.888 -15.820   4.472  0.00  0.00    +0.155 HD
BRANCH  27  29
ATOM     29  C   UNL     1      -2.746 -15.805   3.576  0.00  0.00    +0.039 A 
ATOM     30  C   UNL     1      -2.983 -17.133   3.243  0.00  0.00    -0.029 A 
ATOM     31  C   UNL     1      -4.273 -17.564   3.006  0.00  0.00    +0.008 A 
ATOM     32  C   UNL     1      -5.329 -16.676   3.099  0.00  0.00    -0.050 A 
ATOM     33  C   UNL     1      -5.097 -15.354   3.430  0.00  0.00    +0.008 A 
ATOM     34  C   UNL     1      -3.809 -14.917   3.675  0.00  0.00    -0.029 A 
ATOM     35  C   UNL     1      -3.558 -13.478   4.043  0.00  0.00    +0.045 C 
ATOM     36  C   UNL     1      -6.736 -17.150   2.840  0.00  0.00    +0.044 C 
ATOM     37  C   UNL     1      -1.833 -18.101   3.140  0.00  0.00    +0.045 C 
ENDBRANCH  27  29
ENDBRANCH  24  25
ENDBRANCH   8  24
TORSDOF 5
