REMARK  Name = ZINC02182650
REMARK  6 active torsions:
REMARK  status: ('A' for Active; 'I' for Inactive)
REMARK    1  A    between atoms: C_3  and  C_10
REMARK    2  A    between atoms: C_5  and  N_7
REMARK    3  A    between atoms: N_11  and  C_12
REMARK    4  A    between atoms: C_18  and  N_20
REMARK    5  A    between atoms: C_21  and  C_22
REMARK    6  A    between atoms: C_26  and  N_28
REMARK                            x       y       z     vdW  Elec       q    Type
REMARK                         _______ _______ _______ _____ _____    ______ ____
ROOT
ATOM      1  C   UNL     1       6.083  -0.730  -0.061  0.00  0.00    +0.101 C 
ATOM      2  C   UNL     1       6.867  -0.341  -1.315  0.00  0.00    +0.026 C 
ATOM      3  C   UNL     1       8.205  -1.084  -1.333  0.00  0.00    +0.002 C 
ATOM      4  C   UNL     1       9.013  -0.708  -0.089  0.00  0.00    +0.002 C 
ATOM      5  C   UNL     1       8.229  -1.098   1.165  0.00  0.00    +0.026 C 
ATOM      6  C   UNL     1       6.892  -0.355   1.183  0.00  0.00    +0.101 C 
ENDROOT
BRANCH   1   8
ATOM      7  C   UNL     1       3.694  -0.683  -0.037  0.00  0.00    +0.086 C 
ATOM      8  N   UNL     1       4.803  -0.019  -0.044  0.00  0.00    -0.385 N 
ATOM      9  H   UNL     1       4.785   1.081  -0.038  0.00  0.00    +0.159 HD
BRANCH   7  12
ATOM     10  C   UNL     1       1.168   2.094   0.002  0.00  0.00    +0.003 A 
ATOM     11  C   UNL     1       2.377   1.430  -0.013  0.00  0.00    +0.009 A 
ATOM     12  C   UNL     1       2.404   0.034  -0.021  0.00  0.00    -0.007 A 
ATOM     13  C   UNL     1       1.204  -0.681  -0.013  0.00  0.00    +0.042 A 
ATOM     14  C   UNL     1       0.002  -0.004   0.002  0.00  0.00    +0.127 A 
ATOM     15  C   UNL     1      -0.017   1.379   0.010  0.00  0.00    +0.033 A 
BRANCH  14  16
ATOM     16  N   UNL     1      -1.270  -0.760   0.011  0.00  0.00    +0.056 N 
ATOM     17  O   UNL     1      -2.333  -0.164   0.024  0.00  0.00    -0.126 OA
ATOM     18  O   UNL     1      -1.256  -1.978   0.004  0.00  0.00    -0.126 OA
ENDBRANCH  14  16
ENDBRANCH   7  12
ENDBRANCH   1   8
BRANCH   6  19
ATOM     19  N   UNL     1       6.141  -0.728   2.384  0.00  0.00    -0.385 N 
ATOM     20  C   UNL     1       5.805   0.178   3.244  0.00  0.00    +0.086 C 
ATOM     21  H   UNL     1       5.863  -1.779   2.555  0.00  0.00    +0.159 HD
BRANCH  20  22
ATOM     22  C   UNL     1       5.048  -0.198   4.455  0.00  0.00    -0.007 A 
ATOM     23  C   UNL     1       4.689  -1.530   4.672  0.00  0.00    +0.009 A 
ATOM     24  C   UNL     1       3.987  -1.875   5.808  0.00  0.00    +0.003 A 
ATOM     25  C   UNL     1       3.630  -0.904   6.726  0.00  0.00    +0.033 A 
ATOM     26  C   UNL     1       3.977   0.418   6.514  0.00  0.00    +0.127 A 
ATOM     27  C   UNL     1       4.684   0.777   5.385  0.00  0.00    +0.042 A 
BRANCH  26  28
ATOM     28  N   UNL     1       3.590   1.451   7.502  0.00  0.00    +0.056 N 
ATOM     29  O   UNL     1       3.896   2.615   7.317  0.00  0.00    -0.126 OA
ATOM     30  O   UNL     1       2.966   1.136   8.499  0.00  0.00    -0.126 OA
ENDBRANCH  26  28
ENDBRANCH  20  22
ENDBRANCH   6  19
TORSDOF 6
