REMARK  Name = ZINC39513633
REMARK  7 active torsions:
REMARK  status: ('A' for Active; 'I' for Inactive)
REMARK    1  A    between atoms: C_4  and  O_7
REMARK    2  A    between atoms: O_7  and  S_8
REMARK    3  A    between atoms: S_8  and  C_11
REMARK    4  A    between atoms: N_16  and  C_32
REMARK    5  A    between atoms: C_20  and  S_23
REMARK    6  A    between atoms: S_23  and  C_26
REMARK    7  A    between atoms: C_37  and  O_38
REMARK                            x       y       z     vdW  Elec       q    Type
REMARK                         _______ _______ _______ _____ _____    ______ ____
ROOT
ATOM      1  C   UNL     1       2.887  -2.275   1.742  0.00  0.00    +0.195 C 
ATOM      2  C   UNL     1       1.442  -1.804   1.554  0.00  0.00    +0.033 C 
ATOM      3  C   UNL     1       0.483  -2.925   1.960  0.00  0.00    +0.021 C 
ATOM      4  C   UNL     1       0.683  -3.257   3.442  0.00  0.00    +0.106 C 
ATOM      5  N   UNL     1       2.101  -3.578   3.665  0.00  0.00    -0.319 N 
ATOM      6  C   UNL     1       3.117  -2.632   3.206  0.00  0.00    +0.062 C 
ATOM      7  C   UNL     1       4.526  -3.231   3.394  0.00  0.00    +0.030 C 
ATOM      8  C   UNL     1       4.818  -2.953   4.891  0.00  0.00    +0.029 C 
ATOM      9  C   UNL     1       4.194  -1.565   5.149  0.00  0.00    +0.138 C 
ATOM     10  C   UNL     1       3.105  -1.367   4.078  0.00  0.00    +0.054 C 
ENDROOT
BRANCH   5  11
ATOM     11  C   UNL     1       2.472  -4.767   4.304  0.00  0.00    +0.072 A 
ATOM     12  C   UNL     1       3.237  -5.709   3.631  0.00  0.00    +0.027 A 
ATOM     13  C   UNL     1       3.602  -6.882   4.265  0.00  0.00    +0.002 A 
ATOM     14  C   UNL     1       3.206  -7.120   5.568  0.00  0.00    +0.004 A 
ATOM     15  C   UNL     1       2.443  -6.186   6.244  0.00  0.00    +0.047 A 
ATOM     16  C   UNL     1       2.078  -5.006   5.619  0.00  0.00    +0.138 A 
BRANCH  16  17
ATOM     17  O   UNL     1       1.332  -4.084   6.285  0.00  0.00    -0.505 OA
ATOM     18  H   UNL     1       0.379  -4.249   6.250  0.00  0.00    +0.292 HD
ENDBRANCH  16  17
ENDBRANCH   5  11
BRANCH   1  19
ATOM     19  S   UNL     1       4.024  -0.947   1.257  0.00  0.00    +0.126 S 
ATOM     20  O   UNL     1       5.370  -1.391   1.366  0.00  0.00    -0.136 OA
ATOM     21  O   UNL     1       3.618   0.283   1.842  0.00  0.00    -0.136 OA
BRANCH  19  22
ATOM     22  O   UNL     1       3.795  -0.761  -0.236  0.00  0.00    -0.346 OA
BRANCH  22  26
ATOM     23  C   UNL     1       5.363  -3.786  -2.563  0.00  0.00    +0.000 A 
ATOM     24  C   UNL     1       4.091  -3.910  -2.034  0.00  0.00    +0.004 A 
ATOM     25  C   UNL     1       3.564  -2.899  -1.255  0.00  0.00    +0.048 A 
ATOM     26  C   UNL     1       4.312  -1.758  -1.002  0.00  0.00    +0.156 A 
ATOM     27  C   UNL     1       5.588  -1.636  -1.533  0.00  0.00    +0.048 A 
ATOM     28  C   UNL     1       6.110  -2.650  -2.312  0.00  0.00    +0.004 A 
ENDBRANCH  22  26
ENDBRANCH  19  22
ENDBRANCH   1  19
BRANCH   9  29
ATOM     29  S   UNL     1       3.455  -1.514   6.805  0.00  0.00    -0.000 S 
ATOM     30  O   UNL     1       2.813  -0.264   7.016  0.00  0.00    -0.169 OA
ATOM     31  O   UNL     1       2.776  -2.733   7.075  0.00  0.00    -0.169 OA
BRANCH  29  32
ATOM     32  C   UNL     1       4.825  -1.508   7.912  0.00  0.00    +0.088 A 
ATOM     33  C   UNL     1       5.349  -2.703   8.371  0.00  0.00    +0.027 A 
ATOM     34  C   UNL     1       6.424  -2.698   9.240  0.00  0.00    +0.002 A 
ATOM     35  C   UNL     1       6.976  -1.499   9.650  0.00  0.00    +0.000 A 
ATOM     36  C   UNL     1       6.454  -0.304   9.190  0.00  0.00    +0.002 A 
ATOM     37  C   UNL     1       5.381  -0.309   8.318  0.00  0.00    +0.027 A 
ENDBRANCH  29  32
ENDBRANCH   9  29
TORSDOF 7
