REMARK  Name = ZINC62533114
REMARK  4 active torsions:
REMARK  status: ('A' for Active; 'I' for Inactive)
REMARK    1  A    between atoms: C_1  and  C_2
REMARK    2  A    between atoms: C_3  and  N_17
REMARK    3  A    between atoms: C_6  and  C_9
REMARK    4  A    between atoms: C_13  and  C_16
REMARK                            x       y       z     vdW  Elec       q    Type
REMARK                         _______ _______ _______ _____ _____    ______ ____
ROOT
ATOM      1  C   UNL     1      -0.018   1.503   0.010  0.00  0.00    +0.047 C 
ATOM      2  C   UNL     1       0.002  -0.004   0.002  0.00  0.00    -0.008 A 
ATOM      3  C   UNL     1       0.006  -0.690  -1.206  0.00  0.00    +0.073 A 
ATOM      4  C   UNL     1       0.024  -2.080  -1.210  0.00  0.00    +0.164 A 
ATOM      5  C   UNL     1       0.039  -2.776  -0.005  0.00  0.00    +0.082 A 
ATOM      6  C   UNL     1       0.035  -2.084   1.197  0.00  0.00    -0.007 A 
ATOM      7  C   UNL     1       0.023  -0.700   1.197  0.00  0.00    +0.051 A 
ATOM      8 CL   UNL     1       0.026   0.165   2.702  0.00  0.00    -0.083 Cl
ATOM      9  C   UNL     1       0.051  -2.838   2.501  0.00  0.00    +0.047 C 
ATOM     10  N   UNL     1       0.056  -4.178  -0.023  0.00  0.00    -0.279 N 
ATOM     11  C   UNL     1       0.374  -4.814  -1.172  0.00  0.00    +0.258 C 
ATOM     12  O   UNL     1       0.366  -6.026  -1.218  0.00  0.00    -0.271 OA
ATOM     13  C   UNL     1       0.739  -4.012  -2.395  0.00  0.00    +0.256 C 
ATOM     14  O   UNL     1       0.030  -2.770  -2.383  0.00  0.00    -0.476 OA
ATOM     15  C   UNL     1       0.364  -4.800  -3.651  0.00  0.00    +0.062 C 
ATOM     16  H   UNL     1      -0.157  -4.684   0.777  0.00  0.00    +0.155 HD
ENDROOT
BRANCH   3  17
ATOM     17  N   UNL     1      -0.010   0.015  -2.414  0.00  0.00    -0.355 N 
ATOM     18  H   UNL     1      -0.023   0.985  -2.410  0.00  0.00    +0.142 HD
ATOM     19  H   UNL     1      -0.007  -0.466  -3.257  0.00  0.00    +0.142 HD
ENDBRANCH   3  17
TORSDOF 1
