REMARK  Name = ZINC64703812
REMARK  16 active torsions:
REMARK  status: ('A' for Active; 'I' for Inactive)
REMARK    1  A    between atoms: C_1  and  C_2
REMARK    2  A    between atoms: C_2  and  C_3
REMARK    3  A    between atoms: C_6  and  C_9
REMARK    4  A    between atoms: C_10  and  N_33
REMARK    5  A    between atoms: N_17  and  C_18
REMARK    6  A    between atoms: N_17  and  C_19
REMARK    7  A    between atoms: C_19  and  C_20
REMARK    8  A    between atoms: N_22  and  C_23
REMARK    9  A    between atoms: C_23  and  C_24
REMARK   10  A    between atoms: C_24  and  C_25
REMARK   11  A    between atoms: C_25  and  C_27
REMARK   12  A    between atoms: C_25  and  N_28
REMARK   13  A    between atoms: N_33  and  C_34
REMARK   14  A    between atoms: C_34  and  C_35
REMARK   15  A    between atoms: C_34  and  C_36
REMARK   16  A    between atoms: C_34  and  C_37
REMARK                            x       y       z     vdW  Elec       q    Type
REMARK                         _______ _______ _______ _____ _____    ______ ____
ROOT
ATOM      1  C   UNL     1      -6.729  -2.085   0.254  0.00  0.00    +0.114 A 
ATOM      2  C   UNL     1      -7.675  -1.718  -0.656  0.00  0.00    +0.150 A 
ATOM      3  N   UNL     1      -8.852  -2.373  -0.324  0.00  0.00    -0.190 N 
ATOM      4  C   UNL     1      -8.551  -3.116   0.790  0.00  0.00    +0.199 A 
ATOM      5  N   UNL     1      -7.307  -2.952   1.127  0.00  0.00    -0.218 NA
ATOM      6  S   UNL     1     -10.098  -3.915   1.147  0.00  0.00    -0.013 S 
ATOM      7  C   UNL     1     -11.043  -3.217  -0.198  0.00  0.00    +0.184 A 
ATOM      8  N   UNL     1     -10.159  -2.463  -0.793  0.00  0.00    -0.140 NA
ATOM      9  N   UNL     1     -12.373  -3.424  -0.526  0.00  0.00    -0.302 N 
ATOM     10  C   UNL     1     -12.955  -2.743  -1.686  0.00  0.00    +0.132 C 
ENDROOT
BRANCH   1  14
ATOM     11  C   UNL     1      -2.689  -0.770   0.336  0.00  0.00    -0.048 A 
ATOM     12  C   UNL     1      -3.360  -1.009   1.522  0.00  0.00    +0.004 A 
ATOM     13  C   UNL     1      -4.672  -1.436   1.502  0.00  0.00    +0.010 A 
ATOM     14  C   UNL     1      -5.322  -1.627   0.283  0.00  0.00    +0.004 A 
ATOM     15  C   UNL     1      -4.640  -1.384  -0.910  0.00  0.00    +0.010 A 
ATOM     16  C   UNL     1      -3.330  -0.952  -0.876  0.00  0.00    +0.004 A 
BRANCH  11  18
ATOM     17  C   UNL     1      -1.219   1.226   0.406  0.00  0.00    +0.009 C 
ATOM     18  C   UNL     1      -1.257  -0.303   0.365  0.00  0.00    +0.032 C 
ENDBRANCH  11  18
ENDBRANCH   1  14
BRANCH   2  19
ATOM     19  N   UNL     1      -7.493  -0.841  -1.728  0.00  0.00    -0.323 N 
ATOM     20  H   UNL     1      -6.657  -0.359  -1.823  0.00  0.00    +0.148 HD
BRANCH  19  21
ATOM     21  C   UNL     1      -8.564  -0.650  -2.708  0.00  0.00    +0.025 C 
ATOM     22  C   UNL     1      -9.776  -0.015  -2.023  0.00  0.00    +0.031 C 
ATOM     23  C   UNL     1      -8.073   0.270  -3.829  0.00  0.00    +0.031 C 
ATOM     24  C   UNL     1      -8.964  -2.004  -3.298  0.00  0.00    +0.031 C 
ENDBRANCH  19  21
ENDBRANCH   2  19
BRANCH   9  25
ATOM     25  C   UNL     1     -13.197  -4.323   0.285  0.00  0.00    +0.202 C 
BRANCH  25  26
ATOM     26  C   UNL     1     -13.854  -3.539   1.393  0.00  0.00    +0.230 C 
ATOM     27  O   UNL     1     -13.653  -2.348   1.494  0.00  0.00    -0.274 OA
ATOM     28  N   UNL     1     -14.664  -4.163   2.271  0.00  0.00    -0.314 N 
ATOM     29  H   UNL     1     -14.824  -5.116   2.190  0.00  0.00    +0.149 HD
BRANCH  28  30
ATOM     30  C   UNL     1     -15.302  -3.402   3.347  0.00  0.00    +0.102 C 
BRANCH  30  31
ATOM     31  C   UNL     1     -16.163  -4.340   4.195  0.00  0.00    +0.003 C 
BRANCH  31  32
ATOM     32  C   UNL     1     -16.913  -3.528   5.252  0.00  0.00    -0.070 C 
ATOM     33  C   UNL     1     -17.908  -2.591   4.564  0.00  0.00    -0.013 C 
BRANCH  32  34
ATOM     34  N   UNL     1     -17.639  -4.441   6.147  0.00  0.00    +0.381 N 
ATOM     35  C   UNL     1     -16.688  -5.366   6.814  0.00  0.00    -0.079 C 
ATOM     36  C   UNL     1     -17.468  -5.830   8.070  0.00  0.00    -0.020 C 
ATOM     37  C   UNL     1     -18.222  -4.551   8.501  0.00  0.00    -0.020 C 
ATOM     38  C   UNL     1     -18.290  -3.678   7.234  0.00  0.00    -0.079 C 
ATOM     39  H   UNL     1     -18.328  -4.964   5.627  0.00  0.00    -0.081 HD
ENDBRANCH  32  34
ENDBRANCH  31  32
ENDBRANCH  30  31
ENDBRANCH  28  30
ENDBRANCH  25  26
ENDBRANCH   9  25
TORSDOF 10
