REMARK  Name = ZINC21597929
REMARK  9 active torsions:
REMARK  status: ('A' for Active; 'I' for Inactive)
REMARK    1  A    between atoms: C_1  and  C_2
REMARK    2  A    between atoms: C_2  and  C_3
REMARK    3  A    between atoms: C_3  and  C_5
REMARK    4  A    between atoms: C_3  and  N_6
REMARK    5  A    between atoms: C_7  and  C_9
REMARK    6  A    between atoms: C_14  and  N_15
REMARK    7  A    between atoms: C_16  and  C_18
REMARK    8  A    between atoms: C_22  and  C_32
REMARK    9  A    between atoms: N_23  and  C_25
REMARK                            x       y       z     vdW  Elec       q    Type
REMARK                         _______ _______ _______ _____ _____    ______ ____
ROOT
ATOM      1  N   UNL     1       5.698   1.459   0.493  0.00  0.00    -0.279 N 
ATOM      2  C   UNL     1       5.656   2.745   0.895  0.00  0.00    +0.272 C 
ATOM      3  O   UNL     1       6.647   3.266   1.369  0.00  0.00    -0.268 OA
ATOM      4  H   UNL     1       4.829   1.013  -0.013  0.00  0.00    +0.155 HD
ENDROOT
BRANCH   2   5
ATOM      5  C   UNL     1       4.407   3.520   0.760  0.00  0.00    +0.193 A 
ATOM      6  C   UNL     1       4.346   4.925   1.195  0.00  0.00    +0.213 A 
ATOM      7  O   UNL     1       5.318   5.485   1.677  0.00  0.00    -0.285 OA
ATOM      8  C   UNL     1       3.109   5.601   1.031  0.00  0.00    +0.076 A 
ATOM      9  C   UNL     1       2.078   4.910   0.489  0.00  0.00    +0.044 A 
ATOM     10  N   UNL     1       2.228   3.615   0.117  0.00  0.00    -0.235 N 
ATOM     11  N   UNL     1       3.325   2.967   0.253  0.00  0.00    -0.158 NA
ATOM     12  C   UNL     1       0.747   5.590   0.297  0.00  0.00    +0.066 C 
BRANCH  10  13
ATOM     13  C   UNL     1       1.128   2.951  -0.437  0.00  0.00    +0.084 A 
ATOM     14  C   UNL     1      -0.057   2.849   0.281  0.00  0.00    +0.029 A 
ATOM     15  C   UNL     1      -1.141   2.193  -0.269  0.00  0.00    +0.002 A 
ATOM     16  C   UNL     1      -1.046   1.635  -1.531  0.00  0.00    +0.002 A 
ATOM     17  C   UNL     1       0.129   1.739  -2.251  0.00  0.00    +0.022 A 
ATOM     18  C   UNL     1       1.218   2.394  -1.707  0.00  0.00    +0.066 A 
ATOM     19 CL   UNL     1       2.696   2.520  -2.609  0.00  0.00    -0.081 Cl
ENDBRANCH  10  13
ENDBRANCH   2   5
BRANCH   1  25
ATOM     20  C   UNL     1       6.728  -0.627   1.168  0.00  0.00    +0.058 A 
ATOM     21  C   UNL     1       7.882  -1.383   1.384  0.00  0.00    +0.015 A 
ATOM     22  C   UNL     1       9.122  -0.823   1.163  0.00  0.00    +0.001 A 
ATOM     23  C   UNL     1       9.230   0.487   0.723  0.00  0.00    +0.002 A 
ATOM     24  C   UNL     1       8.098   1.244   0.500  0.00  0.00    +0.024 A 
ATOM     25  C   UNL     1       6.840   0.697   0.717  0.00  0.00    +0.046 A 
BRANCH  20  27
ATOM     26  N   UNL     1       5.295  -2.466   1.905  0.00  0.00    -0.309 N 
ATOM     27  C   UNL     1       5.398  -1.218   1.408  0.00  0.00    +0.246 C 
ATOM     28  O   UNL     1       4.394  -0.579   1.157  0.00  0.00    -0.270 OA
ATOM     29  H   UNL     1       6.203  -3.045   2.132  0.00  0.00    +0.149 HD
BRANCH  26  30
ATOM     30  C   UNL     1       3.974  -3.054   2.143  0.00  0.00    +0.070 C 
ATOM     31  C   UNL     1       3.456  -3.684   0.849  0.00  0.00    +0.028 C 
BRANCH  30  33
ATOM     32  C   UNL     1       4.481  -3.478   4.553  0.00  0.00    +0.005 C 
ATOM     33  C   UNL     1       4.082  -4.129   3.227  0.00  0.00    +0.018 C 
ENDBRANCH  30  33
ENDBRANCH  26  30
ENDBRANCH  20  27
ENDBRANCH   1  25
TORSDOF 6
