REMARK  Name = ZINC49095882
REMARK  7 active torsions:
REMARK  status: ('A' for Active; 'I' for Inactive)
REMARK    1  A    between atoms: C_1  and  C_2
REMARK    2  A    between atoms: C_4  and  N_20
REMARK    3  A    between atoms: C_6  and  S_9
REMARK    4  A    between atoms: C_7  and  C_8
REMARK    5  A    between atoms: S_9  and  N_12
REMARK    6  A    between atoms: C_15  and  C_19
REMARK    7  A    between atoms: C_16  and  C_18
REMARK                            x       y       z     vdW  Elec       q    Type
REMARK                         _______ _______ _______ _____ _____    ______ ____
ROOT
ATOM      1  S   UNL     1       0.056  -2.967   2.717  0.00  0.00    +0.101 S 
ATOM      2  O   UNL     1      -0.974  -2.410   3.523  0.00  0.00    -0.146 OA
ATOM      3  O   UNL     1       0.100  -4.348   2.386  0.00  0.00    -0.146 OA
ENDROOT
BRANCH   1   4
ATOM      4  N   UNL     1       1.488  -2.615   3.470  0.00  0.00    -0.103 NA
ATOM      5  C   UNL     1       1.764  -3.146   4.635  0.00  0.00    +0.192 A 
ATOM      6  N   UNL     1       1.016  -4.015   5.399  0.00  0.00    -0.336 N 
ATOM      7  C   UNL     1       1.522  -4.433   6.594  0.00  0.00    +0.025 A 
ATOM      8  C   UNL     1       2.716  -4.003   7.004  0.00  0.00    +0.009 A 
ATOM      9  S   UNL     1       3.215  -2.942   5.658  0.00  0.00    -0.053 S 
ATOM     10  C   UNL     1       3.456  -4.334   8.274  0.00  0.00    +0.053 C 
ATOM     11  C   UNL     1       0.730  -5.384   7.454  0.00  0.00    +0.064 C 
ATOM     12  H   UNL     1       0.148  -4.322   5.093  0.00  0.00    +0.168 HD
ENDBRANCH   1   4
BRANCH   1  18
ATOM     13  C   UNL     1      -0.018   1.503   0.010  0.00  0.00    +0.044 C 
ATOM     14  C   UNL     1       0.002  -0.004   0.002  0.00  0.00    -0.044 A 
ATOM     15  C   UNL     1       0.006  -0.687  -1.198  0.00  0.00    +0.026 A 
ATOM     16  C   UNL     1       0.025  -2.076  -1.205  0.00  0.00    +0.027 A 
ATOM     17  C   UNL     1       0.041  -2.773  -0.004  0.00  0.00    +0.052 A 
ATOM     18  C   UNL     1       0.037  -2.084   1.193  0.00  0.00    +0.117 A 
ATOM     19  C   UNL     1       0.023  -0.701   1.196  0.00  0.00    -0.021 A 
ATOM     20  C   UNL     1       0.025   0.048   2.504  0.00  0.00    +0.046 C 
BRANCH  16  21
ATOM     21  N   UNL     1       0.028  -2.770  -2.417  0.00  0.00    -0.358 N 
ATOM     22  H   UNL     1       0.017  -2.282  -3.256  0.00  0.00    +0.142 HD
ATOM     23  H   UNL     1       0.042  -3.740  -2.421  0.00  0.00    +0.142 HD
ENDBRANCH  16  21
ENDBRANCH   1  18
TORSDOF 3
