REMARK  Name = ZINC25540237
REMARK  8 active torsions:
REMARK  status: ('A' for Active; 'I' for Inactive)
REMARK    1  A    between atoms: C_1  and  N_2
REMARK    2  A    between atoms: N_7  and  C_10
REMARK    3  A    between atoms: N_11  and  C_24
REMARK    4  A    between atoms: N_14  and  N_15
REMARK    5  A    between atoms: C_16  and  C_17
REMARK    6  A    between atoms: C_21  and  O_23
REMARK    7  A    between atoms: C_24  and  C_25
REMARK    8  A    between atoms: C_25  and  C_26
REMARK                            x       y       z     vdW  Elec       q    Type
REMARK                         _______ _______ _______ _____ _____    ______ ____
ROOT
ATOM      1  C   UNL     1      -6.651   7.045   0.102  0.00  0.00    +0.155 C 
ATOM      2  N   UNL     1      -5.963   8.338   0.102  0.00  0.00    -0.280 N 
ATOM      3  C   UNL     1      -4.578   8.385   0.089  0.00  0.00    +0.170 A 
ATOM      4  C   UNL     1      -3.950   9.627   0.089  0.00  0.00    +0.153 A 
ATOM      5  C   UNL     1      -4.735  10.793   0.103  0.00  0.00    +0.282 A 
ATOM      6  O   UNL     1      -4.207  11.891   0.104  0.00  0.00    -0.265 OA
ATOM      7  N   UNL     1      -6.080  10.684   0.115  0.00  0.00    -0.262 N 
ATOM      8  C   UNL     1      -6.676   9.479   0.114  0.00  0.00    +0.333 A 
ATOM      9  O   UNL     1      -7.891   9.419   0.125  0.00  0.00    -0.246 OA
ATOM     10  C   UNL     1      -6.902  11.896   0.128  0.00  0.00    +0.157 C 
ATOM     11  N   UNL     1      -2.585   9.374   0.076  0.00  0.00    -0.305 N 
ATOM     12  C   UNL     1      -2.437   8.023   0.068  0.00  0.00    +0.218 A 
ATOM     13  N   UNL     1      -3.625   7.452   0.070  0.00  0.00    -0.195 NA
ATOM     14  N   UNL     1      -1.234   7.354   0.052  0.00  0.00    -0.206 N 
ATOM     15  H   UNL     1      -0.290   7.920   0.046  0.00  0.00    +0.177 HD
ENDROOT
BRANCH  14  16
ATOM     16  N   UNL     1      -1.210   5.953   0.045  0.00  0.00    -0.188 NA
ATOM     17  C   UNL     1      -0.076   5.323   0.031  0.00  0.00    +0.138 C 
BRANCH  17  18
ATOM     18  C   UNL     1      -0.051   3.849   0.023  0.00  0.00    -0.002 A 
ATOM     19  C   UNL     1      -1.248   3.127   0.031  0.00  0.00    +0.010 A 
ATOM     20  C   UNL     1      -1.221   1.748   0.017  0.00  0.00    +0.004 A 
ATOM     21  C   UNL     1      -0.013   1.076   0.008  0.00  0.00    +0.045 A 
ATOM     22  C   UNL     1       1.182   1.784   0.000  0.00  0.00    +0.117 A 
ATOM     23  C   UNL     1       1.167   3.168   0.008  0.00  0.00    +0.054 A 
BRANCH  22  24
ATOM     24  O   UNL     1       2.366   1.117  -0.015  0.00  0.00    -0.507 OA
ATOM     25  H   UNL     1       3.313   1.677  -0.021  0.00  0.00    +0.292 HD
ENDBRANCH  22  24
ENDBRANCH  17  18
ENDBRANCH  14  16
BRANCH  11  26
ATOM     26  C   UNL     1      -1.512  10.372   0.071  0.00  0.00    +0.130 C 
BRANCH  26  27
ATOM     27  C   UNL     1      -1.152  10.726  -1.374  0.00  0.00    +0.057 C 
BRANCH  27  28
ATOM     28  C   UNL     1      -0.048  11.752  -1.379  0.00  0.00    -0.046 A 
ATOM     29  C   UNL     1      -0.356  13.099  -1.375  0.00  0.00    +0.004 A 
ATOM     30  C   UNL     1       0.656  14.040  -1.375  0.00  0.00    +0.000 A 
ATOM     31  C   UNL     1       1.978  13.634  -1.389  0.00  0.00    +0.000 A 
ATOM     32  C   UNL     1       2.286  12.286  -1.398  0.00  0.00    +0.000 A 
ATOM     33  C   UNL     1       1.273  11.345  -1.393  0.00  0.00    +0.004 A 
ENDBRANCH  27  28
ENDBRANCH  26  27
ENDBRANCH  11  26
TORSDOF 6
