REMARK  Name = ZINC11328423
REMARK  13 active torsions:
REMARK  status: ('A' for Active; 'I' for Inactive)
REMARK    1  A    between atoms: C_1  and  C_2
REMARK    2  A    between atoms: C_7  and  C_37
REMARK    3  A    between atoms: C_10  and  C_12
REMARK    4  A    between atoms: C_12  and  O_13
REMARK    5  A    between atoms: O_13  and  C_14
REMARK    6  A    between atoms: C_17  and  C_20
REMARK    7  A    between atoms: C_20  and  O_22
REMARK    8  A    between atoms: O_22  and  C_23
REMARK    9  A    between atoms: C_23  and  C_24
REMARK   10  A    between atoms: C_27  and  C_35
REMARK   11  A    between atoms: C_27  and  C_36
REMARK   12  A    between atoms: C_32  and  C_33
REMARK   13  A    between atoms: C_32  and  C_34
REMARK                            x       y       z     vdW  Elec       q    Type
REMARK                         _______ _______ _______ _____ _____    ______ ____
ROOT
ATOM      1  C   UNL     1       7.446  -2.612   6.068  0.00  0.00    +0.121 A 
ATOM      2  C   UNL     1       6.740  -2.246   7.208  0.00  0.00    +0.046 A 
ATOM      3  C   UNL     1       5.480  -1.704   7.096  0.00  0.00    +0.018 A 
ATOM      4  C   UNL     1       4.910  -1.522   5.832  0.00  0.00    +0.059 A 
ATOM      5  C   UNL     1       5.621  -1.896   4.688  0.00  0.00    +0.018 A 
ATOM      6  C   UNL     1       6.884  -2.432   4.810  0.00  0.00    +0.046 A 
ENDROOT
BRANCH   4   7
ATOM      7  C   UNL     1       3.560  -0.942   5.707  0.00  0.00    +0.340 C 
ATOM      8  O   UNL     1       2.941  -0.622   6.702  0.00  0.00    -0.245 OA
BRANCH   7   9
ATOM      9  O   UNL     1       3.013  -0.767   4.488  0.00  0.00    -0.452 OA
BRANCH   9  10
ATOM     10  C   UNL     1       1.681  -0.191   4.440  0.00  0.00    +0.328 C 
BRANCH  10  11
ATOM     11  C   UNL     1       1.236  -0.071   3.005  0.00  0.00    +0.254 C 
ATOM     12  O   UNL     1       2.030  -0.256   2.107  0.00  0.00    -0.272 OA
ATOM     13  N   UNL     1      -0.043   0.241   2.720  0.00  0.00    -0.287 N 
ATOM     14  C   UNL     1      -0.877   0.934   3.710  0.00  0.00    +0.039 C 
ATOM     15  C   UNL     1      -1.391   2.242   3.095  0.00  0.00    +0.099 C 
ATOM     16  C   UNL     1      -1.977   1.933   1.735  0.00  0.00    +0.137 C 
ATOM     17  O   UNL     1      -3.097   2.284   1.450  0.00  0.00    -0.297 OA
ATOM     18  C   UNL     1      -1.127   1.173   0.740  0.00  0.00    +0.099 C 
ATOM     19  C   UNL     1      -0.620  -0.108   1.415  0.00  0.00    +0.039 C 
ATOM     20  C   UNL     1       0.452  -0.759   0.538  0.00  0.00    +0.032 C 
ATOM     21  C   UNL     1      -1.783  -1.082   1.612  0.00  0.00    +0.032 C 
ATOM     22  C   UNL     1      -2.063   0.046   4.093  0.00  0.00    +0.032 C 
ATOM     23  C   UNL     1      -0.045   1.242   4.956  0.00  0.00    +0.032 C 
ENDBRANCH  10  11
ENDBRANCH   9  10
ENDBRANCH   7   9
ENDBRANCH   4   7
BRANCH   1  24
ATOM     24  O   UNL     1       8.688  -3.147   6.184  0.00  0.00    -0.483 OA
BRANCH  24  25
ATOM     25  C   UNL     1       9.358  -3.500   4.972  0.00  0.00    +0.324 C 
BRANCH  25  33
ATOM     26  C   UNL     1      10.920  -5.622   2.221  0.00  0.00    +0.028 C 
ATOM     27  C   UNL     1      11.156  -4.269   2.896  0.00  0.00    +0.073 C 
ATOM     28  C   UNL     1      12.305  -3.532   2.191  0.00  0.00    +0.022 C 
ATOM     29  C   UNL     1      13.604  -4.317   2.387  0.00  0.00    +0.004 C 
ATOM     30  C   UNL     1      13.931  -4.402   3.880  0.00  0.00    +0.022 C 
ATOM     31  C   UNL     1      12.803  -5.145   4.604  0.00  0.00    +0.073 C 
ATOM     32  N   UNL     1      11.528  -4.479   4.302  0.00  0.00    -0.293 N 
ATOM     33  C   UNL     1      10.713  -4.073   5.296  0.00  0.00    +0.254 C 
ATOM     34  O   UNL     1      11.071  -4.169   6.450  0.00  0.00    -0.272 OA
ATOM     35  C   UNL     1      13.054  -5.113   6.112  0.00  0.00    +0.028 C 
ENDBRANCH  25  33
ENDBRANCH  24  25
ENDBRANCH   1  24
TORSDOF 7
