REMARK  Name = ZINC64277624
REMARK  5 active torsions:
REMARK  status: ('A' for Active; 'I' for Inactive)
REMARK    1  A    between atoms: C_1  and  C_2
REMARK    2  A    between atoms: C_8  and  C_14
REMARK    3  A    between atoms: C_14  and  S_15
REMARK    4  A    between atoms: S_15  and  C_16
REMARK    5  A    between atoms: C_22  and  N_26
REMARK                            x       y       z     vdW  Elec       q    Type
REMARK                         _______ _______ _______ _____ _____    ______ ____
ROOT
ATOM      1  C   UNL     1      -2.667  -3.014   6.277  0.00  0.00    +0.235 C 
ATOM      2  N   UNL     1      -3.828  -2.961   5.380  0.00  0.00    -0.355 N 
ATOM      3  C   UNL     1      -4.468  -1.856   5.634  0.00  0.00    +0.061 A 
ATOM      4  C   UNL     1      -5.686  -1.256   5.073  0.00  0.00    +0.029 A 
ATOM      5  C   UNL     1      -6.122  -0.071   5.546  0.00  0.00    +0.035 A 
ATOM      6  C   UNL     1      -5.455   0.629   6.568  0.00  0.00    +0.128 A 
ATOM      7  C   UNL     1      -4.330   0.168   7.151  0.00  0.00    +0.060 A 
ATOM      8  C   UNL     1      -3.762  -1.115   6.715  0.00  0.00    +0.063 A 
ATOM      9  N   UNL     1      -2.713  -1.792   7.089  0.00  0.00    -0.355 N 
ATOM     10  H   UNL     1      -2.080  -1.536   7.778  0.00  0.00    +0.162 HD
ATOM     11  H   UNL     1      -4.074  -3.628   4.719  0.00  0.00    +0.162 HD
ENDROOT
BRANCH   6  12
ATOM     12  N   UNL     1      -6.010   1.924   7.021  0.00  0.00    +0.056 N 
ATOM     13  O   UNL     1      -7.018   2.360   6.515  0.00  0.00    -0.126 OA
ATOM     14  O   UNL     1      -5.457   2.546   7.898  0.00  0.00    -0.126 OA
ENDBRANCH   6  12
BRANCH   1  15
ATOM     15  S   UNL     1      -1.134  -3.059   5.308  0.00  0.00    -0.113 S 
BRANCH  15  16
ATOM     16  C   UNL     1      -1.209  -1.555   4.297  0.00  0.00    +0.102 C 
BRANCH  16  24
ATOM     17  C   UNL     1      -0.018   1.503   0.010  0.00  0.00    +0.061 C 
ATOM     18  C   UNL     1       0.002  -0.004   0.002  0.00  0.00    +0.010 C 
ATOM     19  C   UNL     1       0.005  -0.662  -1.175  0.00  0.00    +0.019 C 
ATOM     20  C   UNL     1       0.025  -2.068  -1.195  0.00  0.00    +0.005 C 
ATOM     21  C   UNL     1       0.040  -2.758  -0.028  0.00  0.00    +0.043 C 
ATOM     22  C   UNL     1       0.036  -2.053   1.209  0.00  0.00    +0.122 C 
ATOM     23  N   UNL     1       0.050  -2.549   2.429  0.00  0.00    -0.262 NA
ATOM     24  C   UNL     1       0.041  -1.467   3.419  0.00  0.00    +0.149 C 
ATOM     25  C   UNL     1       0.019  -0.182   2.571  0.00  0.00    +0.172 C 
ATOM     26  N   UNL     1       0.022  -0.683   1.185  0.00  0.00    -0.274 N 
ATOM     27 BR   UNL     1       1.621   0.903   2.917  0.00  0.00    -0.065 Br
ENDBRANCH  16  24
ENDBRANCH  15  16
ENDBRANCH   1  15
TORSDOF 4
