REMARK  Name = ZINC66462766
REMARK  6 active torsions:
REMARK  status: ('A' for Active; 'I' for Inactive)
REMARK    1  A    between atoms: C_1  and  C_2
REMARK    2  A    between atoms: C_9  and  N_12
REMARK    3  A    between atoms: C_13  and  C_15
REMARK    4  A    between atoms: C_15  and  N_16
REMARK    5  A    between atoms: C_19  and  C_23
REMARK    6  A    between atoms: C_19  and  C_24
REMARK                            x       y       z     vdW  Elec       q    Type
REMARK                         _______ _______ _______ _____ _____    ______ ____
ROOT
ATOM      1  N   UNL     1       0.045  -1.961   3.623  0.00  0.00    -0.282 N 
ATOM      2  C   UNL     1      -0.042  -2.620   4.795  0.00  0.00    +0.235 C 
ATOM      3  O   UNL     1      -0.025  -3.833   4.811  0.00  0.00    -0.274 OA
ATOM      4  H   UNL     1       0.112  -0.993   3.615  0.00  0.00    +0.155 HD
ENDROOT
BRANCH   1  13
ATOM      5  C   UNL     1       2.399   0.969   0.317  0.00  0.00    +0.065 C 
ATOM      6  C   UNL     1       1.762  -0.394   0.226  0.00  0.00    +0.039 A 
ATOM      7  C   UNL     1       1.776  -1.069  -0.992  0.00  0.00    +0.023 A 
ATOM      8  C   UNL     1       1.203  -2.305  -1.093  0.00  0.00    +0.012 A 
ATOM      9  C   UNL     1       0.611  -2.859   0.058  0.00  0.00    +0.002 A 
ATOM     10  C   UNL     1       0.004  -4.125   0.029  0.00  0.00    +0.010 A 
ATOM     11  C   UNL     1      -0.560  -4.633   1.159  0.00  0.00    +0.003 A 
ATOM     12  C   UNL     1      -0.546  -3.916   2.352  0.00  0.00    +0.025 A 
ATOM     13  C   UNL     1       0.039  -2.671   2.420  0.00  0.00    +0.060 A 
ATOM     14  C   UNL     1       0.633  -2.118   1.264  0.00  0.00    +0.092 A 
ATOM     15  N   UNL     1       1.214  -0.915   1.297  0.00  0.00    -0.250 NA
ENDBRANCH   1  13
BRANCH   2  16
ATOM     16  C   UNL     1      -0.161  -1.851   6.086  0.00  0.00    +0.214 C 
BRANCH  16  17
ATOM     17  N   UNL     1      -0.240  -2.789   7.208  0.00  0.00    -0.215 N 
ATOM     18  C   UNL     1      -1.391  -3.295   7.692  0.00  0.00    +0.247 C 
ATOM     19  O   UNL     1      -2.515  -3.068   7.297  0.00  0.00    -0.273 OA
ATOM     20  C   UNL     1      -0.990  -4.207   8.834  0.00  0.00    +0.113 C 
ATOM     21  N   UNL     1       0.479  -4.099   8.864  0.00  0.00    -0.285 N 
ATOM     22  C   UNL     1       0.823  -3.254   7.875  0.00  0.00    +0.310 C 
ATOM     23  O   UNL     1       1.970  -2.944   7.619  0.00  0.00    -0.252 OA
ATOM     24  C   UNL     1      -1.592  -3.717  10.152  0.00  0.00    +0.042 C 
ATOM     25  H   UNL     1       1.081  -4.552   9.475  0.00  0.00    +0.151 HD
BRANCH  20  26
ATOM     26  C   UNL     1      -1.418  -5.648   8.549  0.00  0.00    +0.021 C 
ATOM     27  C   UNL     1      -2.610  -6.200   9.333  0.00  0.00    +0.006 C 
ATOM     28  C   UNL     1      -1.194  -6.684   9.652  0.00  0.00    +0.006 C 
ENDBRANCH  20  26
ENDBRANCH  16  17
ENDBRANCH   2  16
TORSDOF 4
