REMARK  Name = ZINC38696253
REMARK  2 active torsions:
REMARK  status: ('A' for Active; 'I' for Inactive)
REMARK    1  A    between atoms: C_4  and  C_16
REMARK    2  A    between atoms: N_17  and  N_18
REMARK                            x       y       z     vdW  Elec       q    Type
REMARK                         _______ _______ _______ _____ _____    ______ ____
ROOT
ATOM      1  C   UNL     1       2.868   4.995  -1.242  0.00  0.00    +0.120 C 
ATOM      2  N   UNL     1       3.046   6.255  -1.104  0.00  0.00    -0.193 NA
ENDROOT
BRANCH   1   6
ATOM      3  C   UNL     1       0.444   1.258   0.299  0.00  0.00    +0.059 A 
ATOM      4  C   UNL     1       1.684   2.014   0.114  0.00  0.00    -0.003 A 
ATOM      5  C   UNL     1       1.680   3.374   0.147  0.00  0.00    +0.001 C 
ATOM      6  C   UNL     1       3.006   4.080  -0.053  0.00  0.00    +0.141 C 
ATOM      7  C   UNL     1       4.228   3.216  -0.274  0.00  0.00    +0.229 C 
ATOM      8  O   UNL     1       5.318   3.730  -0.439  0.00  0.00    -0.274 OA
ATOM      9  N   UNL     1       4.106   1.900  -0.285  0.00  0.00    -0.284 N 
ATOM     10  C   UNL     1       2.939   1.274  -0.110  0.00  0.00    +0.044 A 
ATOM     11  C   UNL     1       2.887  -0.125  -0.137  0.00  0.00    +0.073 A 
ATOM     12  C   UNL     1       1.693  -0.791   0.042  0.00  0.00    +0.168 A 
ATOM     13  C   UNL     1       0.481  -0.100   0.258  0.00  0.00    +0.167 A 
ATOM     14  O   UNL     1      -0.521  -1.020   0.396  0.00  0.00    -0.453 OA
ATOM     15  C   UNL     1       0.006  -2.244  -0.147  0.00  0.00    +0.466 C 
ATOM     16  O   UNL     1       1.427  -2.129   0.052  0.00  0.00    -0.453 OA
ATOM     17  H   UNL     1       4.902   1.364  -0.428  0.00  0.00    +0.155 HD
ENDBRANCH   1   6
BRANCH   2  18
ATOM     18  N   UNL     1       2.917   7.106  -2.210  0.00  0.00    -0.221 N 
ATOM     19  C   UNL     1       3.109   8.468  -2.060  0.00  0.00    +0.150 A 
ATOM     20  C   UNL     1       2.654   9.374  -3.058  0.00  0.00    +0.052 A 
ATOM     21  C   UNL     1       1.964   9.082  -4.316  0.00  0.00    -0.025 A 
ATOM     22  C   UNL     1       1.636  10.134  -5.093  0.00  0.00    -0.004 A 
ATOM     23  S   UNL     1       2.217  11.559  -4.211  0.00  0.00    -0.073 S 
ATOM     24  C   UNL     1       2.903  10.737  -2.797  0.00  0.00    +0.114 A 
ATOM     25  N   UNL     1       3.521  11.127  -1.699  0.00  0.00    -0.228 NA
ATOM     26  C   UNL     1       3.921  10.239  -0.809  0.00  0.00    +0.224 A 
ATOM     27  N   UNL     1       3.714   8.946  -0.985  0.00  0.00    -0.219 NA
ATOM     28  C   UNL     1       0.933  10.102  -6.415  0.00  0.00    +0.043 C 
ATOM     29  C   UNL     1       0.965   8.662  -6.946  0.00  0.00    +0.005 C 
ATOM     30  C   UNL     1       0.535   7.715  -5.821  0.00  0.00    +0.005 C 
ATOM     31  C   UNL     1       1.621   7.658  -4.747  0.00  0.00    +0.037 C 
ATOM     32  H   UNL     1       2.693   6.740  -3.080  0.00  0.00    +0.176 HD
ENDBRANCH   2  18
TORSDOF 2
