REMARK  Name = ZINC23263600
REMARK  5 active torsions:
REMARK  status: ('A' for Active; 'I' for Inactive)
REMARK    1  A    between atoms: C_1  and  C_2
REMARK    2  A    between atoms: N_5  and  C_9
REMARK    3  A    between atoms: C_9  and  C_11
REMARK    4  A    between atoms: C_9  and  C_12
REMARK    5  A    between atoms: N_22  and  C_23
REMARK                            x       y       z     vdW  Elec       q    Type
REMARK                         _______ _______ _______ _____ _____    ______ ____
ROOT
ATOM      1  C   UNL     1       2.385   4.257   0.308  0.00  0.00    +0.134 A 
ATOM      2  N   UNL     1       2.534   5.506   0.628  0.00  0.00    -0.232 NA
ATOM      3  C   UNL     1       1.473   6.344   0.739  0.00  0.00    +0.078 A 
ATOM      4  C   UNL     1       1.634   7.686   1.090  0.00  0.00    +0.028 A 
ATOM      5  C   UNL     1       0.529   8.501   1.191  0.00  0.00    +0.002 A 
ATOM      6  C   UNL     1      -0.746   8.005   0.949  0.00  0.00    +0.001 A 
ATOM      7  C   UNL     1      -0.930   6.684   0.602  0.00  0.00    +0.015 A 
ATOM      8  C   UNL     1       0.175   5.843   0.494  0.00  0.00    +0.065 A 
ATOM      9  C   UNL     1       0.040   4.425   0.128  0.00  0.00    +0.266 A 
ATOM     10  O   UNL     1      -1.049   3.932  -0.097  0.00  0.00    -0.267 OA
ATOM     11  N   UNL     1       1.175   3.691   0.049  0.00  0.00    -0.263 N 
ENDROOT
BRANCH  11  12
ATOM     12  C   UNL     1       1.101   2.335  -0.295  0.00  0.00    +0.051 A 
ATOM     13  C   UNL     1       0.921   1.375   0.692  0.00  0.00    +0.027 A 
ATOM     14  C   UNL     1       0.849   0.040   0.349  0.00  0.00    +0.017 A 
ATOM     15  C   UNL     1       0.956  -0.343  -0.976  0.00  0.00    +0.018 A 
ATOM     16  C   UNL     1       1.135   0.612  -1.962  0.00  0.00    +0.017 A 
ATOM     17  C   UNL     1       1.208   1.949  -1.625  0.00  0.00    +0.027 A 
ATOM     18 BR   UNL     1       0.857  -2.173  -1.442  0.00  0.00    -0.050 Br
ENDBRANCH  11  12
BRANCH   1  19
ATOM     19  C   UNL     1       3.614   3.391   0.211  0.00  0.00    +0.120 C 
ATOM     20  C   UNL     1       3.983   2.872   1.603  0.00  0.00    +0.032 C 
BRANCH  19  24
ATOM     21  C   UNL     1       8.420   3.471  -0.843  0.00  0.00    -0.012 C 
ATOM     22  C   UNL     1       7.126   4.288  -0.813  0.00  0.00    -0.061 C 
ATOM     23  C   UNL     1       5.977   3.405  -0.319  0.00  0.00    +0.069 C 
ATOM     24  N   UNL     1       4.729   4.181  -0.328  0.00  0.00    -0.296 NA
ATOM     25  C   UNL     1       4.423   4.668  -1.680  0.00  0.00    +0.066 C 
ATOM     26  C   UNL     1       5.573   5.550  -2.174  0.00  0.00    -0.067 C 
ATOM     27  N   UNL     1       6.821   4.774  -2.165  0.00  0.00    +0.382 N 
ATOM     28  H   UNL     1       7.640   5.419  -2.517  0.00  0.00    -0.085 HD
ATOM     29  H   UNL     1       6.710   3.918  -2.847  0.00  0.00    -0.085 HD
ENDBRANCH  19  24
ENDBRANCH   1  19
TORSDOF 3
