REMARK  Name = ZINC49437710
REMARK  6 active torsions:
REMARK  status: ('A' for Active; 'I' for Inactive)
REMARK    1  A    between atoms: C_6  and  C_7
REMARK    2  A    between atoms: C_10  and  C_12
REMARK    3  A    between atoms: C_13  and  C_14
REMARK    4  A    between atoms: C_14  and  C_16
REMARK    5  A    between atoms: C_16  and  C_18
REMARK    6  A    between atoms: C_16  and  C_20
REMARK                            x       y       z     vdW  Elec       q    Type
REMARK                         _______ _______ _______ _____ _____    ______ ____
ROOT
ATOM      1  C   UNL     1      -7.439  -1.190   0.057  0.00  0.00    +0.180 C 
ATOM      2  O   UNL     1      -7.846  -2.336   0.059  0.00  0.00    -0.291 OA
ENDROOT
BRANCH   1   4
ATOM      3  C   UNL     1      -5.176  -1.973   0.039  0.00  0.00    +0.018 C 
ATOM      4  C   UNL     1      -6.062  -0.935   0.048  0.00  0.00    +0.049 C 
BRANCH   3   8
ATOM      5  C   UNL     1      -1.265  -0.763   0.011  0.00  0.00    +0.020 A 
ATOM      6  C   UNL     1      -1.457  -2.138   0.011  0.00  0.00    +0.017 A 
ATOM      7  C   UNL     1      -2.731  -2.623   0.020  0.00  0.00    +0.016 A 
ATOM      8  C   UNL     1      -3.790  -1.716   0.029  0.00  0.00    +0.013 A 
ATOM      9  S   UNL     1      -2.940  -0.146   0.031  0.00  0.00    -0.089 S 
BRANCH   5  15
ATOM     10  C   UNL     1      -0.017   1.393   0.010  0.00  0.00    +0.010 A 
ATOM     11  C   UNL     1       1.170   2.095   0.002  0.00  0.00    +0.020 A 
ATOM     12  C   UNL     1       2.378   1.419  -0.013  0.00  0.00    +0.041 A 
ATOM     13  C   UNL     1       2.404   0.034  -0.021  0.00  0.00    +0.020 A 
ATOM     14  C   UNL     1       1.224  -0.680  -0.013  0.00  0.00    +0.010 A 
ATOM     15  C   UNL     1       0.002  -0.004   0.002  0.00  0.00    -0.011 A 
ATOM     16 CL   UNL     1       3.868   2.311  -0.024  0.00  0.00    -0.084 Cl
ENDBRANCH   5  15
ENDBRANCH   3   8
ENDBRANCH   1   4
BRANCH   1  17
ATOM     17  C   UNL     1      -8.418  -0.044   0.066  0.00  0.00    +0.229 C 
BRANCH  17  18
ATOM     18  C   UNL     1      -9.728  -0.498  -0.525  0.00  0.00    +0.161 A 
ATOM     19  N   UNL     1     -10.397  -1.489   0.037  0.00  0.00    -0.198 NA
ATOM     20  C   UNL     1     -11.554  -1.892  -0.482  0.00  0.00    +0.217 A 
ATOM     21  N   UNL     1     -12.037  -1.297  -1.567  0.00  0.00    -0.181 NA
ATOM     22  C   UNL     1     -11.361  -0.301  -2.130  0.00  0.00    +0.217 A 
ATOM     23  N   UNL     1     -11.858   0.321  -3.258  0.00  0.00    -0.327 N 
ATOM     24  N   UNL     1     -10.207   0.101  -1.602  0.00  0.00    -0.198 NA
ATOM     25  N   UNL     1     -12.252  -2.927   0.106  0.00  0.00    -0.327 N 
ATOM     26  H   UNL     1     -12.701   0.030  -3.640  0.00  0.00    +0.145 HD
ATOM     27  H   UNL     1     -11.899  -3.362   0.898  0.00  0.00    +0.145 HD
ATOM     28  H   UNL     1     -13.095  -3.221  -0.273  0.00  0.00    +0.145 HD
ATOM     29  H   UNL     1     -11.364   1.048  -3.668  0.00  0.00    +0.145 HD
ENDBRANCH  17  18
BRANCH  17  30
ATOM     30  C   UNL     1      -8.634   0.405   1.451  0.00  0.00    +0.082 C 
ATOM     31  N   UNL     1      -8.801   0.752   2.520  0.00  0.00    -0.195 NA
ENDBRANCH  17  30
ENDBRANCH   1  17
TORSDOF 6
