REMARK  Name = ZINC18101750
REMARK  3 active torsions:
REMARK  status: ('A' for Active; 'I' for Inactive)
REMARK    1  A    between atoms: C_3  and  C_8
REMARK    2  A    between atoms: N_9  and  N_10
REMARK    3  A    between atoms: C_11  and  C_13
REMARK                            x       y       z     vdW  Elec       q    Type
REMARK                         _______ _______ _______ _____ _____    ______ ____
ROOT
ATOM      1  N   UNL     1       3.673   2.632   4.642  0.00  0.00    -0.207 N 
ATOM      2  C   UNL     1       3.515   2.051   3.436  0.00  0.00    +0.236 C 
ATOM      3  O   UNL     1       4.278   2.315   2.531  0.00  0.00    -0.274 OA
ATOM      4  H   UNL     1       3.062   2.422   5.365  0.00  0.00    +0.177 HD
ENDROOT
BRANCH   2   5
ATOM      5  C   UNL     1       2.389   1.075   3.212  0.00  0.00    +0.083 C 
ATOM      6  C   UNL     1       2.268   0.463   1.850  0.00  0.00    +0.005 C 
ATOM      7  C   UNL     1       1.263   1.508   2.308  0.00  0.00    +0.005 C 
ATOM      8  C   UNL     1       1.291   2.785   1.433  0.00  0.00    +0.008 C 
ATOM      9  C   UNL     1       1.177   2.180   0.003  0.00  0.00    +0.027 C 
ATOM     10  C   UNL     1      -0.015   1.261   0.009  0.00  0.00    -0.031 C 
ATOM     11  C   UNL     1       0.002  -0.004   0.002  0.00  0.00    -0.031 C 
ATOM     12  C   UNL     1       1.243  -0.865   0.019  0.00  0.00    +0.027 C 
ATOM     13  C   UNL     1       1.835  -0.893   1.422  0.00  0.00    +0.008 C 
ENDBRANCH   2   5
BRANCH   1  15
ATOM     14  C   UNL     1       4.871   4.100   6.011  0.00  0.00    +0.138 C 
ATOM     15  N   UNL     1       4.719   3.541   4.850  0.00  0.00    -0.188 NA
BRANCH  14  18
ATOM     16  C   UNL     1       7.172   6.553   7.677  0.00  0.00    +0.002 A 
ATOM     17  C   UNL     1       6.139   5.660   7.478  0.00  0.00    +0.009 A 
ATOM     18  C   UNL     1       5.973   5.056   6.230  0.00  0.00    -0.004 A 
ATOM     19  C   UNL     1       6.857   5.357   5.192  0.00  0.00    +0.024 A 
ATOM     20  C   UNL     1       7.883   6.256   5.403  0.00  0.00    +0.018 A 
ATOM     21  C   UNL     1       8.042   6.851   6.643  0.00  0.00    +0.015 A 
ATOM     22 BR   UNL     1       9.078   6.671   3.998  0.00  0.00    -0.050 Br
ENDBRANCH  14  18
ENDBRANCH   1  15
TORSDOF 3
