REMARK  Name = ZINC63065600
REMARK  7 active torsions:
REMARK  status: ('A' for Active; 'I' for Inactive)
REMARK    1  A    between atoms: C_1  and  C_2
REMARK    2  A    between atoms: C_2  and  C_21
REMARK    3  A    between atoms: N_6  and  C_7
REMARK    4  A    between atoms: C_7  and  C_8
REMARK    5  A    between atoms: C_8  and  C_9
REMARK    6  A    between atoms: N_11  and  C_12
REMARK    7  A    between atoms: C_13  and  N_20
REMARK                            x       y       z     vdW  Elec       q    Type
REMARK                         _______ _______ _______ _____ _____    ______ ____
ROOT
ATOM      1  C   UNL     1       3.461  -3.454   2.503  0.00  0.00    +0.215 C 
ATOM      2  O   UNL     1       3.216  -4.562   2.076  0.00  0.00    -0.276 OA
ATOM      3  N   UNL     1       4.730  -3.001   2.512  0.00  0.00    -0.283 N 
ATOM      4  H   UNL     1       4.918  -2.089   2.784  0.00  0.00    +0.155 HD
ENDROOT
BRANCH   3   5
ATOM      5  C   UNL     1       5.780  -3.848   2.126  0.00  0.00    +0.073 A 
ATOM      6  C   UNL     1       6.399  -4.668   3.070  0.00  0.00    +0.049 A 
ATOM      7  C   UNL     1       7.436  -5.503   2.683  0.00  0.00    +0.044 A 
ATOM      8  C   UNL     1       7.854  -5.523   1.364  0.00  0.00    +0.044 A 
ATOM      9  C   UNL     1       7.239  -4.710   0.428  0.00  0.00    +0.042 A 
ATOM     10  C   UNL     1       6.201  -3.877   0.805  0.00  0.00    +0.065 A 
ATOM     11 CL   UNL     1       5.428  -2.864  -0.375  0.00  0.00    -0.082 Cl
ATOM     12 CL   UNL     1       9.152  -6.570   0.882  0.00  0.00    -0.083 Cl
BRANCH   6  13
ATOM     13  N   UNL     1       5.976  -4.646   4.403  0.00  0.00    -0.356 N 
ATOM     14  H   UNL     1       5.251  -4.061   4.672  0.00  0.00    +0.142 HD
ATOM     15  H   UNL     1       6.407  -5.217   5.058  0.00  0.00    +0.142 HD
ENDBRANCH   6  13
ENDBRANCH   3   5
BRANCH   1  16
ATOM     16  C   UNL     1       2.347  -2.583   3.023  0.00  0.00    +0.077 C 
BRANCH  16  17
ATOM     17  C   UNL     1       1.017  -3.329   2.901  0.00  0.00    -0.069 C 
BRANCH  17  23
ATOM     18  C   UNL     1      -2.250  -2.273   2.288  0.00  0.00    -0.010 C 
ATOM     19  C   UNL     1      -1.366  -3.145   3.182  0.00  0.00    -0.071 C 
ATOM     20  C   UNL     1      -2.033  -3.327   4.562  0.00  0.00    -0.014 C 
ATOM     21  C   UNL     1      -1.337  -2.247   5.432  0.00  0.00    -0.020 C 
ATOM     22  C   UNL     1       0.103  -2.266   4.861  0.00  0.00    -0.078 C 
ATOM     23  N   UNL     1      -0.070  -2.480   3.408  0.00  0.00    +0.383 N 
ATOM     24  C   UNL     1      -1.144  -4.508   2.524  0.00  0.00    -0.010 C 
ATOM     25  H   UNL     1      -0.056  -1.591   2.930  0.00  0.00    -0.081 HD
ENDBRANCH  17  23
ENDBRANCH  16  17
ENDBRANCH   1  16
TORSDOF 5
