REMARK  Name = ZINC10887480
REMARK  8 active torsions:
REMARK  status: ('A' for Active; 'I' for Inactive)
REMARK    1  A    between atoms: C_1  and  C_2
REMARK    2  A    between atoms: C_3  and  C_9
REMARK    3  A    between atoms: C_4  and  C_8
REMARK    4  A    between atoms: N_5  and  C_7
REMARK    5  A    between atoms: C_9  and  C_10
REMARK    6  A    between atoms: N_12  and  N_13
REMARK    7  A    between atoms: C_14  and  C_16
REMARK    8  A    between atoms: C_21  and  O_22
REMARK                            x       y       z     vdW  Elec       q    Type
REMARK                         _______ _______ _______ _____ _____    ______ ____
ROOT
ATOM      1  C   UNL     1       1.939  -2.290  -1.450  0.00  0.00    +0.234 C 
ATOM      2  O   UNL     1       1.673  -1.540  -2.365  0.00  0.00    -0.274 OA
ATOM      3  N   UNL     1       2.370  -3.541  -1.707  0.00  0.00    -0.234 N 
ATOM      4  H   UNL     1       2.583  -4.141  -0.975  0.00  0.00    +0.173 HD
ENDROOT
BRANCH   3   5
ATOM      5  N   UNL     1       2.510  -3.975  -3.031  0.00  0.00    -0.230 N 
ATOM      6  C   UNL     1       2.940  -5.226  -3.288  0.00  0.00    +0.264 C 
ATOM      7  O   UNL     1       3.207  -5.978  -2.371  0.00  0.00    -0.269 OA
ATOM      8  H   UNL     1       2.297  -3.376  -3.764  0.00  0.00    +0.173 HD
BRANCH   6   9
ATOM      9  C   UNL     1       3.088  -5.684  -4.684  0.00  0.00    +0.081 A 
ATOM     10  C   UNL     1       2.782  -4.823  -5.741  0.00  0.00    +0.036 A 
ATOM     11  C   UNL     1       2.922  -5.257  -7.042  0.00  0.00    +0.042 A 
ATOM     12  C   UNL     1       3.365  -6.544  -7.306  0.00  0.00    +0.023 A 
ATOM     13  C   UNL     1       3.670  -7.404  -6.270  0.00  0.00    +0.047 A 
ATOM     14  C   UNL     1       3.541  -6.982  -4.955  0.00  0.00    +0.129 A 
ATOM     15 CL   UNL     1       2.542  -4.187  -8.355  0.00  0.00    -0.084 Cl
BRANCH  14  16
ATOM     16  O   UNL     1       3.846  -7.824  -3.936  0.00  0.00    -0.506 OA
ATOM     17  H   UNL     1       3.100  -8.361  -3.633  0.00  0.00    +0.292 HD
ENDBRANCH  14  16
ENDBRANCH   6   9
ENDBRANCH   3   5
BRANCH   1  18
ATOM     18  C   UNL     1       1.789  -1.823  -0.025  0.00  0.00    +0.136 C 
BRANCH  18  21
ATOM     19  C   UNL     1       3.603   0.775  -0.028  0.00  0.00    +0.068 C 
ATOM     20  C   UNL     1       2.096   0.748  -0.014  0.00  0.00    +0.064 A 
ATOM     21  C   UNL     1       1.296  -0.399  -0.013  0.00  0.00    +0.005 A 
ATOM     22  C   UNL     1       0.002  -0.004   0.002  0.00  0.00    +0.040 A 
ATOM     23  N   UNL     1      -0.016   1.345   0.009  0.00  0.00    -0.271 N 
ATOM     24  N   UNL     1       1.311   1.794  -0.001  0.00  0.00    -0.176 NA
ATOM     25  C   UNL     1      -1.212   2.191   0.020  0.00  0.00    +0.172 C 
ATOM     26  C   UNL     1      -1.203  -0.909   0.009  0.00  0.00    +0.065 C 
ENDBRANCH  18  21
ENDBRANCH   1  18
TORSDOF 5
