REMARK  Name = ZINC16617377
REMARK  7 active torsions:
REMARK  status: ('A' for Active; 'I' for Inactive)
REMARK    1  A    between atoms: C_1  and  C_2
REMARK    2  A    between atoms: C_5  and  N_8
REMARK    3  A    between atoms: C_9  and  C_30
REMARK    4  A    between atoms: C_12  and  S_13
REMARK    5  A    between atoms: S_13  and  C_14
REMARK    6  A    between atoms: C_14  and  C_15
REMARK    7  A    between atoms: N_20  and  C_21
REMARK                            x       y       z     vdW  Elec       q    Type
REMARK                         _______ _______ _______ _____ _____    ______ ____
ROOT
ATOM      1  C   UNL     1       6.968  -2.980   4.087  0.00  0.00    +0.231 C 
ATOM      2  O   UNL     1       6.234  -3.945   4.090  0.00  0.00    -0.274 OA
ATOM      3  N   UNL     1       6.588  -1.846   3.466  0.00  0.00    -0.239 N 
ATOM      4  C   UNL     1       5.392  -1.784   2.849  0.00  0.00    +0.310 C 
ATOM      5  O   UNL     1       4.655  -2.751   2.853  0.00  0.00    -0.252 OA
ATOM      6  N   UNL     1       5.011  -0.649   2.228  0.00  0.00    -0.269 N 
ATOM      7  H   UNL     1       7.176  -1.074   3.464  0.00  0.00    +0.159 HD
ATOM      8  H   UNL     1       5.629   0.096   2.159  0.00  0.00    +0.156 HD
ENDROOT
BRANCH   6   9
ATOM      9  C   UNL     1       3.725  -0.546   1.683  0.00  0.00    +0.038 A 
ATOM     10  C   UNL     1       2.658  -1.190   2.296  0.00  0.00    +0.027 A 
ATOM     11  C   UNL     1       1.388  -1.090   1.759  0.00  0.00    +0.051 A 
ATOM     12  C   UNL     1       1.176  -0.346   0.610  0.00  0.00    +0.166 A 
ATOM     13  C   UNL     1       2.244   0.302  -0.006  0.00  0.00    +0.168 A 
ATOM     14  C   UNL     1       3.516   0.200   0.532  0.00  0.00    +0.073 A 
ATOM     15  O   UNL     1       1.779   0.960  -1.108  0.00  0.00    -0.453 OA
ATOM     16  C   UNL     1       0.353   1.045  -0.931  0.00  0.00    +0.466 C 
ATOM     17  O   UNL     1       0.041  -0.093  -0.107  0.00  0.00    -0.453 OA
ENDBRANCH   6   9
BRANCH   1  18
ATOM     18  C   UNL     1       8.306  -3.049   4.777  0.00  0.00    +0.173 C 
BRANCH  18  19
ATOM     19  S   UNL     1       8.523  -4.690   5.510  0.00  0.00    -0.076 S 
BRANCH  19  24
ATOM     20  N   UNL     1      10.815  -5.440   6.933  0.00  0.00    -0.274 N 
ATOM     21  C   UNL     1      11.994  -4.840   7.290  0.00  0.00    +0.135 A 
ATOM     22  N   UNL     1      11.971  -3.627   6.815  0.00  0.00    -0.133 NA
ATOM     23  N   UNL     1      10.871  -3.420   6.184  0.00  0.00    -0.122 NA
ATOM     24  C   UNL     1      10.120  -4.496   6.228  0.00  0.00    +0.197 A 
ATOM     25  C   UNL     1      13.112  -5.468   8.082  0.00  0.00    +0.088 C 
BRANCH  20  30
ATOM     26  C   UNL     1       9.164 -10.737   8.128  0.00  0.00    +0.044 C 
ATOM     27  C   UNL     1       9.602  -9.331   7.811  0.00  0.00    -0.050 A 
ATOM     28  C   UNL     1       9.824  -8.957   6.498  0.00  0.00    +0.005 A 
ATOM     29  C   UNL     1      10.226  -7.668   6.205  0.00  0.00    +0.026 A 
ATOM     30  C   UNL     1      10.407  -6.749   7.228  0.00  0.00    +0.050 A 
ATOM     31  C   UNL     1      10.188  -7.128   8.546  0.00  0.00    +0.026 A 
ATOM     32  C   UNL     1       9.781  -8.417   8.833  0.00  0.00    +0.005 A 
ENDBRANCH  20  30
ENDBRANCH  19  24
ENDBRANCH  18  19
ENDBRANCH   1  18
TORSDOF 5
