REMARK  Name = ZINC10714617
REMARK  7 active torsions:
REMARK  status: ('A' for Active; 'I' for Inactive)
REMARK    1  A    between atoms: C_1  and  C_2
REMARK    2  A    between atoms: C_5  and  C_28
REMARK    3  A    between atoms: C_6  and  O_8
REMARK    4  A    between atoms: O_8  and  C_9
REMARK    5  A    between atoms: C_9  and  C_10
REMARK    6  A    between atoms: C_13  and  C_23
REMARK    7  A    between atoms: C_16  and  C_18
REMARK                            x       y       z     vdW  Elec       q    Type
REMARK                         _______ _______ _______ _____ _____    ______ ____
ROOT
ATOM      1  C   UNL     1      -4.801   1.314   0.032  0.00  0.00    +0.273 C 
ATOM      2  O   UNL     1      -4.633   0.113   0.024  0.00  0.00    -0.270 OA
ATOM      3  N   UNL     1      -6.050   1.820   0.040  0.00  0.00    -0.179 N 
ATOM      4  C   UNL     1      -7.292   1.031   0.036  0.00  0.00    +0.173 C 
ATOM      5  C   UNL     1      -8.402   2.101   0.052  0.00  0.00    +0.090 C 
ATOM      6  C   UNL     1      -7.645   3.411   0.055  0.00  0.00    +0.075 C 
ATOM      7  N   UNL     1      -6.376   3.175   0.049  0.00  0.00    -0.180 NA
ENDROOT
BRANCH   6   8
ATOM      8  C   UNL     1      -8.258   4.743   0.065  0.00  0.00    +0.035 A 
ATOM      9  C   UNL     1      -7.648   5.985   0.075  0.00  0.00    +0.017 A 
ATOM     10  C   UNL     1      -8.445   7.105   0.079  0.00  0.00    +0.008 A 
ATOM     11  C   UNL     1      -9.796   6.960   0.085  0.00  0.00    +0.046 A 
ATOM     12  S   UNL     1      -9.988   5.186   0.076  0.00  0.00    -0.095 S 
ENDBRANCH   6   8
BRANCH   4  13
ATOM     13  C   UNL     1      -7.375   0.166   1.267  0.00  0.00    +0.128 A 
ATOM     14  C   UNL     1      -7.851  -1.091   1.315  0.00  0.00    +0.046 A 
ATOM     15  C   UNL     1      -7.744  -1.519   2.658  0.00  0.00    +0.041 A 
ATOM     16  C   UNL     1      -7.208  -0.498   3.351  0.00  0.00    +0.195 A 
ATOM     17  O   UNL     1      -6.982   0.518   2.502  0.00  0.00    -0.466 OA
ENDBRANCH   4  13
BRANCH   1  18
ATOM     18  C   UNL     1      -3.613   2.241   0.031  0.00  0.00    +0.326 C 
BRANCH  18  19
ATOM     19  O   UNL     1      -2.408   1.472   0.021  0.00  0.00    -0.482 OA
BRANCH  19  25
ATOM     20  C   UNL     1      -0.069   5.751   0.034  0.00  0.00    +0.044 C 
ATOM     21  C   UNL     1      -0.054   4.244   0.025  0.00  0.00    -0.047 A 
ATOM     22  C   UNL     1       1.154   3.568   0.010  0.00  0.00    +0.004 A 
ATOM     23  C   UNL     1       1.180   2.190   0.003  0.00  0.00    +0.017 A 
ATOM     24  C   UNL     1      -0.018   1.471   0.010  0.00  0.00    +0.078 A 
ATOM     25  C   UNL     1      -1.239   2.159   0.020  0.00  0.00    +0.134 A 
ATOM     26  C   UNL     1      -1.246   3.546   0.033  0.00  0.00    +0.049 A 
BRANCH  24  27
ATOM     27  C   UNL     1       0.002  -0.004   0.002  0.00  0.00    +0.245 C 
ATOM     28  O   UNL     1      -1.042  -0.626   0.009  0.00  0.00    -0.270 OA
ATOM     29  N   UNL     1       1.178  -0.662  -0.013  0.00  0.00    -0.325 N 
ATOM     30  H   UNL     1       2.012  -0.166  -0.018  0.00  0.00    +0.145 HD
ATOM     31  H   UNL     1       1.191  -1.632  -0.018  0.00  0.00    +0.145 HD
ENDBRANCH  24  27
ENDBRANCH  19  25
ENDBRANCH  18  19
ENDBRANCH   1  18
TORSDOF 6
