REMARK  Name = ZINC13063479
REMARK  11 active torsions:
REMARK  status: ('A' for Active; 'I' for Inactive)
REMARK    1  A    between atoms: C_1  and  C_2
REMARK    2  A    between atoms: C_5  and  C_26
REMARK    3  A    between atoms: C_6  and  N_8
REMARK    4  A    between atoms: C_9  and  C_11
REMARK    5  A    between atoms: C_11  and  N_53
REMARK    6  A    between atoms: C_12  and  N_53
REMARK    7  A    between atoms: C_13  and  C_14
REMARK    8  A    between atoms: C_13  and  N_53
REMARK    9  A    between atoms: N_16  and  C_17
REMARK   10  A    between atoms: C_18  and  C_25
REMARK   11  A    between atoms: C_20  and  C_24
REMARK                            x       y       z     vdW  Elec       q    Type
REMARK                         _______ _______ _______ _____ _____    ______ ____
ROOT
ATOM      1  C   UNL     1       3.685   8.321  -3.057  0.00  0.00    -0.095 C 
ATOM      2  N   UNL     1       3.625   7.773  -1.686  0.00  0.00    +0.389 N 
ATOM      3  H   UNL     1       2.711   8.000  -1.276  0.00  0.00    -0.081 HD
ENDROOT
BRANCH   2   4
ATOM      4  C   UNL     1       3.785   6.304  -1.721  0.00  0.00    +0.019 C 
BRANCH   4   6
ATOM      5  N   UNL     1       2.479   4.362  -2.521  0.00  0.00    -0.287 N 
ATOM      6  C   UNL     1       2.575   5.699  -2.385  0.00  0.00    +0.201 C 
ATOM      7  O   UNL     1       1.688   6.416  -2.799  0.00  0.00    -0.278 OA
ATOM      8  H   UNL     1       3.148   3.784  -2.121  0.00  0.00    +0.155 HD
BRANCH   5  14
ATOM      9  C   UNL     1      -0.990   4.813  -5.975  0.00  0.00    +0.044 C 
ATOM     10  C   UNL     1      -0.286   4.002  -4.918  0.00  0.00    -0.049 A 
ATOM     11  C   UNL     1      -0.689   2.704  -4.660  0.00  0.00    +0.004 A 
ATOM     12  C   UNL     1      -0.048   1.959  -3.687  0.00  0.00    +0.005 A 
ATOM     13  C   UNL     1       1.004   2.505  -2.977  0.00  0.00    -0.029 A 
ATOM     14  C   UNL     1       1.414   3.806  -3.238  0.00  0.00    +0.036 A 
ATOM     15  C   UNL     1       0.765   4.554  -4.211  0.00  0.00    +0.027 A 
ATOM     16  C   UNL     1       1.706   1.690  -1.922  0.00  0.00    +0.045 C 
ENDBRANCH   5  14
ENDBRANCH   4   6
ENDBRANCH   2   4
BRANCH   2  17
ATOM     17  C   UNL     1       4.686   8.377  -0.853  0.00  0.00    +0.019 C 
BRANCH  17  18
ATOM     18  C   UNL     1       4.375   9.838  -0.654  0.00  0.00    +0.201 C 
ATOM     19  O   UNL     1       3.387  10.323  -1.164  0.00  0.00    -0.278 OA
ATOM     20  N   UNL     1       5.194  10.606   0.092  0.00  0.00    -0.286 N 
ATOM     21  H   UNL     1       6.010  10.231   0.458  0.00  0.00    +0.155 HD
BRANCH  20  22
ATOM     22  C   UNL     1       4.867  11.944   0.339  0.00  0.00    +0.055 A 
ATOM     23  C   UNL     1       5.846  12.926   0.264  0.00  0.00    -0.028 A 
ATOM     24  C   UNL     1       5.520  14.246   0.507  0.00  0.00    +0.008 A 
ATOM     25  C   UNL     1       4.219  14.591   0.826  0.00  0.00    -0.049 A 
ATOM     26  C   UNL     1       3.241  13.617   0.902  0.00  0.00    +0.025 A 
ATOM     27  C   UNL     1       3.559  12.295   0.654  0.00  0.00    +0.063 A 
ATOM     28 CL   UNL     1       2.329  11.073   0.743  0.00  0.00    -0.082 Cl
ATOM     29  C   UNL     1       3.868  16.032   1.091  0.00  0.00    +0.044 C 
ATOM     30  C   UNL     1       7.264  12.551  -0.083  0.00  0.00    +0.046 C 
ENDBRANCH  20  22
ENDBRANCH  17  18
ENDBRANCH   2  17
TORSDOF 6
