REMARK  Name = ZINC66630638
REMARK  7 active torsions:
REMARK  status: ('A' for Active; 'I' for Inactive)
REMARK    1  A    between atoms: C_1  and  C_2
REMARK    2  A    between atoms: C_5  and  C_12
REMARK    3  A    between atoms: C_8  and  C_10
REMARK    4  A    between atoms: C_8  and  C_11
REMARK    5  A    between atoms: C_12  and  C_13
REMARK    6  A    between atoms: N_15  and  N_16
REMARK    7  A    between atoms: N_19  and  C_20
REMARK                            x       y       z     vdW  Elec       q    Type
REMARK                         _______ _______ _______ _____ _____    ______ ____
ROOT
ATOM      1  C   UNL     1      -3.539  -2.197  -1.264  0.00  0.00    +0.229 C 
ATOM      2  O   UNL     1      -2.943  -1.554  -2.102  0.00  0.00    -0.274 OA
ATOM      3  N   UNL     1      -4.821  -2.557  -1.477  0.00  0.00    -0.233 N 
ATOM      4  H   UNL     1      -5.298  -3.071  -0.807  0.00  0.00    +0.173 HD
ENDROOT
BRANCH   3   5
ATOM      5  N   UNL     1      -5.463  -2.188  -2.666  0.00  0.00    -0.218 N 
ATOM      6  C   UNL     1      -6.745  -2.548  -2.879  0.00  0.00    +0.316 C 
ATOM      7  O   UNL     1      -7.302  -2.228  -3.911  0.00  0.00    -0.251 OA
ATOM      8  N   UNL     1      -7.408  -3.262  -1.948  0.00  0.00    -0.294 N 
ATOM      9  H   UNL     1      -4.986  -1.674  -3.336  0.00  0.00    +0.174 HD
ATOM     10  H   UNL     1      -6.963  -3.517  -1.124  0.00  0.00    +0.151 HD
BRANCH   8  11
ATOM     11  C   UNL     1      -8.800  -3.653  -2.179  0.00  0.00    +0.097 C 
ATOM     12  C   UNL     1      -9.739  -2.525  -1.722  0.00  0.00    +0.046 C 
ATOM     13  C   UNL     1     -11.197  -3.043  -1.660  0.00  0.00    +0.168 C 
ATOM     14  S   UNL     1     -10.973  -4.837  -1.318  0.00  0.00    -0.029 S 
ATOM     15  O   UNL     1     -11.427  -5.116  -0.001  0.00  0.00    -0.174 OA
ATOM     16  O   UNL     1     -11.492  -5.584  -2.409  0.00  0.00    -0.174 OA
ATOM     17  C   UNL     1      -9.133  -4.926  -1.350  0.00  0.00    +0.188 C 
ENDBRANCH   8  11
ENDBRANCH   3   5
BRANCH   1  18
ATOM     18  C   UNL     1      -2.848  -2.593   0.015  0.00  0.00    +0.101 C 
BRANCH  18  22
ATOM     19  C   UNL     1      -0.019   1.526   0.010  0.00  0.00    +0.007 C 
ATOM     20  C   UNL     1       0.002  -0.004   0.002  0.00  0.00    -0.013 C 
ATOM     21  C   UNL     1      -1.433  -0.534   0.013  0.00  0.00    +0.007 C 
ATOM     22  C   UNL     1      -1.413  -2.063   0.004  0.00  0.00    -0.001 C 
ATOM     23  C   UNL     1      -0.673  -2.570   1.244  0.00  0.00    +0.010 C 
ATOM     24  C   UNL     1       0.763  -2.041   1.233  0.00  0.00    -0.034 C 
ATOM     25  C   UNL     1       0.742  -0.511   1.242  0.00  0.00    +0.009 C 
ATOM     26  C   UNL     1       1.479  -2.534  -0.026  0.00  0.00    +0.011 C 
ATOM     27  C   UNL     1       1.503  -2.548   2.473  0.00  0.00    +0.011 C 
ENDBRANCH  18  22
ENDBRANCH   1  18
TORSDOF 4
