REMARK  Name = ZINC12858543
REMARK  7 active torsions:
REMARK  status: ('A' for Active; 'I' for Inactive)
REMARK    1  A    between atoms: C_1  and  C_2
REMARK    2  A    between atoms: C_2  and  C_3
REMARK    3  A    between atoms: C_3  and  N_4
REMARK    4  A    between atoms: C_15  and  C_26
REMARK    5  A    between atoms: C_21  and  N_25
REMARK    6  A    between atoms: C_22  and  C_23
REMARK    7  A    between atoms: C_26  and  C_27
REMARK                            x       y       z     vdW  Elec       q    Type
REMARK                         _______ _______ _______ _____ _____    ______ ____
ROOT
ATOM      1  N   UNL     1       0.598  -1.978  -1.368  0.00  0.00    -0.270 N 
ATOM      2  C   UNL     1       1.520  -2.831  -0.788  0.00  0.00    +0.041 A 
ATOM      3  C   UNL     1       2.675  -2.528  -0.065  0.00  0.00    +0.024 A 
ATOM      4  C   UNL     1       3.425  -3.594   0.407  0.00  0.00    +0.002 A 
ATOM      5  C   UNL     1       3.057  -4.904   0.180  0.00  0.00    +0.000 A 
ATOM      6  C   UNL     1       1.909  -5.219  -0.539  0.00  0.00    +0.007 A 
ATOM      7  C   UNL     1       1.158  -4.165  -1.013  0.00  0.00    -0.001 A 
ATOM      8  C   UNL     1      -0.107  -4.125  -1.809  0.00  0.00    +0.145 C 
ATOM      9  C   UNL     1      -0.397  -2.651  -1.984  0.00  0.00    +0.240 C 
ATOM     10  O   UNL     1      -1.343  -2.166  -2.568  0.00  0.00    -0.274 OA
ATOM     11  C   UNL     1      -1.238  -4.793  -1.078  0.00  0.00    +0.061 A 
ATOM     12  C   UNL     1      -1.880  -4.424   0.040  0.00  0.00    +0.044 A 
ATOM     13  N   UNL     1      -2.825  -5.358   0.299  0.00  0.00    -0.278 N 
ATOM     14  H   UNL     1      -3.442  -5.351   1.047  0.00  0.00    +0.189 HD
ATOM     15  N   UNL     1      -2.755  -6.338  -0.704  0.00  0.00    -0.135 NA
ATOM     16  C   UNL     1      -1.807  -6.005  -1.530  0.00  0.00    +0.245 A 
ATOM     17  O   UNL     1      -1.363  -6.634  -2.652  0.00  0.00    -0.421 OA
ATOM     18  C   UNL     1      -0.543  -5.949  -3.473  0.00  0.00    +0.201 C 
ATOM     19  C   UNL     1       0.068  -4.788  -3.147  0.00  0.00    +0.110 C 
ENDROOT
BRANCH  18  20
ATOM     20  N   UNL     1      -0.310  -6.466  -4.723  0.00  0.00    -0.328 N 
ATOM     21  H   UNL     1      -0.732  -7.298  -4.989  0.00  0.00    +0.145 HD
ATOM     22  H   UNL     1       0.275  -5.999  -5.340  0.00  0.00    +0.145 HD
ENDBRANCH  18  20
BRANCH  19  23
ATOM     23  C   UNL     1       0.916  -4.163  -4.118  0.00  0.00    +0.102 C 
ATOM     24  N   UNL     1       1.588  -3.667  -4.887  0.00  0.00    -0.191 NA
ENDBRANCH  19  23
BRANCH  12  25
ATOM     25  C   UNL     1      -1.601  -3.192   0.861  0.00  0.00    +0.052 C 
ATOM     26  C   UNL     1      -2.449  -2.029   0.342  0.00  0.00    +0.010 C 
ENDBRANCH  12  25
BRANCH   1  27
ATOM     27  C   UNL     1       0.687  -0.517  -1.314  0.00  0.00    +0.113 C 
BRANCH  27  29
ATOM     28  C   UNL     1       1.367   1.529  -2.578  0.00  0.00    +0.005 C 
ATOM     29  C   UNL     1       1.381  -0.001  -2.577  0.00  0.00    +0.016 C 
ENDBRANCH  27  29
ENDBRANCH   1  27
TORSDOF 5
