REMARK  Name = ZINC66194836
REMARK  8 active torsions:
REMARK  status: ('A' for Active; 'I' for Inactive)
REMARK    1  A    between atoms: C_1  and  C_2
REMARK    2  A    between atoms: C_4  and  C_7
REMARK    3  A    between atoms: C_7  and  C_9
REMARK    4  A    between atoms: C_7  and  N_10
REMARK    5  A    between atoms: N_13  and  C_14
REMARK    6  A    between atoms: N_13  and  C_15
REMARK    7  A    between atoms: N_18  and  C_21
REMARK    8  A    between atoms: C_24  and  C_27
REMARK                            x       y       z     vdW  Elec       q    Type
REMARK                         _______ _______ _______ _____ _____    ______ ____
ROOT
ATOM      1  N   UNL     1       1.030  -4.187  -1.250  0.00  0.00    -0.288 N 
ATOM      2  C   UNL     1       1.586  -5.036  -2.136  0.00  0.00    +0.303 C 
ATOM      3  O   UNL     1       1.265  -4.988  -3.308  0.00  0.00    -0.253 OA
ATOM      4  N   UNL     1       2.499  -5.938  -1.724  0.00  0.00    -0.286 N 
ATOM      5  C   UNL     1       2.886  -5.995  -0.312  0.00  0.00    +0.134 C 
ATOM      6  H   UNL     1       1.286  -4.225  -0.315  0.00  0.00    +0.151 HD
ENDROOT
BRANCH   4   7
ATOM      7  C   UNL     1       3.104  -6.861  -2.688  0.00  0.00    +0.074 C 
ATOM      8  C   UNL     1       2.802  -8.304  -2.274  0.00  0.00    +0.004 C 
ATOM      9  C   UNL     1       3.503  -9.263  -3.239  0.00  0.00    -0.077 C 
ATOM     10  N   UNL     1       4.952  -9.032  -3.197  0.00  0.00    +0.382 N 
ATOM     11  C   UNL     1       5.254  -7.673  -3.662  0.00  0.00    -0.077 C 
ATOM     12  C   UNL     1       4.621  -6.653  -2.713  0.00  0.00    +0.004 C 
ATOM     13  H   UNL     1       5.282  -9.144  -2.250  0.00  0.00    -0.081 HD
BRANCH  10  14
ATOM     14  C   UNL     1       5.626 -10.007  -4.066  0.00  0.00    -0.069 C 
ATOM     15  C   UNL     1       5.319 -11.424  -3.577  0.00  0.00    -0.015 C 
ATOM     16  C   UNL     1       6.022 -12.438  -4.482  0.00  0.00    +0.002 C 
ATOM     17  C   UNL     1       7.532 -12.199  -4.440  0.00  0.00    -0.014 C 
ATOM     18  C   UNL     1       7.839 -10.782  -4.929  0.00  0.00    +0.002 C 
ATOM     19  C   UNL     1       7.136  -9.768  -4.024  0.00  0.00    -0.015 C 
ATOM     20  C   UNL     1       8.034 -12.363  -3.004  0.00  0.00    +0.007 C 
ENDBRANCH  10  14
ENDBRANCH   4   7
BRANCH   1  21
ATOM     21  C   UNL     1       0.038  -3.206  -1.697  0.00  0.00    +0.160 C 
ATOM     22  C   UNL     1      -1.347  -3.856  -1.721  0.00  0.00    +0.038 C 
BRANCH  21  26
ATOM     23  C   UNL     1      -0.018   1.503   0.010  0.00  0.00    +0.091 C 
ATOM     24  C   UNL     1       0.002  -0.004   0.002  0.00  0.00    +0.169 A 
ATOM     25  N   UNL     1       0.008  -0.776  -1.091  0.00  0.00    -0.195 NA
ATOM     26  C   UNL     1       0.026  -2.034  -0.750  0.00  0.00    +0.247 A 
ATOM     27  O   UNL     1       0.033  -2.107   0.587  0.00  0.00    -0.336 OA
ATOM     28  N   UNL     1       0.023  -0.767   1.057  0.00  0.00    -0.062 NA
ENDBRANCH  21  26
ENDBRANCH   1  21
TORSDOF 4
