REMARK  Name = ZINC11362471
REMARK  6 active torsions:
REMARK  status: ('A' for Active; 'I' for Inactive)
REMARK    1  A    between atoms: C_1  and  S_2
REMARK    2  A    between atoms: S_2  and  N_5
REMARK    3  A    between atoms: N_5  and  C_6
REMARK    4  A    between atoms: C_9  and  N_12
REMARK    5  A    between atoms: C_13  and  C_15
REMARK    6  A    between atoms: C_20  and  N_21
REMARK                            x       y       z     vdW  Elec       q    Type
REMARK                         _______ _______ _______ _____ _____    ______ ____
ROOT
ATOM      1  N   UNL     1      -4.278   3.808  -0.455  0.00  0.00    -0.281 N 
ATOM      2  C   UNL     1      -4.168   5.141  -0.288  0.00  0.00    +0.250 C 
ATOM      3  O   UNL     1      -3.071   5.651  -0.173  0.00  0.00    -0.270 OA
ATOM      4  H   UNL     1      -5.147   3.409  -0.618  0.00  0.00    +0.155 HD
ENDROOT
BRANCH   2   5
ATOM      5  C   UNL     1      -5.382   5.982  -0.245  0.00  0.00    +0.067 A 
ATOM      6  C   UNL     1      -6.291   5.956  -1.305  0.00  0.00    +0.017 A 
ATOM      7  C   UNL     1      -7.422   6.743  -1.259  0.00  0.00    +0.021 A 
ATOM      8  C   UNL     1      -7.658   7.559  -0.164  0.00  0.00    +0.043 A 
ATOM      9  C   UNL     1      -6.760   7.589   0.890  0.00  0.00    +0.053 A 
ATOM     10  C   UNL     1      -5.628   6.802   0.858  0.00  0.00    +0.140 A 
ATOM     11 CL   UNL     1      -9.084   8.547  -0.114  0.00  0.00    -0.083 Cl
BRANCH  10  12
ATOM     12  N   UNL     1      -4.672   6.831   1.988  0.00  0.00    +0.057 N 
ATOM     13  O   UNL     1      -4.923   7.490   2.981  0.00  0.00    -0.126 OA
ATOM     14  O   UNL     1      -3.635   6.196   1.925  0.00  0.00    -0.126 OA
ENDBRANCH  10  12
ENDBRANCH   2   5
BRANCH   1  18
ATOM     15  C   UNL     1      -0.880   1.397  -0.267  0.00  0.00    +0.048 A 
ATOM     16  C   UNL     1      -0.916   2.602   0.423  0.00  0.00    +0.026 A 
ATOM     17  C   UNL     1      -2.039   3.403   0.357  0.00  0.00    +0.025 A 
ATOM     18  C   UNL     1      -3.136   2.998  -0.392  0.00  0.00    +0.034 A 
ATOM     19  C   UNL     1      -3.103   1.791  -1.078  0.00  0.00    +0.025 A 
ATOM     20  C   UNL     1      -1.978   0.993  -1.016  0.00  0.00    +0.026 A 
BRANCH  15  21
ATOM     21  N   UNL     1       0.260   0.589  -0.204  0.00  0.00    -0.221 N 
ATOM     22  H   UNL     1       0.171  -0.363  -0.036  0.00  0.00    +0.173 HD
BRANCH  21  24
ATOM     23  C   UNL     1       1.771   1.824  -2.145  0.00  0.00    +0.218 C 
ATOM     24  S   UNL     1       1.760   1.254  -0.423  0.00  0.00    +0.040 S 
ATOM     25  O   UNL     1       1.796   2.366   0.461  0.00  0.00    -0.155 OA
ATOM     26  O   UNL     1       2.665   0.170  -0.260  0.00  0.00    -0.155 OA
ENDBRANCH  21  24
ENDBRANCH  15  21
ENDBRANCH   1  18
TORSDOF 5
