REMARK  Name = ZINC05542321
REMARK  5 active torsions:
REMARK  status: ('A' for Active; 'I' for Inactive)
REMARK    1  A    between atoms: C_6  and  C_19
REMARK    2  A    between atoms: C_9  and  O_11
REMARK    3  A    between atoms: O_11  and  C_12
REMARK    4  A    between atoms: C_12  and  C_13
REMARK    5  A    between atoms: C_19  and  C_20
REMARK                            x       y       z     vdW  Elec       q    Type
REMARK                         _______ _______ _______ _____ _____    ______ ____
ROOT
ATOM      1  H   UNL     1       0.393  -0.543  -0.414  0.00  0.00    +0.158 HD
ATOM      2  C   UNL     1      -0.055   1.431  -0.216  0.00  0.00    +0.170 C 
ATOM      3  N   UNL     1       1.194   2.002  -0.241  0.00  0.00    -0.258 N 
ATOM      4  C   UNL     1       1.122   3.341  -0.120  0.00  0.00    +0.241 C 
ATOM      5  O   UNL     1       2.053   4.118  -0.108  0.00  0.00    -0.273 OA
ATOM      6  C   UNL     1      -0.347   3.688  -0.003  0.00  0.00    +0.178 C 
ATOM      7  N   UNL     1      -1.037   2.390  -0.081  0.00  0.00    -0.198 N 
ATOM      8  C   UNL     1      -2.368   2.180  -0.027  0.00  0.00    +0.410 C 
ATOM      9  O   UNL     1      -3.131   3.125   0.004  0.00  0.00    -0.226 OA
ATOM     10  H   UNL     1       2.021   1.505  -0.334  0.00  0.00    +0.157 HD
ATOM     11  N   UNL     1      -0.352   0.146  -0.310  0.00  0.00    -0.374 N 
ATOM     12  H   UNL     1      -1.332  -0.157  -0.279  0.00  0.00    +0.158 HD
ENDROOT
BRANCH   8  13
ATOM     13  O   UNL     1      -2.850   0.924  -0.007  0.00  0.00    -0.445 OA
BRANCH  13  14
ATOM     14  C   UNL     1      -4.284   0.771   0.167  0.00  0.00    +0.269 C 
BRANCH  14  15
ATOM     15  C   UNL     1      -4.622  -0.693   0.285  0.00  0.00    -0.010 A 
ATOM     16  C   UNL     1      -4.920  -1.427  -0.848  0.00  0.00    +0.007 A 
ATOM     17  C   UNL     1      -5.226  -2.771  -0.740  0.00  0.00    +0.000 A 
ATOM     18  C   UNL     1      -5.244  -3.378   0.502  0.00  0.00    +0.000 A 
ATOM     19  C   UNL     1      -4.951  -2.643   1.635  0.00  0.00    +0.000 A 
ATOM     20  C   UNL     1      -4.640  -1.300   1.527  0.00  0.00    +0.007 A 
ENDBRANCH  14  15
ENDBRANCH  13  14
ENDBRANCH   8  13
BRANCH   6  21
ATOM     21  C   UNL     1      -0.629   4.370   1.338  0.00  0.00    +0.069 C 
BRANCH  21  22
ATOM     22  C   UNL     1       0.066   5.706   1.377  0.00  0.00    -0.020 A 
ATOM     23  C   UNL     1       1.245   5.976   1.958  0.00  0.00    +0.087 A 
ATOM     24  N   UNL     1       1.558   7.297   1.788  0.00  0.00    -0.360 N 
ATOM     25  H   UNL     1       2.364   7.726   2.117  0.00  0.00    +0.165 HD
ATOM     26  C   UNL     1       0.558   7.928   1.083  0.00  0.00    +0.047 A 
ATOM     27  C   UNL     1      -0.421   6.959   0.795  0.00  0.00    +0.003 A 
ATOM     28  C   UNL     1      -1.566   7.317   0.081  0.00  0.00    +0.010 A 
ATOM     29  C   UNL     1      -1.731   8.608  -0.335  0.00  0.00    +0.001 A 
ATOM     30  C   UNL     1      -0.768   9.568  -0.054  0.00  0.00    +0.002 A 
ATOM     31  C   UNL     1       0.370   9.236   0.649  0.00  0.00    +0.026 A 
ENDBRANCH  21  22
ENDBRANCH   6  21
TORSDOF 5
