REMARK  Name = ZINC39710281
REMARK  14 active torsions:
REMARK  status: ('A' for Active; 'I' for Inactive)
REMARK    1  A    between atoms: C_1  and  C_2
REMARK    2  A    between atoms: C_9  and  C_14
REMARK    3  A    between atoms: C_14  and  C_16
REMARK    4  A    between atoms: C_14  and  N_26
REMARK    5  A    between atoms: N_21  and  C_22
REMARK    6  A    between atoms: C_22  and  C_23
REMARK    7  A    between atoms: C_22  and  C_24
REMARK    8  A    between atoms: C_22  and  C_25
REMARK    9  A    between atoms: N_26  and  C_27
REMARK   10  A    between atoms: N_26  and  C_36
REMARK   11  A    between atoms: C_27  and  C_28
REMARK   12  A    between atoms: C_31  and  O_34
REMARK   13  A    between atoms: O_34  and  C_35
REMARK   14  A    between atoms: C_36  and  C_37
REMARK                            x       y       z     vdW  Elec       q    Type
REMARK                         _______ _______ _______ _____ _____    ______ ____
ROOT
ATOM      1  C   UNL     1       1.094  -4.861   3.115  0.00  0.00    -0.008 C 
ENDROOT
BRANCH   1  10
ATOM      2  C   UNL     1      -5.524  -4.677   5.794  0.00  0.00    +0.044 C 
ATOM      3  C   UNL     1      -4.287  -4.038   5.219  0.00  0.00    -0.050 A 
ATOM      4  C   UNL     1      -4.033  -2.690   5.474  0.00  0.00    +0.005 A 
ATOM      5  C   UNL     1      -2.939  -2.046   4.991  0.00  0.00    +0.024 A 
ATOM      6  C   UNL     1      -2.000  -2.729   4.196  0.00  0.00    +0.040 A 
ATOM      7  N   UNL     1      -0.931  -2.087   3.727  0.00  0.00    -0.285 N 
ATOM      8  C   UNL     1      -0.011  -2.669   2.975  0.00  0.00    +0.223 C 
ATOM      9  O   UNL     1       0.944  -2.031   2.576  0.00  0.00    -0.275 OA
ATOM     10  C   UNL     1      -0.153  -4.130   2.613  0.00  0.00    +0.088 C 
ATOM     11  C   UNL     1      -1.368  -4.865   3.144  0.00  0.00    -0.006 C 
ATOM     12  C   UNL     1      -2.244  -4.154   3.909  0.00  0.00    -0.007 A 
ATOM     13  C   UNL     1      -3.440  -4.787   4.467  0.00  0.00    +0.012 A 
ATOM     14  H   UNL     1      -0.821  -1.149   3.948  0.00  0.00    +0.155 HD
ENDBRANCH   1  10
BRANCH   1  15
ATOM     15  C   UNL     1       2.316  -4.384   2.329  0.00  0.00    +0.205 C 
ATOM     16  N   UNL     1       2.224  -4.815   0.927  0.00  0.00    -0.152 NA
ATOM     17  N   UNL     1       3.180  -5.551   0.673  0.00  0.00    -0.070 NA
ATOM     18  N   UNL     1       4.026  -5.738   1.765  0.00  0.00    -0.179 N 
ATOM     19  N   UNL     1       3.543  -5.032   2.839  0.00  0.00    -0.183 NA
ATOM     20  H   UNL     1       4.830  -6.282   1.766  0.00  0.00    +0.191 HD
BRANCH  19  21
ATOM     21  C   UNL     1       4.516  -4.031   3.295  0.00  0.00    +0.035 C 
ATOM     22  C   UNL     1       3.877  -3.152   4.372  0.00  0.00    +0.029 C 
ATOM     23  C   UNL     1       5.742  -4.739   3.876  0.00  0.00    +0.029 C 
ATOM     24  C   UNL     1       4.944  -3.160   2.112  0.00  0.00    +0.029 C 
ENDBRANCH  19  21
ENDBRANCH   1  15
BRANCH   1  25
ATOM     25  N   UNL     1       0.923  -6.308   2.925  0.00  0.00    +0.392 N 
ATOM     26  H   UNL     1       0.080  -6.611   3.389  0.00  0.00    -0.080 HD
BRANCH  25  27
ATOM     27  C   UNL     1       0.826  -6.605   1.490  0.00  0.00    -0.042 C 
BRANCH  27  28
ATOM     28  C   UNL     1       0.135  -7.930   1.297  0.00  0.00    -0.064 A 
ATOM     29  C   UNL     1       0.876  -9.096   1.258  0.00  0.00    +0.005 A 
ATOM     30  C   UNL     1       0.244 -10.312   1.081  0.00  0.00    +0.046 A 
ATOM     31  C   UNL     1      -1.135 -10.362   0.942  0.00  0.00    +0.120 A 
ATOM     32  C   UNL     1      -1.877  -9.190   0.982  0.00  0.00    +0.046 A 
ATOM     33  C   UNL     1      -1.241  -7.978   1.164  0.00  0.00    +0.005 A 
BRANCH  31  34
ATOM     34  O   UNL     1      -1.759 -11.557   0.767  0.00  0.00    -0.495 OA
ATOM     35  C   UNL     1      -3.181 -11.532   0.631  0.00  0.00    +0.277 C 
ENDBRANCH  31  34
ENDBRANCH  27  28
ENDBRANCH  25  27
BRANCH  25  36
ATOM     36  C   UNL     1       2.078  -7.016   3.495  0.00  0.00    -0.002 C 
BRANCH  36  37
ATOM     37  C   UNL     1       2.163  -6.731   4.972  0.00  0.00    +0.089 A 
ATOM     38  C   UNL     1       1.635  -7.489   5.951  0.00  0.00    +0.042 A 
ATOM     39  C   UNL     1       1.951  -6.855   7.175  0.00  0.00    +0.041 A 
ATOM     40  C   UNL     1       2.652  -5.748   6.870  0.00  0.00    +0.195 A 
ATOM     41  O   UNL     1       2.782  -5.681   5.535  0.00  0.00    -0.470 OA
ENDBRANCH  36  37
ENDBRANCH  25  36
ENDBRANCH   1  25
TORSDOF 9
