REMARK  Name = ZINC39770780
REMARK  12 active torsions:
REMARK  status: ('A' for Active; 'I' for Inactive)
REMARK    1  A    between atoms: C_1  and  C_2
REMARK    2  A    between atoms: C_2  and  C_3
REMARK    3  A    between atoms: C_3  and  C_4
REMARK    4  A    between atoms: C_4  and  N_5
REMARK    5  A    between atoms: C_6  and  N_30
REMARK    6  A    between atoms: C_7  and  C_15
REMARK    7  A    between atoms: C_8  and  C_14
REMARK    8  A    between atoms: C_9  and  C_12
REMARK    9  A    between atoms: N_19  and  C_23
REMARK   10  A    between atoms: C_23  and  C_24
REMARK   11  A    between atoms: C_32  and  C_39
REMARK   12  A    between atoms: C_35  and  C_38
REMARK                            x       y       z     vdW  Elec       q    Type
REMARK                         _______ _______ _______ _____ _____    ______ ____
ROOT
ATOM      1  N   UNL     1       1.972  -2.555  -2.580  0.00  0.00    -0.295 N 
ATOM      2  C   UNL     1       1.107  -2.730  -3.612  0.00  0.00    +0.112 A 
ATOM      3  C   UNL     1       1.477  -3.494  -4.731  0.00  0.00    +0.019 A 
ATOM      4  C   UNL     1       2.754  -4.078  -4.777  0.00  0.00    -0.017 A 
ATOM      5  C   UNL     1       3.622  -3.884  -3.707  0.00  0.00    +0.120 A 
ATOM      6  C   UNL     1       3.202  -3.099  -2.603  0.00  0.00    +0.270 A 
ATOM      7  O   UNL     1       3.960  -2.921  -1.665  0.00  0.00    -0.266 OA
ATOM      8  C   UNL     1       3.176  -4.903  -5.966  0.00  0.00    +0.046 C 
ENDROOT
BRANCH   3   9
ATOM      9  C   UNL     1       0.539  -3.679  -5.840  0.00  0.00    +0.032 C 
ATOM     10  C   UNL     1       0.816  -3.147  -7.061  0.00  0.00    +0.077 C 
ATOM     11  C   UNL     1       1.890  -2.294  -7.458  0.00  0.00    +0.258 C 
ATOM     12  O   UNL     1       2.735  -1.935  -6.658  0.00  0.00    -0.269 OA
ATOM     13  N   UNL     1       1.941  -1.907  -8.721  0.00  0.00    -0.253 N 
ATOM     14  C   UNL     1       1.004  -2.306  -9.609  0.00  0.00    +0.121 C 
ATOM     15  S   UNL     1       0.874  -1.929 -11.274  0.00  0.00    -0.027 S 
ATOM     16  S   UNL     1      -0.063  -3.330  -8.607  0.00  0.00    -0.061 S 
BRANCH  13  17
ATOM     17  C   UNL     1       3.029  -1.032  -9.165  0.00  0.00    +0.146 C 
BRANCH  17  18
ATOM     18  C   UNL     1       4.207  -1.885  -9.642  0.00  0.00    +0.136 C 
ATOM     19  C   UNL     1       5.402  -0.975  -9.997  0.00  0.00    +0.035 C 
ATOM     20  C   UNL     1       5.974  -1.663 -11.267  0.00  0.00    +0.031 C 
ATOM     21  C   UNL     1       4.675  -2.195 -11.923  0.00  0.00    +0.160 C 
ATOM     22  O   UNL     1       3.839  -2.602 -10.826  0.00  0.00    -0.375 OA
ENDBRANCH  17  18
ENDBRANCH  13  17
ENDBRANCH   3   9
BRANCH   2  23
ATOM     23  N   UNL     1      -0.131  -2.159  -3.561  0.00  0.00    -0.311 N 
ATOM     24  C   UNL     1      -1.248  -2.833  -2.879  0.00  0.00    +0.137 C 
ATOM     25  C   UNL     1      -2.448  -2.862  -3.832  0.00  0.00    +0.133 C 
ATOM     26  O   UNL     1      -2.702  -1.539  -4.310  0.00  0.00    -0.371 OA
ATOM     27  C   UNL     1      -1.632  -0.977  -5.074  0.00  0.00    +0.133 C 
ATOM     28  C   UNL     1      -0.388  -0.849  -4.180  0.00  0.00    +0.137 C 
ATOM     29  C   UNL     1      -2.038   0.407  -5.583  0.00  0.00    +0.039 C 
ATOM     30  C   UNL     1      -3.679  -3.382  -3.087  0.00  0.00    +0.039 C 
ENDBRANCH   2  23
BRANCH   5  31
ATOM     31  C   UNL     1       4.930  -4.466  -3.723  0.00  0.00    +0.105 C 
ATOM     32  N   UNL     1       5.968  -4.928  -3.736  0.00  0.00    -0.191 NA
ENDBRANCH   5  31
BRANCH   1  33
ATOM     33  C   UNL     1       1.562  -1.753  -1.424  0.00  0.00    +0.126 C 
BRANCH  33  34
ATOM     34  C   UNL     1       2.044  -0.313  -1.605  0.00  0.00    +0.021 C 
BRANCH  34  36
ATOM     35  C   UNL     1       2.097   1.965  -0.578  0.00  0.00    +0.004 C 
ATOM     36  C   UNL     1       1.615   0.524  -0.398  0.00  0.00    -0.002 C 
ENDBRANCH  34  36
ENDBRANCH  33  34
ENDBRANCH   1  33
TORSDOF 8
