REMARK  Name = ZINC04548869
REMARK  7 active torsions:
REMARK  status: ('A' for Active; 'I' for Inactive)
REMARK    1  A    between atoms: C_1  and  C_2
REMARK    2  A    between atoms: C_3  and  N_21
REMARK    3  A    between atoms: C_4  and  C_20
REMARK    4  A    between atoms: N_5  and  C_7
REMARK    5  A    between atoms: C_7  and  C_8
REMARK    6  A    between atoms: N_10  and  C_11
REMARK    7  A    between atoms: C_17  and  C_19
REMARK                            x       y       z     vdW  Elec       q    Type
REMARK                         _______ _______ _______ _____ _____    ______ ____
ROOT
ATOM      1  C   UNL     1      -4.214   0.561  -2.380  0.00  0.00    +0.239 C 
ENDROOT
BRANCH   1   6
ATOM      2  C   UNL     1      -9.014  -0.870  -2.056  0.00  0.00    +0.070 C 
ATOM      3  C   UNL     1      -7.747  -0.057  -1.978  0.00  0.00    +0.090 A 
ATOM      4  C   UNL     1      -7.643   1.256  -1.507  0.00  0.00    +0.169 A 
ATOM      5  C   UNL     1      -6.346   1.629  -1.600  0.00  0.00    +0.067 A 
ATOM      6  N   UNL     1      -5.654   0.590  -2.111  0.00  0.00    -0.257 N 
ATOM      7  N   UNL     1      -6.556  -0.456  -2.346  0.00  0.00    -0.173 NA
ATOM      8  C   UNL     1      -5.776   2.966  -1.203  0.00  0.00    +0.068 C 
BRANCH   4   9
ATOM      9  N   UNL     1      -8.755   2.089  -0.997  0.00  0.00    +0.060 N 
ATOM     10  O   UNL     1      -9.387   2.796  -1.762  0.00  0.00    -0.126 OA
ATOM     11  O   UNL     1      -9.038   2.067   0.187  0.00  0.00    -0.126 OA
ENDBRANCH   4   9
ENDBRANCH   1   6
BRANCH   1  12
ATOM     12  C   UNL     1      -3.485   0.062  -1.159  0.00  0.00    +0.235 C 
ATOM     13  O   UNL     1      -4.107  -0.240  -0.163  0.00  0.00    -0.274 OA
ATOM     14  N   UNL     1      -2.142  -0.048  -1.174  0.00  0.00    -0.311 N 
ATOM     15  H   UNL     1      -1.644   0.194  -1.971  0.00  0.00    +0.149 HD
BRANCH  14  16
ATOM     16  C   UNL     1      -1.433  -0.534   0.013  0.00  0.00    +0.076 C 
ATOM     17  C   UNL     1      -1.413  -2.063   0.004  0.00  0.00    +0.022 C 
ATOM     18  C   UNL     1      -0.673  -2.570   1.244  0.00  0.00    +0.002 C 
ATOM     19  C   UNL     1       0.763  -2.041   1.233  0.00  0.00    +0.000 C 
ATOM     20  C   UNL     1       0.742  -0.511   1.242  0.00  0.00    +0.005 C 
ATOM     21  C   UNL     1       0.002  -0.004   0.002  0.00  0.00    +0.006 C 
ATOM     22  C   UNL     1      -0.019   1.526   0.010  0.00  0.00    +0.009 C 
ENDBRANCH  14  16
ENDBRANCH   1  12
TORSDOF 4
