REMARK  Name = ZINC63821994
REMARK  9 active torsions:
REMARK  status: ('A' for Active; 'I' for Inactive)
REMARK    1  A    between atoms: C_1  and  C_2
REMARK    2  A    between atoms: C_2  and  O_3
REMARK    3  A    between atoms: O_3  and  C_4
REMARK    4  A    between atoms: C_6  and  C_14
REMARK    5  A    between atoms: C_9  and  O_10
REMARK    6  A    between atoms: O_10  and  C_11
REMARK    7  A    between atoms: C_11  and  C_12
REMARK    8  A    between atoms: C_23  and  C_33
REMARK    9  A    between atoms: N_25  and  C_26
REMARK                            x       y       z     vdW  Elec       q    Type
REMARK                         _______ _______ _______ _____ _____    ______ ____
ROOT
ATOM      1  C   UNL     1      -0.217  -4.963  -0.535  0.00  0.00    +0.059 C 
ATOM      2  C   UNL     1       0.878  -5.864  -1.125  0.00  0.00    +0.108 C 
ATOM      3  C   UNL     1       1.166  -7.038  -0.246  0.00  0.00    +0.216 C 
ATOM      4  O   UNL     1       2.231  -7.591  -0.423  0.00  0.00    -0.276 OA
ATOM      5  N   UNL     1       0.389  -7.549   0.710  0.00  0.00    -0.292 N 
ATOM      6  C   UNL     1      -0.811  -6.873   1.187  0.00  0.00    +0.210 C 
ATOM      7  C   UNL     1      -1.226  -5.886   0.104  0.00  0.00    -0.004 C 
ATOM      8  C   UNL     1      -2.499  -6.046  -0.115  0.00  0.00    +0.022 C 
ATOM      9  N   UNL     1      -3.014  -7.097   0.630  0.00  0.00    -0.265 N 
ATOM     10  N   UNL     1      -1.964  -7.760   1.339  0.00  0.00    -0.210 N 
ATOM     11  C   UNL     1      -3.312  -5.197  -1.059  0.00  0.00    +0.062 C 
ATOM     12  H   UNL     1       0.631  -8.402   1.102  0.00  0.00    +0.151 HD
ATOM     13  H   UNL     1      -3.951  -7.343   0.671  0.00  0.00    +0.170 HD
ENDROOT
BRANCH  10  14
ATOM     14  C   UNL     1      -2.014  -8.976   2.017  0.00  0.00    +0.162 A 
ATOM     15  C   UNL     1      -3.205  -9.701   2.066  0.00  0.00    +0.052 A 
ATOM     16  C   UNL     1      -3.204 -10.904   2.752  0.00  0.00    +0.077 A 
ATOM     17  C   UNL     1      -2.015 -11.314   3.352  0.00  0.00    +0.289 A 
ATOM     18  O   UNL     1      -1.967 -12.486   4.036  0.00  0.00    -0.264 OA
ATOM     19  N   UNL     1      -0.934 -10.560   3.254  0.00  0.00    -0.105 NA
ATOM     20  N   UNL     1      -0.931  -9.448   2.613  0.00  0.00    -0.129 NA
ENDBRANCH  10  14
BRANCH   1  23
ATOM     21  C   UNL     1       0.802  -1.825   1.306  0.00  0.00    +0.162 A 
ATOM     22  C   UNL     1       0.261  -2.673   0.353  0.00  0.00    +0.053 A 
ATOM     23  C   UNL     1       0.372  -4.043   0.502  0.00  0.00    -0.036 A 
ATOM     24  C   UNL     1       1.024  -4.570   1.602  0.00  0.00    +0.008 A 
ATOM     25  C   UNL     1       1.566  -3.730   2.557  0.00  0.00    +0.050 A 
ATOM     26  C   UNL     1       1.462  -2.356   2.410  0.00  0.00    +0.163 A 
BRANCH  21  27
ATOM     27  O   UNL     1       0.693  -0.477   1.160  0.00  0.00    -0.489 OA
BRANCH  27  29
ATOM     28  C   UNL     1      -0.019   1.526   0.010  0.00  0.00    +0.048 C 
ATOM     29  C   UNL     1       0.002  -0.004   0.002  0.00  0.00    +0.226 C 
ENDBRANCH  27  29
ENDBRANCH  21  27
BRANCH  26  30
ATOM     30  O   UNL     1       2.000  -1.528   3.345  0.00  0.00    -0.476 OA
BRANCH  30  31
ATOM     31  C   UNL     1       2.664  -2.143   4.451  0.00  0.00    +0.317 C 
BRANCH  31  32
ATOM     32  C   UNL     1       3.179  -1.101   5.355  0.00  0.00    -0.065 C 
ATOM     33  C   UNL     1       3.590  -0.271   6.075  0.00  0.00    +0.007 C 
ENDBRANCH  31  32
ENDBRANCH  30  31
ENDBRANCH  26  30
ENDBRANCH   1  23
TORSDOF 7
