REMARK  Name = ZINC64450337
REMARK  3 active torsions:
REMARK  status: ('A' for Active; 'I' for Inactive)
REMARK    1  A    between atoms: C_1  and  C_2
REMARK    2  A    between atoms: C_4  and  C_23
REMARK    3  A    between atoms: N_12  and  C_14
REMARK                            x       y       z     vdW  Elec       q    Type
REMARK                         _______ _______ _______ _____ _____    ______ ____
ROOT
ATOM      1  C   UNL     1      -0.002   1.496   0.087  0.00  0.00    +0.062 C 
ATOM      2  C   UNL     1       0.014  -0.011   0.075  0.00  0.00    +0.019 C 
ATOM      3  C   UNL     1      -1.051  -0.758   0.137  0.00  0.00    -0.008 C 
ATOM      4  C   UNL     1      -2.495  -0.408   0.400  0.00  0.00    +0.058 C 
ATOM      5  C   UNL     1      -2.881  -1.130   1.699  0.00  0.00    +0.108 C 
ATOM      6  C   UNL     1      -2.252  -2.482   1.792  0.00  0.00    +0.215 C 
ATOM      7  O   UNL     1      -2.768  -3.261   2.566  0.00  0.00    -0.276 OA
ATOM      8  N   UNL     1      -1.189  -2.933   1.125  0.00  0.00    -0.295 N 
ATOM      9  C   UNL     1      -0.597  -2.203   0.011  0.00  0.00    +0.194 C 
ATOM     10  N   UNL     1       0.866  -2.116   0.077  0.00  0.00    -0.164 NA
ATOM     11  N   UNL     1       1.163  -0.781  -0.010  0.00  0.00    -0.277 N 
ATOM     12  H   UNL     1      -0.795  -3.779   1.391  0.00  0.00    +0.151 HD
ATOM     13  H   UNL     1       2.059  -0.422  -0.114  0.00  0.00    +0.166 HD
ENDROOT
BRANCH  10  14
ATOM     14  C   UNL     1       1.488  -2.863  -1.024  0.00  0.00    +0.270 C 
ATOM     15  N   UNL     1       0.994  -2.365  -2.313  0.00  0.00    -0.350 N 
ATOM     16  C   UNL     1       0.402  -3.356  -2.914  0.00  0.00    +0.061 A 
ATOM     17  C   UNL     1      -0.278  -3.476  -4.211  0.00  0.00    +0.027 A 
ATOM     18  C   UNL     1      -0.810  -4.659  -4.577  0.00  0.00    +0.002 A 
ATOM     19  C   UNL     1      -0.744  -5.804  -3.763  0.00  0.00    +0.002 A 
ATOM     20  C   UNL     1      -0.144  -5.803  -2.555  0.00  0.00    +0.027 A 
ATOM     21  C   UNL     1       0.472  -4.568  -2.053  0.00  0.00    +0.061 A 
ATOM     22  N   UNL     1       1.105  -4.279  -0.952  0.00  0.00    -0.350 N 
ATOM     23  H   UNL     1       1.091  -1.462  -2.655  0.00  0.00    +0.163 HD
ATOM     24  H   UNL     1       1.290  -4.887  -0.220  0.00  0.00    +0.163 HD
ENDBRANCH  10  14
BRANCH   4  25
ATOM     25  C   UNL     1      -2.644   1.082   0.569  0.00  0.00    -0.034 A 
ATOM     26  C   UNL     1      -3.040   1.862  -0.501  0.00  0.00    +0.042 A 
ATOM     27  C   UNL     1      -3.177   3.232  -0.347  0.00  0.00    +0.126 A 
ATOM     28  C   UNL     1      -2.918   3.819   0.879  0.00  0.00    +0.076 A 
ATOM     29  C   UNL     1      -2.522   3.037   1.950  0.00  0.00    +0.126 A 
ATOM     30  C   UNL     1      -2.391   1.667   1.795  0.00  0.00    +0.042 A 
ATOM     31  F   UNL     1      -2.269   3.609   3.148  0.00  0.00    -0.205 F 
ATOM     32  F   UNL     1      -3.563   3.994  -1.394  0.00  0.00    -0.205 F 
ENDBRANCH   4  25
TORSDOF 2
