REMARK  Name = ZINC43258307
REMARK  6 active torsions:
REMARK  status: ('A' for Active; 'I' for Inactive)
REMARK    1  A    between atoms: C_5  and  C_6
REMARK    2  A    between atoms: C_6  and  C_8
REMARK    3  A    between atoms: C_6  and  S_10
REMARK    4  A    between atoms: C_8  and  N_9
REMARK    5  A    between atoms: S_10  and  C_11
REMARK    6  A    between atoms: C_16  and  N_18
REMARK                            x       y       z     vdW  Elec       q    Type
REMARK                         _______ _______ _______ _____ _____    ______ ____
ROOT
ATOM      1  C   UNL     1      -1.132  -1.007  -0.013  0.00  0.00    +0.073 C 
ENDROOT
BRANCH   1   6
ATOM      2  C   UNL     1       0.256   1.167   0.152  0.00  0.00    +0.014 A 
ATOM      3  C   UNL     1       1.521   1.713   0.266  0.00  0.00    +0.028 A 
ATOM      4  C   UNL     1       2.592   0.883   0.329  0.00  0.00    +0.078 A 
ATOM      5  S   UNL     1       1.819  -0.724   0.227  0.00  0.00    -0.081 S 
ATOM      6  C   UNL     1       0.123  -0.180   0.107  0.00  0.00    +0.003 A 
ATOM      7 CL   UNL     1       4.276   1.279   0.471  0.00  0.00    -0.076 Cl
ENDBRANCH   1   6
BRANCH   1   8
ATOM      8  C   UNL     1      -1.258  -1.921   1.208  0.00  0.00    -0.066 C 
BRANCH   8   9
ATOM      9  N   UNL     1      -2.543  -2.633   1.155  0.00  0.00    +0.379 N 
ATOM     10  H   UNL     1      -2.664  -3.171   1.999  0.00  0.00    -0.090 HD
ATOM     11  H   UNL     1      -3.294  -1.964   1.072  0.00  0.00    -0.090 HD
ATOM     12  H   UNL     1      -2.552  -3.251   0.357  0.00  0.00    -0.090 HD
ENDBRANCH   8   9
ENDBRANCH   1   8
BRANCH   1  13
ATOM     13  S   UNL     1      -1.050  -2.015  -1.518  0.00  0.00    -0.079 S 
BRANCH  13  14
ATOM     14  C   UNL     1      -1.141  -0.837  -2.825  0.00  0.00    +0.194 A 
ATOM     15  N   UNL     1      -1.342   0.439  -2.531  0.00  0.00    -0.183 NA
ATOM     16  C   UNL     1      -1.416   1.356  -3.491  0.00  0.00    +0.276 A 
ATOM     17  O   UNL     1      -1.621   2.659  -3.181  0.00  0.00    -0.266 OA
ATOM     18  C   UNL     1      -1.280   0.961  -4.817  0.00  0.00    +0.115 A 
ATOM     19  C   UNL     1      -1.070  -0.388  -5.089  0.00  0.00    +0.124 A 
ATOM     20  N   UNL     1      -1.002  -1.250  -4.077  0.00  0.00    -0.207 NA
BRANCH  19  21
ATOM     21  N   UNL     1      -0.930  -0.828  -6.396  0.00  0.00    -0.343 N 
ATOM     22  H   UNL     1      -0.977  -0.194  -7.128  0.00  0.00    +0.144 HD
ATOM     23  H   UNL     1      -0.784  -1.769  -6.578  0.00  0.00    +0.144 HD
ENDBRANCH  19  21
ENDBRANCH  13  14
ENDBRANCH   1  13
TORSDOF 6
