REMARK  Name = ZINC65721579
REMARK  7 active torsions:
REMARK  status: ('A' for Active; 'I' for Inactive)
REMARK    1  A    between atoms: C_1  and  C_2
REMARK    2  A    between atoms: C_4  and  C_30
REMARK    3  A    between atoms: C_6  and  N_8
REMARK    4  A    between atoms: C_9  and  N_14
REMARK    5  A    between atoms: C_11  and  C_13
REMARK    6  A    between atoms: C_15  and  C_17
REMARK    7  A    between atoms: C_20  and  C_25
REMARK                            x       y       z     vdW  Elec       q    Type
REMARK                         _______ _______ _______ _____ _____    ______ ____
ROOT
ATOM      1  N   UNL     1       1.428  -1.258   3.724  0.00  0.00    -0.266 N 
ATOM      2  C   UNL     1       1.989  -1.000   4.922  0.00  0.00    +0.255 C 
ATOM      3  O   UNL     1       1.773  -1.736   5.867  0.00  0.00    -0.270 OA
ATOM      4  H   UNL     1       1.536  -0.630   2.993  0.00  0.00    +0.157 HD
ENDROOT
BRANCH   2   5
ATOM      5  C   UNL     1       2.861   0.169   5.087  0.00  0.00    +0.101 A 
ATOM      6  C   UNL     1       3.539   0.381   6.293  0.00  0.00    +0.020 A 
ATOM      7  C   UNL     1       4.355   1.492   6.422  0.00  0.00    +0.030 A 
ATOM      8  C   UNL     1       4.492   2.377   5.361  0.00  0.00    +0.085 A 
ATOM      9  N   UNL     1       3.828   2.164   4.183  0.00  0.00    -0.319 N 
ATOM     10  H   UNL     1       3.935   2.793   3.452  0.00  0.00    +0.169 HD
ATOM     11  C   UNL     1       3.031   1.091   4.025  0.00  0.00    +0.261 A 
ATOM     12  O   UNL     1       2.450   0.915   2.967  0.00  0.00    -0.267 OA
BRANCH   8  13
ATOM     13  C   UNL     1       5.357   3.550   5.503  0.00  0.00    +0.151 A 
ATOM     14  C   UNL     1       5.581   4.504   4.549  0.00  0.00    +0.051 A 
ATOM     15  C   UNL     1       6.468   5.436   5.110  0.00  0.00    +0.042 A 
ATOM     16  C   UNL     1       6.743   5.018   6.365  0.00  0.00    +0.196 A 
ATOM     17  O   UNL     1       6.068   3.884   6.600  0.00  0.00    -0.461 OA
ENDBRANCH   8  13
ENDBRANCH   2   5
BRANCH   1  19
ATOM     18  N   UNL     1       0.072  -2.813   2.389  0.00  0.00    -0.218 N 
ATOM     19  C   UNL     1       0.691  -2.426   3.538  0.00  0.00    +0.129 A 
ATOM     20  C   UNL     1       0.459  -3.390   4.470  0.00  0.00    +0.068 A 
ATOM     21  C   UNL     1      -0.319  -4.386   3.874  0.00  0.00    +0.062 A 
ATOM     22  N   UNL     1      -0.556  -4.041   2.634  0.00  0.00    -0.170 NA
ATOM     23  C   UNL     1      -0.808  -5.643   4.547  0.00  0.00    +0.067 C 
BRANCH  18  29
ATOM     24  C   UNL     1      -0.004   1.482  -0.006  0.00  0.00    +0.044 C 
ATOM     25  C   UNL     1       0.024  -0.024  -0.011  0.00  0.00    -0.048 A 
ATOM     26  C   UNL     1       0.037  -0.711  -1.211  0.00  0.00    +0.006 A 
ATOM     27  C   UNL     1       0.062  -2.094  -1.219  0.00  0.00    -0.048 A 
ATOM     28  C   UNL     1       0.073  -2.793  -0.028  0.00  0.00    +0.031 A 
ATOM     29  C   UNL     1       0.061  -2.106   1.178  0.00  0.00    +0.068 A 
ATOM     30  C   UNL     1       0.041  -0.718   1.184  0.00  0.00    +0.031 A 
ATOM     31  C   UNL     1       0.076  -2.838  -2.530  0.00  0.00    +0.044 C 
ENDBRANCH  18  29
ENDBRANCH   1  19
TORSDOF 4
