REMARK  Name = ZINC20853316
REMARK  9 active torsions:
REMARK  status: ('A' for Active; 'I' for Inactive)
REMARK    1  A    between atoms: C_1  and  C_2
REMARK    2  A    between atoms: C_3  and  N_15
REMARK    3  A    between atoms: N_6  and  C_9
REMARK    4  A    between atoms: N_7  and  C_8
REMARK    5  A    between atoms: C_16  and  C_18
REMARK    6  A    between atoms: C_18  and  C_20
REMARK    7  A    between atoms: C_18  and  O_21
REMARK    8  A    between atoms: O_21  and  C_22
REMARK    9  A    between atoms: C_22  and  C_24
REMARK                            x       y       z     vdW  Elec       q    Type
REMARK                         _______ _______ _______ _____ _____    ______ ____
ROOT
ATOM      1  C   UNL     1     -10.389  -1.534  -1.232  0.00  0.00    +0.259 C 
ATOM      2  C   UNL     1     -10.786  -3.007  -1.348  0.00  0.00    +0.062 C 
ENDROOT
BRANCH   1   4
ATOM      3  N   UNL     1     -12.725  -0.734  -1.083  0.00  0.00    -0.277 N 
ATOM      4  C   UNL     1     -11.490  -0.770  -0.543  0.00  0.00    +0.258 C 
ATOM      5  O   UNL     1     -11.266  -0.188   0.497  0.00  0.00    -0.271 OA
ATOM      6  H   UNL     1     -12.909  -1.190  -2.067  0.00  0.00    +0.155 HD
BRANCH   3   9
ATOM      7  C   UNL     1     -14.423   1.572  -2.184  0.00  0.00    +0.067 C 
ATOM      8  C   UNL     1     -14.548   0.906  -0.838  0.00  0.00    +0.059 A 
ATOM      9  C   UNL     1     -13.780  -0.111  -0.387  0.00  0.00    +0.121 A 
ATOM     10  C   UNL     1     -14.252  -0.447   0.957  0.00  0.00    +0.293 A 
ATOM     11  O   UNL     1     -13.808  -1.318   1.684  0.00  0.00    -0.264 OA
ATOM     12  N   UNL     1     -15.269   0.393   1.237  0.00  0.00    -0.216 N 
ATOM     13  N   UNL     1     -15.460   1.229   0.131  0.00  0.00    -0.282 N 
ATOM     14  C   UNL     1     -16.473   2.282   0.027  0.00  0.00    +0.171 C 
BRANCH  12  15
ATOM     15  C   UNL     1     -16.009   0.419   2.424  0.00  0.00    +0.067 A 
ATOM     16  C   UNL     1     -16.242   1.625   3.072  0.00  0.00    +0.028 A 
ATOM     17  C   UNL     1     -16.977   1.648   4.241  0.00  0.00    +0.002 A 
ATOM     18  C   UNL     1     -17.472   0.471   4.772  0.00  0.00    +0.000 A 
ATOM     19  C   UNL     1     -17.238  -0.732   4.131  0.00  0.00    +0.002 A 
ATOM     20  C   UNL     1     -16.508  -0.762   2.959  0.00  0.00    +0.028 A 
ENDBRANCH  12  15
ENDBRANCH   3   9
ENDBRANCH   1   4
BRANCH   1  21
ATOM     21  O   UNL     1      -9.165  -1.422  -0.459  0.00  0.00    -0.449 OA
BRANCH  21  22
ATOM     22  C   UNL     1      -8.004  -1.469  -1.141  0.00  0.00    +0.340 C 
ATOM     23  O   UNL     1      -8.014  -1.601  -2.349  0.00  0.00    -0.245 OA
BRANCH  22  24
ATOM     24  C   UNL     1      -6.721  -1.361  -0.422  0.00  0.00    +0.060 A 
ATOM     25  C   UNL     1      -6.728  -1.211   0.970  0.00  0.00    +0.017 A 
ATOM     26  C   UNL     1      -5.574  -1.105   1.700  0.00  0.00    +0.027 A 
ATOM     27  C   UNL     1      -4.367  -1.153   1.001  0.00  0.00    +0.047 A 
ATOM     28  C   UNL     1      -4.346  -1.306  -0.411  0.00  0.00    +0.004 A 
ATOM     29  C   UNL     1      -5.526  -1.412  -1.146  0.00  0.00    +0.025 A 
ATOM     30  C   UNL     1      -2.947  -1.315  -0.791  0.00  0.00    -0.019 A 
ATOM     31  C   UNL     1      -2.228  -1.178   0.344  0.00  0.00    +0.020 A 
ATOM     32  N   UNL     1      -3.072  -1.079   1.419  0.00  0.00    -0.358 N 
ATOM     33  H   UNL     1      -2.846  -0.958   2.489  0.00  0.00    +0.166 HD
ATOM     34  C   UNL     1      -0.718  -1.145   0.381  0.00  0.00    +0.053 C 
ATOM     35  C   UNL     1      -0.184  -1.702  -0.943  0.00  0.00    +0.006 C 
ATOM     36  C   UNL     1      -0.884  -0.999  -2.110  0.00  0.00    +0.005 C 
ATOM     37  C   UNL     1      -2.349  -1.449  -2.168  0.00  0.00    +0.037 C 
ENDBRANCH  22  24
ENDBRANCH  21  22
ENDBRANCH   1  21
TORSDOF 6
