REMARK  Name = ZINC09809850
REMARK  7 active torsions:
REMARK  status: ('A' for Active; 'I' for Inactive)
REMARK    1  A    between atoms: C_1  and  N_2
REMARK    2  A    between atoms: C_3  and  C_22
REMARK    3  A    between atoms: C_6  and  S_7
REMARK    4  A    between atoms: S_7  and  C_8
REMARK    5  A    between atoms: C_8  and  C_9
REMARK    6  A    between atoms: N_11  and  N_12
REMARK    7  A    between atoms: C_13  and  C_15
REMARK                            x       y       z     vdW  Elec       q    Type
REMARK                         _______ _______ _______ _____ _____    ______ ____
ROOT
ATOM      1  C   UNL     1       4.882   1.155  -0.653  0.00  0.00    +0.174 C 
ENDROOT
BRANCH   1   2
ATOM      2  C   UNL     1       3.582   1.884  -0.870  0.00  0.00    +0.239 C 
ATOM      3  O   UNL     1       3.562   3.096  -0.891  0.00  0.00    -0.273 OA
ATOM      4  N   UNL     1       2.440   1.189  -1.042  0.00  0.00    -0.233 N 
ATOM      5  H   UNL     1       2.455   0.219  -1.026  0.00  0.00    +0.173 HD
BRANCH   4   6
ATOM      6  N   UNL     1       1.231   1.867  -1.244  0.00  0.00    -0.230 N 
ATOM      7  C   UNL     1       0.089   1.172  -1.416  0.00  0.00    +0.260 C 
ATOM      8  O   UNL     1       0.108  -0.043  -1.396  0.00  0.00    -0.269 OA
ATOM      9  H   UNL     1       1.215   2.837  -1.260  0.00  0.00    +0.173 HD
BRANCH   7  10
ATOM     10  C   UNL     1      -1.185   1.887  -1.635  0.00  0.00    +0.038 A 
ATOM     11  C   UNL     1      -1.211   3.283  -1.653  0.00  0.00    +0.016 A 
ATOM     12  C   UNL     1      -2.402   3.945  -1.863  0.00  0.00    +0.039 A 
ATOM     13  C   UNL     1      -3.574   3.228  -2.045  0.00  0.00    +0.123 A 
ATOM     14  C   UNL     1      -3.555   1.841  -2.023  0.00  0.00    +0.039 A 
ATOM     15  C   UNL     1      -2.369   1.169  -1.819  0.00  0.00    +0.016 A 
ATOM     16  F   UNL     1      -4.739   3.882  -2.245  0.00  0.00    -0.205 F 
ENDBRANCH   7  10
ENDBRANCH   4   6
ENDBRANCH   1   2
BRANCH   1  17
ATOM     17  S   UNL     1       6.222   2.356  -0.457  0.00  0.00    -0.077 S 
BRANCH  17  23
ATOM     18  C   UNL     1       9.430   2.977   0.045  0.00  0.00    +0.153 C 
ATOM     19  N   UNL     1       8.886   1.618  -0.023  0.00  0.00    -0.305 N 
ATOM     20  C   UNL     1       9.580   0.437   0.104  0.00  0.00    +0.166 A 
ATOM     21  N   UNL     1       8.709  -0.537  -0.020  0.00  0.00    -0.128 NA
ATOM     22  N   UNL     1       7.533  -0.053  -0.208  0.00  0.00    -0.122 NA
ATOM     23  C   UNL     1       7.583   1.260  -0.225  0.00  0.00    +0.192 A 
BRANCH  20  24
ATOM     24  C   UNL     1      11.032   0.292   0.338  0.00  0.00    +0.038 A 
ATOM     25  C   UNL     1      11.662   1.050   1.327  0.00  0.00    +0.013 A 
ATOM     26  C   UNL     1      13.018   0.910   1.540  0.00  0.00    +0.001 A 
ATOM     27  C   UNL     1      13.754   0.020   0.777  0.00  0.00    +0.001 A 
ATOM     28  C   UNL     1      13.136  -0.734  -0.205  0.00  0.00    +0.021 A 
ATOM     29  C   UNL     1      11.779  -0.607  -0.425  0.00  0.00    +0.052 A 
ATOM     30 CL   UNL     1      11.005  -1.560  -1.653  0.00  0.00    -0.083 Cl
ENDBRANCH  20  24
ENDBRANCH  17  23
ENDBRANCH   1  17
TORSDOF 6
