REMARK  Name = ZINC38610142
REMARK  8 active torsions:
REMARK  status: ('A' for Active; 'I' for Inactive)
REMARK    1  A    between atoms: C_1  and  C_2
REMARK    2  A    between atoms: C_2  and  C_4
REMARK    3  A    between atoms: C_2  and  N_22
REMARK    4  A    between atoms: N_6  and  C_7
REMARK    5  A    between atoms: C_15  and  C_17
REMARK    6  A    between atoms: C_17  and  O_19
REMARK    7  A    between atoms: O_19  and  C_20
REMARK    8  A    between atoms: C_25  and  C_28
REMARK                            x       y       z     vdW  Elec       q    Type
REMARK                         _______ _______ _______ _____ _____    ______ ____
ROOT
ATOM      1  C   UNL     1       1.425   0.363   1.404  0.00  0.00    +0.203 C 
ATOM      2  O   UNL     1       0.590  -0.350   1.918  0.00  0.00    -0.277 OA
ATOM      3  N   UNL     1       2.654   0.463   1.947  0.00  0.00    -0.288 N 
ATOM      4  H   UNL     1       3.303   1.076   1.568  0.00  0.00    +0.155 HD
ENDROOT
BRANCH   3   5
ATOM      5  C   UNL     1       2.984  -0.297   3.029  0.00  0.00    +0.053 C 
ATOM      6  C   UNL     1       4.231  -0.414   3.618  0.00  0.00    +0.019 A 
ATOM      7  C   UNL     1       5.487   0.169   3.321  0.00  0.00    +0.031 A 
ATOM      8  C   UNL     1       6.566  -0.133   4.085  0.00  0.00    +0.042 A 
ATOM      9  C   UNL     1       6.473  -1.012   5.169  0.00  0.00    +0.022 A 
ATOM     10  C   UNL     1       5.305  -1.607   5.511  0.00  0.00    +0.027 A 
ATOM     11  C   UNL     1       4.130  -1.340   4.760  0.00  0.00    +0.045 A 
ATOM     12  N   UNL     1       2.896  -1.782   4.886  0.00  0.00    -0.367 N 
ATOM     13  C   UNL     1       2.063  -1.182   3.839  0.00  0.00    +0.234 C 
ATOM     14 CL   UNL     1       8.099   0.588   3.708  0.00  0.00    -0.084 Cl
ATOM     15  H   UNL     1       2.586  -2.402   5.564  0.00  0.00    +0.161 HD
BRANCH  13  16
ATOM     16  C   UNL     1       0.962  -0.359   4.456  0.00  0.00    +0.335 C 
ATOM     17  O   UNL     1       1.200   0.358   5.399  0.00  0.00    -0.248 OA
BRANCH  16  18
ATOM     18  O   UNL     1      -0.283  -0.422   3.958  0.00  0.00    -0.466 OA
ATOM     19  C   UNL     1      -1.277   0.386   4.592  0.00  0.00    +0.280 C 
ENDBRANCH  16  18
ENDBRANCH  13  16
ENDBRANCH   3   5
BRANCH   1  21
ATOM     20  C   UNL     1       0.588   2.532   0.541  0.00  0.00    -0.004 C 
ATOM     21  C   UNL     1       1.087   1.138   0.156  0.00  0.00    +0.016 C 
BRANCH  21  22
ATOM     22  N   UNL     1       0.038   0.431  -0.591  0.00  0.00    +0.387 N 
ATOM     23  C   UNL     1      -0.294   1.190  -1.803  0.00  0.00    -0.077 C 
ATOM     24  C   UNL     1      -1.442   0.501  -2.543  0.00  0.00    -0.006 C 
ATOM     25  C   UNL     1      -1.014  -0.918  -2.929  0.00  0.00    +0.071 C 
ATOM     26  C   UNL     1      -0.599  -1.677  -1.665  0.00  0.00    -0.006 C 
ATOM     27  C   UNL     1       0.518  -0.907  -0.958  0.00  0.00    -0.077 C 
ATOM     28  H   UNL     1      -0.785   0.346  -0.014  0.00  0.00    -0.081 HD
BRANCH  25  29
ATOM     29  C   UNL     1      -2.167  -1.630  -3.588  0.00  0.00    +0.213 C 
ATOM     30  O   UNL     1      -3.227  -1.060  -3.736  0.00  0.00    -0.276 OA
ATOM     31  N   UNL     1      -2.019  -2.900  -4.014  0.00  0.00    -0.329 N 
ATOM     32  H   UNL     1      -1.171  -3.356  -3.896  0.00  0.00    +0.145 HD
ATOM     33  H   UNL     1      -2.761  -3.358  -4.439  0.00  0.00    +0.145 HD
ENDBRANCH  25  29
ENDBRANCH  21  22
ENDBRANCH   1  21
TORSDOF 6
