REMARK  Name = ZINC63994223
REMARK  5 active torsions:
REMARK  status: ('A' for Active; 'I' for Inactive)
REMARK    1  A    between atoms: C_1  and  C_2
REMARK    2  A    between atoms: C_2  and  N_3
REMARK    3  A    between atoms: N_6  and  C_25
REMARK    4  A    between atoms: N_12  and  C_15
REMARK    5  A    between atoms: C_15  and  C_16
REMARK                            x       y       z     vdW  Elec       q    Type
REMARK                         _______ _______ _______ _____ _____    ______ ____
ROOT
ATOM      1  N   UNL     1      -1.475  -1.040  -0.293  0.00  0.00    -0.271 N 
ATOM      2  C   UNL     1      -2.337  -1.445   0.659  0.00  0.00    +0.312 C 
ATOM      3  O   UNL     1      -2.107  -1.382   1.851  0.00  0.00    -0.252 OA
ATOM      4  N   UNL     1      -3.476  -1.925   0.146  0.00  0.00    -0.220 N 
ATOM      5  C   UNL     1      -3.471  -1.881  -1.203  0.00  0.00    +0.247 C 
ATOM      6  O   UNL     1      -4.353  -2.241  -1.953  0.00  0.00    -0.273 OA
ATOM      7  C   UNL     1      -2.137  -1.281  -1.581  0.00  0.00    +0.112 C 
ATOM      8  C   UNL     1      -2.333   0.029  -2.337  0.00  0.00    +0.017 C 
ATOM      9  C   UNL     1      -0.967   0.585  -2.748  0.00  0.00    -0.076 C 
ATOM     10  N   UNL     1      -0.273  -0.393  -3.595  0.00  0.00    +0.382 N 
ATOM     11  C   UNL     1      -0.005  -1.616  -2.830  0.00  0.00    -0.076 C 
ATOM     12  C   UNL     1      -1.331  -2.266  -2.421  0.00  0.00    +0.017 C 
ATOM     13  H   UNL     1      -0.851  -0.616  -4.392  0.00  0.00    -0.081 HD
ENDROOT
BRANCH   4  14
ATOM     14  C   UNL     1      -4.590  -2.436   0.948  0.00  0.00    +0.094 C 
ATOM     15  C   UNL     1      -5.023  -1.401   2.008  0.00  0.00    +0.058 C 
ATOM     16  C   UNL     1      -5.426  -2.217   3.218  0.00  0.00    -0.042 A 
ATOM     17  C   UNL     1      -6.178  -1.867   4.327  0.00  0.00    +0.004 A 
ATOM     18  C   UNL     1      -6.421  -2.792   5.322  0.00  0.00    +0.000 A 
ATOM     19  C   UNL     1      -5.913  -4.073   5.212  0.00  0.00    +0.000 A 
ATOM     20  C   UNL     1      -5.163  -4.425   4.107  0.00  0.00    +0.004 A 
ATOM     21  C   UNL     1      -4.918  -3.498   3.108  0.00  0.00    -0.042 A 
ATOM     22  C   UNL     1      -4.139  -3.630   1.816  0.00  0.00    +0.058 C 
ENDBRANCH   4  14
BRANCH   1  24
ATOM     23  C   UNL     1       0.782  -1.527   0.514  0.00  0.00    +0.024 C 
ATOM     24  C   UNL     1      -0.143  -0.465  -0.084  0.00  0.00    +0.107 C 
ENDBRANCH   1  24
BRANCH  10  25
ATOM     25  C   UNL     1       0.997   0.179  -4.062  0.00  0.00    -0.045 C 
BRANCH  25  26
ATOM     26  C   UNL     1       0.718   1.343  -4.978  0.00  0.00    -0.058 C 
ATOM     27  C   UNL     1       0.687   2.653  -4.642  0.00  0.00    -0.003 A 
ATOM     28  C   UNL     1       0.895   3.359  -3.372  0.00  0.00    +0.010 A 
ATOM     29  C   UNL     1       0.796   4.708  -3.348  0.00  0.00    +0.001 A 
ATOM     30  C   UNL     1       0.500   5.446  -4.502  0.00  0.00    +0.002 A 
ATOM     31  C   UNL     1       0.296   4.868  -5.705  0.00  0.00    +0.026 A 
ATOM     32  C   UNL     1       0.376   3.455  -5.847  0.00  0.00    +0.043 A 
ATOM     33  N   UNL     1       0.221   2.672  -6.886  0.00  0.00    -0.380 N 
ATOM     34  C   UNL     1       0.422   1.283  -6.460  0.00  0.00    +0.142 C 
ATOM     35  H   UNL     1       0.012   2.963  -7.788  0.00  0.00    +0.160 HD
ENDBRANCH  25  26
ENDBRANCH  10  25
TORSDOF 4
