REMARK  Name = ZINC26503345
REMARK  8 active torsions:
REMARK  status: ('A' for Active; 'I' for Inactive)
REMARK    1  A    between atoms: C_1  and  C_2
REMARK    2  A    between atoms: C_9  and  N_30
REMARK    3  A    between atoms: C_10  and  C_13
REMARK    4  A    between atoms: N_17  and  C_21
REMARK    5  A    between atoms: C_21  and  C_23
REMARK    6  A    between atoms: C_21  and  C_24
REMARK    7  A    between atoms: C_32  and  C_39
REMARK    8  A    between atoms: C_35  and  C_38
REMARK                            x       y       z     vdW  Elec       q    Type
REMARK                         _______ _______ _______ _____ _____    ______ ____
ROOT
ATOM      1  C   UNL     1       0.100   0.050   1.097  0.00  0.00    +0.047 C 
ATOM      2  C   UNL     1       0.021   1.500   0.693  0.00  0.00    -0.007 A 
ATOM      3  C   UNL     1       1.161   2.225   0.512  0.00  0.00    +0.008 A 
ATOM      4  C   UNL     1       1.071   3.572   0.136  0.00  0.00    +0.019 A 
ATOM      5  C   UNL     1      -0.139   4.147  -0.044  0.00  0.00    +0.096 A 
ATOM      6  N   UNL     1      -1.285   3.430   0.135  0.00  0.00    -0.267 N 
ATOM      7  C   UNL     1      -1.229   2.113   0.496  0.00  0.00    +0.145 A 
ATOM      8  N   UNL     1      -2.339   1.397   0.681  0.00  0.00    -0.213 NA
ATOM      9  C   UNL     1      -3.543   1.925   0.513  0.00  0.00    +0.136 A 
ATOM     10  C   UNL     1      -3.662   3.283   0.134  0.00  0.00    +0.081 A 
ATOM     11  C   UNL     1      -2.478   4.034  -0.054  0.00  0.00    +0.267 A 
ATOM     12  O   UNL     1      -2.534   5.208  -0.380  0.00  0.00    -0.267 OA
ENDROOT
BRANCH  10  13
ATOM     13  C   UNL     1      -4.934   3.874  -0.052  0.00  0.00    +0.037 C 
ATOM     14  C   UNL     1      -5.349   4.875   0.777  0.00  0.00    +0.077 C 
ATOM     15  C   UNL     1      -6.602   5.550   0.826  0.00  0.00    +0.259 C 
ATOM     16  O   UNL     1      -7.500   5.261   0.054  0.00  0.00    -0.269 OA
ATOM     17  N   UNL     1      -6.764   6.498   1.732  0.00  0.00    -0.248 N 
ATOM     18  C   UNL     1      -5.769   6.818   2.589  0.00  0.00    +0.121 C 
ATOM     19  S   UNL     1      -5.758   7.998   3.829  0.00  0.00    -0.027 S 
ATOM     20  S   UNL     1      -4.471   5.691   2.103  0.00  0.00    -0.061 S 
BRANCH  17  21
ATOM     21  C   UNL     1      -8.041   7.212   1.810  0.00  0.00    +0.110 C 
ATOM     22  C   UNL     1      -8.701   6.932   3.161  0.00  0.00    +0.033 C 
BRANCH  21  23
ATOM     23  C   UNL     1      -7.799   8.692   1.667  0.00  0.00    -0.027 A 
ATOM     24  C   UNL     1      -8.631   9.594   2.303  0.00  0.00    +0.005 A 
ATOM     25  C   UNL     1      -8.405  10.952   2.176  0.00  0.00    +0.000 A 
ATOM     26  C   UNL     1      -7.354  11.408   1.403  0.00  0.00    +0.000 A 
ATOM     27  C   UNL     1      -6.525  10.507   0.762  0.00  0.00    +0.000 A 
ATOM     28  C   UNL     1      -6.747   9.149   0.894  0.00  0.00    +0.005 A 
ENDBRANCH  21  23
ENDBRANCH  17  21
ENDBRANCH  10  13
BRANCH   9  29
ATOM     29  N   UNL     1      -4.670   1.157   0.708  0.00  0.00    -0.314 N 
ATOM     30  C   UNL     1      -5.455   1.652   1.846  0.00  0.00    +0.109 C 
ATOM     31  C   UNL     1      -6.766   0.870   1.942  0.00  0.00    +0.004 C 
ATOM     32  C   UNL     1      -6.456  -0.619   2.121  0.00  0.00    +0.009 C 
ATOM     33  C   UNL     1      -5.597  -1.098   0.947  0.00  0.00    +0.004 C 
ATOM     34  C   UNL     1      -4.319  -0.259   0.880  0.00  0.00    +0.109 C 
ATOM     35  C   UNL     1      -5.231  -2.570   1.148  0.00  0.00    +0.009 C 
ATOM     36  C   UNL     1      -7.577   1.071   0.660  0.00  0.00    +0.009 C 
ENDBRANCH   9  29
TORSDOF 4
