REMARK  Name = ZINC38609981
REMARK  11 active torsions:
REMARK  status: ('A' for Active; 'I' for Inactive)
REMARK    1  A    between atoms: C_1  and  C_2
REMARK    2  A    between atoms: N_5  and  C_17
REMARK    3  A    between atoms: N_8  and  C_9
REMARK    4  A    between atoms: C_13  and  O_15
REMARK    5  A    between atoms: O_15  and  C_16
REMARK    6  A    between atoms: C_17  and  C_19
REMARK    7  A    between atoms: C_17  and  C_20
REMARK    8  A    between atoms: N_22  and  C_23
REMARK    9  A    between atoms: C_31  and  C_33
REMARK   10  A    between atoms: C_33  and  O_35
REMARK   11  A    between atoms: O_35  and  C_36
REMARK                            x       y       z     vdW  Elec       q    Type
REMARK                         _______ _______ _______ _____ _____    ______ ____
ROOT
ATOM      1  C   UNL     1      -4.029  -4.016   0.299  0.00  0.00    +0.203 C 
ATOM      2  O   UNL     1      -3.527  -3.018  -0.174  0.00  0.00    -0.277 OA
ATOM      3  N   UNL     1      -5.340  -4.264   0.112  0.00  0.00    -0.288 N 
ATOM      4  H   UNL     1      -5.760  -5.016   0.559  0.00  0.00    +0.155 HD
ENDROOT
BRANCH   3   5
ATOM      5  C   UNL     1      -6.077  -3.460  -0.705  0.00  0.00    +0.053 C 
ATOM      6  C   UNL     1      -7.448  -3.486  -0.888  0.00  0.00    +0.019 A 
ATOM      7  C   UNL     1      -8.470  -4.294  -0.334  0.00  0.00    +0.031 A 
ATOM      8  C   UNL     1      -9.760  -4.094  -0.703  0.00  0.00    +0.042 A 
ATOM      9  C   UNL     1     -10.113  -3.104  -1.625  0.00  0.00    +0.022 A 
ATOM     10  C   UNL     1      -9.188  -2.295  -2.196  0.00  0.00    +0.027 A 
ATOM     11  C   UNL     1      -7.817  -2.442  -1.859  0.00  0.00    +0.045 A 
ATOM     12  N   UNL     1      -6.744  -1.793  -2.266  0.00  0.00    -0.367 N 
ATOM     13  C   UNL     1      -5.565  -2.348  -1.594  0.00  0.00    +0.234 C 
ATOM     14 CL   UNL     1     -11.003  -5.092  -0.016  0.00  0.00    -0.084 Cl
ATOM     15  H   UNL     1      -6.737  -1.063  -2.905  0.00  0.00    +0.161 HD
BRANCH  13  16
ATOM     16  C   UNL     1      -4.602  -2.901  -2.614  0.00  0.00    +0.335 C 
ATOM     17  O   UNL     1      -5.021  -3.483  -3.586  0.00  0.00    -0.248 OA
BRANCH  16  18
ATOM     18  O   UNL     1      -3.280  -2.746  -2.441  0.00  0.00    -0.466 OA
ATOM     19  C   UNL     1      -2.426  -3.294  -3.447  0.00  0.00    +0.280 C 
ENDBRANCH  16  18
ENDBRANCH  13  16
ENDBRANCH   3   5
BRANCH   1  20
ATOM     20  C   UNL     1      -3.185  -4.978   1.095  0.00  0.00    +0.017 C 
ATOM     21  C   UNL     1      -3.662  -4.990   2.549  0.00  0.00    -0.004 C 
BRANCH  20  25
ATOM     22  C   UNL     1       0.034  -1.584   2.554  0.00  0.00    +0.026 C 
ATOM     23  C   UNL     1      -0.179  -2.803   1.655  0.00  0.00    +0.054 C 
ATOM     24  C   UNL     1      -1.619  -3.307   1.802  0.00  0.00    -0.055 C 
ATOM     25  N   UNL     1      -1.780  -4.554   1.045  0.00  0.00    +0.389 N 
ATOM     26  C   UNL     1      -0.933  -5.604   1.625  0.00  0.00    -0.059 C 
ATOM     27  C   UNL     1       0.541  -5.215   1.469  0.00  0.00    +0.087 C 
ATOM     28  N   UNL     1       0.739  -3.880   2.057  0.00  0.00    -0.331 N 
ATOM     29  H   UNL     1      -1.512  -4.400   0.084  0.00  0.00    -0.081 HD
BRANCH  28  30
ATOM     30  C   UNL     1       1.766  -3.643   2.974  0.00  0.00    +0.033 A 
ATOM     31  C   UNL     1       1.586  -3.955   4.316  0.00  0.00    +0.023 A 
ATOM     32  C   UNL     1       2.602  -3.720   5.222  0.00  0.00    +0.005 A 
ATOM     33  C   UNL     1       3.799  -3.176   4.797  0.00  0.00    +0.046 A 
ATOM     34  C   UNL     1       3.985  -2.864   3.458  0.00  0.00    +0.122 A 
ATOM     35  C   UNL     1       2.970  -3.102   2.544  0.00  0.00    +0.068 A 
BRANCH  34  36
ATOM     36  O   UNL     1       5.163  -2.329   3.041  0.00  0.00    -0.495 OA
ATOM     37  C   UNL     1       6.166  -2.115   4.036  0.00  0.00    +0.277 C 
ENDBRANCH  34  36
ENDBRANCH  28  30
ENDBRANCH  20  25
ENDBRANCH   1  20
TORSDOF 7
