REMARK  Name = ZINC08969603
REMARK  10 active torsions:
REMARK  status: ('A' for Active; 'I' for Inactive)
REMARK    1  A    between atoms: C_1  and  N_62
REMARK    2  A    between atoms: C_8  and  O_32
REMARK    3  A    between atoms: C_10  and  C_12
REMARK    4  A    between atoms: C_12  and  N_13
REMARK    5  A    between atoms: C_14  and  C_15
REMARK    6  A    between atoms: C_16  and  O_31
REMARK    7  A    between atoms: N_20  and  C_23
REMARK    8  A    between atoms: C_28  and  O_29
REMARK    9  A    between atoms: O_29  and  C_30
REMARK   10  A    between atoms: O_32  and  C_33
REMARK                            x       y       z     vdW  Elec       q    Type
REMARK                         _______ _______ _______ _____ _____    ______ ____
ROOT
ATOM      1  N   UNL     1      -3.784   5.685   1.253  0.00  0.00    -0.296 NA
ATOM      2  C   UNL     1      -3.923   6.772   2.035  0.00  0.00    +0.099 C 
ENDROOT
BRANCH   2   3
ATOM      3  C   UNL     1      -5.147   7.419   2.113  0.00  0.00    +0.199 C 
ATOM      4  C   UNL     1      -6.347   6.871   1.466  0.00  0.00    +0.198 C 
ATOM      5  N   UNL     1      -7.484   7.537   1.579  0.00  0.00    -0.131 NA
ATOM      6  C   UNL     1      -7.570   8.679   2.256  0.00  0.00    +0.339 C 
ATOM      7  O   UNL     1      -8.653   9.234   2.315  0.00  0.00    -0.250 OA
ATOM      8  N   UNL     1      -6.529   9.251   2.878  0.00  0.00    -0.188 N 
ATOM      9  C   UNL     1      -5.304   8.683   2.854  0.00  0.00    +0.245 C 
ATOM     10  O   UNL     1      -4.360   9.200   3.422  0.00  0.00    -0.274 OA
BRANCH   8  11
ATOM     11  C   UNL     1      -6.716  10.457   3.569  0.00  0.00    +0.087 A 
ATOM     12  C   UNL     1      -7.074  10.442   4.909  0.00  0.00    +0.028 A 
ATOM     13  C   UNL     1      -7.252  11.632   5.590  0.00  0.00    +0.002 A 
ATOM     14  C   UNL     1      -7.086  12.838   4.936  0.00  0.00    +0.004 A 
ATOM     15  C   UNL     1      -6.736  12.861   3.599  0.00  0.00    +0.047 A 
ATOM     16  C   UNL     1      -6.549  11.673   2.910  0.00  0.00    +0.142 A 
BRANCH  16  17
ATOM     17  O   UNL     1      -6.204  11.694   1.596  0.00  0.00    -0.493 OA
ATOM     18  C   UNL     1      -6.050  12.977   0.986  0.00  0.00    +0.277 C 
ENDBRANCH  16  17
ENDBRANCH   8  11
BRANCH   4  19
ATOM     19  O   UNL     1      -6.290   5.715   0.772  0.00  0.00    -0.496 OA
ATOM     20  H   UNL     1      -7.135   5.445   0.387  0.00  0.00    +0.293 HD
ENDBRANCH   4  19
ENDBRANCH   2   3
BRANCH   1  21
ATOM     21  C   UNL     1      -2.491   5.001   1.171  0.00  0.00    +0.130 C 
BRANCH  21  31
ATOM     22  C   UNL     1      -1.837   5.348  -1.648  0.00  0.00    -0.095 C 
ATOM     23  C   UNL     1      -3.152   3.377  -2.157  0.00  0.00    -0.074 C 
ATOM     24  C   UNL     1      -4.480   2.705  -1.807  0.00  0.00    +0.017 C 
ATOM     25  C   UNL     1      -4.497   2.327  -0.348  0.00  0.00    -0.040 A 
ATOM     26  C   UNL     1      -5.438   1.404   0.084  0.00  0.00    +0.053 A 
ATOM     27  C   UNL     1      -5.493   1.026   1.414  0.00  0.00    +0.170 A 
ATOM     28  C   UNL     1      -4.602   1.582   2.326  0.00  0.00    +0.208 A 
ATOM     29  C   UNL     1      -3.665   2.509   1.893  0.00  0.00    +0.167 A 
ATOM     30  C   UNL     1      -3.613   2.882   0.553  0.00  0.00    -0.011 A 
ATOM     31  C   UNL     1      -2.571   3.883   0.130  0.00  0.00    -0.012 C 
ATOM     32  O   UNL     1      -4.856   1.056   3.561  0.00  0.00    -0.449 OA
ATOM     33  C   UNL     1      -5.638  -0.129   3.321  0.00  0.00    +0.467 C 
ATOM     34  O   UNL     1      -6.306   0.150   2.076  0.00  0.00    -0.452 OA
ATOM     35  N   UNL     1      -2.922   4.460  -1.177  0.00  0.00    +0.384 N 
ATOM     36  H   UNL     1      -3.784   5.010  -1.078  0.00  0.00    -0.081 HD
BRANCH  29  37
ATOM     37  O   UNL     1      -2.793   3.055   2.782  0.00  0.00    -0.491 OA
ATOM     38  C   UNL     1      -1.552   2.374   2.976  0.00  0.00    +0.277 C 
ENDBRANCH  29  37
ENDBRANCH  21  31
ENDBRANCH   1  21
TORSDOF 7
