REMARK  Name = ZINC40000456
REMARK  7 active torsions:
REMARK  status: ('A' for Active; 'I' for Inactive)
REMARK    1  A    between atoms: C_1  and  C_2
REMARK    2  A    between atoms: C_2  and  S_3
REMARK    3  A    between atoms: S_3  and  C_4
REMARK    4  A    between atoms: C_10  and  C_28
REMARK    5  A    between atoms: C_12  and  C_17
REMARK    6  A    between atoms: C_17  and  C_19
REMARK    7  A    between atoms: C_32  and  O_34
REMARK                            x       y       z     vdW  Elec       q    Type
REMARK                         _______ _______ _______ _____ _____    ______ ____
ROOT
ATOM      1  C   UNL     1      -1.578  -2.353   0.212  0.00  0.00    +0.160 A 
ATOM      2  N   UNL     1      -0.468  -3.075   0.151  0.00  0.00    -0.133 NA
ATOM      3  N   UNL     1      -0.494  -4.334   0.094  0.00  0.00    -0.125 NA
ATOM      4  C   UNL     1      -1.631  -5.013   0.091  0.00  0.00    +0.192 A 
ATOM      5  S   UNL     1      -2.801  -3.661   0.190  0.00  0.00    -0.024 S 
ATOM      6  N   UNL     1      -1.853  -6.383   0.034  0.00  0.00    -0.230 N 
ATOM      7  C   UNL     1      -0.820  -7.424  -0.033  0.00  0.00    +0.152 C 
ATOM      8  C   UNL     1      -1.554  -8.743  -0.078  0.00  0.00    +0.080 C 
ATOM      9  C   UNL     1      -2.877  -8.455  -0.039  0.00  0.00    +0.250 C 
ATOM     10  C   UNL     1      -3.053  -6.992   0.036  0.00  0.00    +0.293 C 
ATOM     11  O   UNL     1      -4.124  -6.420   0.088  0.00  0.00    -0.266 OA
ATOM     12  O   UNL     1      -3.879  -9.365  -0.062  0.00  0.00    -0.282 OA
ENDROOT
BRANCH   7  13
ATOM     13  C   UNL     1       0.012  -7.249  -1.277  0.00  0.00    -0.019 A 
ATOM     14  C   UNL     1      -0.602  -6.983  -2.487  0.00  0.00    +0.006 A 
ATOM     15  C   UNL     1       0.158  -6.822  -3.630  0.00  0.00    +0.004 A 
ATOM     16  C   UNL     1       1.534  -6.928  -3.567  0.00  0.00    +0.045 A 
ATOM     17  C   UNL     1       2.153  -7.195  -2.354  0.00  0.00    +0.117 A 
ATOM     18  C   UNL     1       1.388  -7.350  -1.207  0.00  0.00    +0.051 A 
BRANCH  17  19
ATOM     19  O   UNL     1       3.506  -7.300  -2.289  0.00  0.00    -0.507 OA
ATOM     20  H   UNL     1       3.957  -6.463  -2.110  0.00  0.00    +0.292 HD
ENDBRANCH  17  19
ENDBRANCH   7  13
BRANCH   8  21
ATOM     21  C   UNL     1      -0.952 -10.078  -0.149  0.00  0.00    +0.230 C 
ATOM     22  O   UNL     1      -1.113 -10.767  -1.141  0.00  0.00    -0.283 OA
BRANCH  21  23
ATOM     23  C   UNL     1      -0.153 -10.585   0.975  0.00  0.00    +0.176 A 
ATOM     24  C   UNL     1       0.532 -11.761   0.982  0.00  0.00    +0.061 A 
ATOM     25  C   UNL     1       1.172 -11.847   2.293  0.00  0.00    +0.021 A 
ATOM     26  C   UNL     1       1.998 -12.789   2.913  0.00  0.00    +0.011 A 
ATOM     27  C   UNL     1       2.442 -12.567   4.186  0.00  0.00    +0.001 A 
ATOM     28  C   UNL     1       2.078 -11.412   4.866  0.00  0.00    +0.004 A 
ATOM     29  C   UNL     1       1.264 -10.471   4.272  0.00  0.00    +0.047 A 
ATOM     30  C   UNL     1       0.801 -10.675   2.978  0.00  0.00    +0.136 A 
ATOM     31  O   UNL     1       0.017  -9.952   2.154  0.00  0.00    -0.452 OA
ENDBRANCH  21  23
ENDBRANCH   8  21
BRANCH   1  32
ATOM     32  S   UNL     1      -1.790  -0.606   0.297  0.00  0.00    -0.097 S 
BRANCH  32  34
ATOM     33  C   UNL     1      -0.134   1.571   0.345  0.00  0.00    +0.016 C 
ATOM     34  C   UNL     1      -0.096   0.043   0.275  0.00  0.00    +0.073 C 
ENDBRANCH  32  34
ENDBRANCH   1  32
TORSDOF 6
