REMARK  Name = ZINC57565352
REMARK  10 active torsions:
REMARK  status: ('A' for Active; 'I' for Inactive)
REMARK    1  A    between atoms: C_1  and  C_2
REMARK    2  A    between atoms: C_4  and  C_22
REMARK    3  A    between atoms: C_6  and  C_19
REMARK    4  A    between atoms: N_9  and  C_11
REMARK    5  A    between atoms: C_22  and  O_24
REMARK    6  A    between atoms: O_24  and  C_25
REMARK    7  A    between atoms: C_28  and  C_37
REMARK    8  A    between atoms: C_32  and  C_34
REMARK    9  A    between atoms: C_34  and  C_35
REMARK   10  A    between atoms: C_34  and  C_36
REMARK                            x       y       z     vdW  Elec       q    Type
REMARK                         _______ _______ _______ _____ _____    ______ ____
ROOT
ATOM      1  C   UNL     1      -0.366   2.329   0.169  0.00  0.00    +0.068 C 
ATOM      2  C   UNL     1      -0.144   0.849   0.346  0.00  0.00    +0.070 A 
ATOM      3  C   UNL     1       0.014  -0.091  -0.695  0.00  0.00    +0.055 A 
ATOM      4  C   UNL     1       0.020   0.001  -2.105  0.00  0.00    +0.073 A 
ATOM      5  C   UNL     1       0.209  -1.173  -2.832  0.00  0.00    +0.039 A 
ATOM      6  C   UNL     1       0.381  -2.371  -2.155  0.00  0.00    +0.048 A 
ATOM      7  N   UNL     1       0.371  -2.430  -0.842  0.00  0.00    -0.232 NA
ATOM      8  C   UNL     1       0.196  -1.351  -0.092  0.00  0.00    +0.160 A 
ATOM      9  N   UNL     1       0.145  -1.143   1.262  0.00  0.00    -0.241 N 
ATOM     10  N   UNL     1      -0.061   0.224   1.486  0.00  0.00    -0.174 NA
ENDROOT
BRANCH   9  11
ATOM     11  C   UNL     1       0.286  -2.171   2.296  0.00  0.00    +0.132 C 
ATOM     12  C   UNL     1       1.486  -1.829   3.195  0.00  0.00    +0.051 C 
ATOM     13  C   UNL     1       1.425  -2.744   4.451  0.00  0.00    +0.168 C 
ATOM     14  S   UNL     1      -0.384  -2.717   4.802  0.00  0.00    -0.029 S 
ATOM     15  O   UNL     1      -0.660  -1.671   5.724  0.00  0.00    -0.174 OA
ATOM     16  O   UNL     1      -0.819  -4.038   5.092  0.00  0.00    -0.174 OA
ATOM     17  C   UNL     1      -1.008  -2.229   3.143  0.00  0.00    +0.192 C 
ENDBRANCH   9  11
BRANCH   6  18
ATOM     18  C   UNL     1       0.585  -3.638  -2.946  0.00  0.00    +0.038 C 
ATOM     19  C   UNL     1       0.215  -3.612  -4.430  0.00  0.00    +0.010 C 
ATOM     20  C   UNL     1      -0.664  -4.373  -3.436  0.00  0.00    +0.010 C 
ENDBRANCH   6  18
BRANCH   4  21
ATOM     21  C   UNL     1      -0.168   1.299  -2.786  0.00  0.00    +0.340 C 
ATOM     22  O   UNL     1       0.374   2.296  -2.353  0.00  0.00    -0.245 OA
BRANCH  21  23
ATOM     23  O   UNL     1      -0.939   1.376  -3.888  0.00  0.00    -0.458 OA
BRANCH  23  24
ATOM     24  C   UNL     1      -1.076   2.662  -4.495  0.00  0.00    +0.180 C 
ATOM     25  C   UNL     1       0.027   2.854  -5.538  0.00  0.00    +0.048 C 
ATOM     26  C   UNL     1      -0.120   4.231  -6.188  0.00  0.00    -0.011 C 
ATOM     27  C   UNL     1      -1.487   4.331  -6.868  0.00  0.00    +0.004 C 
ATOM     28  C   UNL     1      -2.590   4.139  -5.825  0.00  0.00    +0.007 C 
ATOM     29  C   UNL     1      -2.443   2.761  -5.175  0.00  0.00    +0.032 C 
ATOM     30  C   UNL     1      -0.003   5.316  -5.116  0.00  0.00    +0.007 C 
BRANCH  29  31
ATOM     31  C   UNL     1      -3.547   2.569  -4.133  0.00  0.00    -0.011 C 
ATOM     32  C   UNL     1      -3.449   3.672  -3.077  0.00  0.00    +0.007 C 
ATOM     33  C   UNL     1      -4.913   2.639  -4.818  0.00  0.00    +0.007 C 
ENDBRANCH  29  31
ENDBRANCH  23  24
ENDBRANCH  21  23
ENDBRANCH   4  21
TORSDOF 6
