REMARK  Name = ZINC63908648
REMARK  7 active torsions:
REMARK  status: ('A' for Active; 'I' for Inactive)
REMARK    1  A    between atoms: C_1  and  C_2
REMARK    2  A    between atoms: C_2  and  C_4
REMARK    3  A    between atoms: C_2  and  N_13
REMARK    4  A    between atoms: C_14  and  C_16
REMARK    5  A    between atoms: C_16  and  N_17
REMARK    6  A    between atoms: C_20  and  C_25
REMARK    7  A    between atoms: C_25  and  C_26
REMARK                            x       y       z     vdW  Elec       q    Type
REMARK                         _______ _______ _______ _____ _____    ______ ____
ROOT
ATOM      1  N   UNL     1      -3.978  -1.213  -2.505  0.00  0.00    -0.216 N 
ATOM      2  C   UNL     1      -4.621  -0.195  -3.109  0.00  0.00    +0.244 C 
ATOM      3  O   UNL     1      -4.876   0.893  -2.638  0.00  0.00    -0.273 OA
ATOM      4  C   UNL     1      -4.961  -0.692  -4.501  0.00  0.00    +0.165 C 
ATOM      5  N   UNL     1      -4.418  -2.061  -4.521  0.00  0.00    -0.287 N 
ATOM      6  C   UNL     1      -3.860  -2.272  -3.315  0.00  0.00    +0.310 C 
ATOM      7  O   UNL     1      -3.313  -3.309  -2.995  0.00  0.00    -0.252 OA
ATOM      8  H   UNL     1      -4.453  -2.688  -5.260  0.00  0.00    +0.151 HD
ENDROOT
BRANCH   1   9
ATOM      9  C   UNL     1      -3.465  -1.164  -1.134  0.00  0.00    +0.213 C 
BRANCH   9  11
ATOM     10  N   UNL     1      -1.372  -0.511   0.012  0.00  0.00    -0.304 N 
ATOM     11  C   UNL     1      -2.051  -0.643  -1.145  0.00  0.00    +0.232 C 
ATOM     12  O   UNL     1      -1.524  -0.341  -2.194  0.00  0.00    -0.274 OA
ATOM     13  H   UNL     1      -1.794  -0.752   0.852  0.00  0.00    +0.149 HD
BRANCH  10  15
ATOM     14  C   UNL     1      -0.019   1.526   0.010  0.00  0.00    +0.036 C 
ATOM     15  C   UNL     1       0.002  -0.004   0.002  0.00  0.00    +0.136 C 
BRANCH  15  16
ATOM     16  C   UNL     1       0.731  -0.503   1.223  0.00  0.00    +0.126 A 
ATOM     17  C   UNL     1       2.005  -0.917   1.240  0.00  0.00    +0.055 A 
ATOM     18  C   UNL     1       2.290  -1.308   2.626  0.00  0.00    +0.020 A 
ATOM     19  C   UNL     1       3.410  -1.812   3.286  0.00  0.00    +0.011 A 
ATOM     20  C   UNL     1       3.343  -2.081   4.625  0.00  0.00    +0.001 A 
ATOM     21  C   UNL     1       2.169  -1.856   5.329  0.00  0.00    +0.004 A 
ATOM     22  C   UNL     1       1.052  -1.359   4.693  0.00  0.00    +0.047 A 
ATOM     23  C   UNL     1       1.098  -1.078   3.333  0.00  0.00    +0.135 A 
ATOM     24  O   UNL     1       0.199  -0.593   2.454  0.00  0.00    -0.458 OA
ENDBRANCH  15  16
ENDBRANCH  10  15
ENDBRANCH   9  11
ENDBRANCH   1   9
BRANCH   4  25
ATOM     25  C   UNL     1      -4.282   0.175  -5.563  0.00  0.00    +0.065 C 
BRANCH  25  26
ATOM     26  C   UNL     1      -4.732  -0.263  -6.932  0.00  0.00    -0.039 C 
ATOM     27  C   UNL     1      -5.737   0.267  -7.667  0.00  0.00    -0.001 A 
ATOM     28  C   UNL     1      -6.675   1.368  -7.419  0.00  0.00    +0.010 A 
ATOM     29  C   UNL     1      -7.593   1.673  -8.364  0.00  0.00    +0.001 A 
ATOM     30  C   UNL     1      -7.670   0.966  -9.572  0.00  0.00    +0.002 A 
ATOM     31  C   UNL     1      -6.843  -0.058  -9.872  0.00  0.00    +0.026 A 
ATOM     32  C   UNL     1      -5.839  -0.464  -8.950  0.00  0.00    +0.043 A 
ATOM     33  N   UNL     1      -4.933  -1.410  -9.007  0.00  0.00    -0.380 N 
ATOM     34  C   UNL     1      -4.149  -1.381  -7.767  0.00  0.00    +0.144 C 
ATOM     35  H   UNL     1      -4.800  -2.023  -9.746  0.00  0.00    +0.160 HD
ENDBRANCH  25  26
ENDBRANCH   4  25
TORSDOF 6
