REMARK  Name = ZINC53112389
REMARK  9 active torsions:
REMARK  status: ('A' for Active; 'I' for Inactive)
REMARK    1  A    between atoms: C_1  and  C_2
REMARK    2  A    between atoms: C_2  and  C_3
REMARK    3  A    between atoms: C_3  and  C_4
REMARK    4  A    between atoms: C_5  and  N_23
REMARK    5  A    between atoms: C_6  and  C_10
REMARK    6  A    between atoms: N_12  and  C_13
REMARK    7  A    between atoms: C_13  and  C_21
REMARK    8  A    between atoms: C_17  and  C_20
REMARK    9  A    between atoms: C_21  and  O_22
REMARK                            x       y       z     vdW  Elec       q    Type
REMARK                         _______ _______ _______ _____ _____    ______ ____
ROOT
ATOM      1  C   UNL     1       0.125  -5.882   0.489  0.00  0.00    +0.266 C 
ATOM      2  O   UNL     1      -0.658  -6.504  -0.204  0.00  0.00    -0.268 OA
ATOM      3  N   UNL     1       1.359  -6.373   0.717  0.00  0.00    -0.302 N 
ATOM      4  H   UNL     1       2.007  -5.846   1.211  0.00  0.00    +0.150 HD
ENDROOT
BRANCH   3   5
ATOM      5  C   UNL     1       1.723  -7.701   0.218  0.00  0.00    +0.058 C 
ATOM      6  C   UNL     1       3.176  -8.005   0.589  0.00  0.00    +0.028 C 
ATOM      7  C   UNL     1       3.333  -7.970   2.110  0.00  0.00    +0.002 C 
ATOM      8  C   UNL     1       2.416  -9.020   2.741  0.00  0.00    +0.003 C 
ATOM      9  C   UNL     1       0.963  -8.717   2.371  0.00  0.00    -0.012 C 
ATOM     10  C   UNL     1       0.806  -8.751   0.849  0.00  0.00    +0.031 C 
ATOM     11  C   UNL     1       0.583  -7.329   2.891  0.00  0.00    +0.007 C 
BRANCH   5  12
ATOM     12  C   UNL     1       1.567  -7.736  -1.303  0.00  0.00    +0.181 C 
BRANCH  12  13
ATOM     13  O   UNL     1       2.330  -6.677  -1.885  0.00  0.00    -0.393 OA
ATOM     14  H   UNL     1       2.277  -6.638  -2.849  0.00  0.00    +0.209 HD
ENDBRANCH  12  13
ENDBRANCH   5  12
ENDBRANCH   3   5
BRANCH   1  17
ATOM     15  C   UNL     1      -1.440  -2.800   1.646  0.00  0.00    +0.057 A 
ATOM     16  C   UNL     1      -1.534  -3.951   0.930  0.00  0.00    +0.078 A 
ATOM     17  C   UNL     1      -0.277  -4.592   1.079  0.00  0.00    +0.168 A 
ATOM     18  N   UNL     1       0.465  -3.816   1.846  0.00  0.00    -0.167 NA
ATOM     19  N   UNL     1      -0.192  -2.765   2.183  0.00  0.00    -0.279 N 
ATOM     20  H   UNL     1       0.152  -2.050   2.742  0.00  0.00    +0.189 HD
BRANCH  16  21
ATOM     21  N   UNL     1      -2.639  -4.409   0.198  0.00  0.00    -0.355 N 
ATOM     22  H   UNL     1      -3.453  -3.881   0.168  0.00  0.00    +0.142 HD
ATOM     23  H   UNL     1      -2.590  -5.252  -0.278  0.00  0.00    +0.142 HD
ENDBRANCH  16  21
BRANCH  15  24
ATOM     24  C   UNL     1      -2.514  -1.756   1.810  0.00  0.00    +0.056 C 
BRANCH  24  26
ATOM     25  C   UNL     1      -4.531  -1.093   3.128  0.00  0.00    +0.004 C 
ATOM     26  C   UNL     1      -3.440  -2.152   2.962  0.00  0.00    +0.003 C 
ENDBRANCH  24  26
ENDBRANCH  15  24
ENDBRANCH   1  17
TORSDOF 7
