REMARK  Name = ZINC09457807
REMARK  8 active torsions:
REMARK  status: ('A' for Active; 'I' for Inactive)
REMARK    1  A    between atoms: C_1  and  C_2
REMARK    2  A    between atoms: C_2  and  S_3
REMARK    3  A    between atoms: S_3  and  N_6
REMARK    4  A    between atoms: C_15  and  C_17
REMARK    5  A    between atoms: N_19  and  N_20
REMARK    6  A    between atoms: C_21  and  C_23
REMARK    7  A    between atoms: C_28  and  O_29
REMARK    8  A    between atoms: O_29  and  C_30
REMARK                            x       y       z     vdW  Elec       q    Type
REMARK                         _______ _______ _______ _____ _____    ______ ____
ROOT
ATOM      1  C   UNL     1      -2.665   3.581   7.014  0.00  0.00    +0.248 C 
ATOM      2  O   UNL     1      -3.275   2.661   7.517  0.00  0.00    -0.272 OA
ATOM      3  N   UNL     1      -2.509   3.635   5.677  0.00  0.00    -0.233 N 
ATOM      4  H   UNL     1      -2.022   4.371   5.274  0.00  0.00    +0.173 HD
ENDROOT
BRANCH   1  14
ATOM      5  N   UNL     1      -3.145   5.270   8.704  0.00  0.00    -0.165 NA
ATOM      6  C   UNL     1      -2.774   6.406   9.555  0.00  0.00    +0.145 C 
ATOM      7  C   UNL     1      -1.474   6.110  10.260  0.00  0.00    -0.028 A 
ATOM      8  C   UNL     1      -1.088   6.958  11.289  0.00  0.00    +0.005 A 
ATOM      9  C   UNL     1       0.096   6.745  11.965  0.00  0.00    +0.000 A 
ATOM     10  C   UNL     1       0.904   5.680  11.613  0.00  0.00    +0.000 A 
ATOM     11  C   UNL     1       0.519   4.834  10.593  0.00  0.00    +0.004 A 
ATOM     12  C   UNL     1      -0.676   5.043   9.915  0.00  0.00    -0.041 A 
ATOM     13  C   UNL     1      -1.044   4.064   8.831  0.00  0.00    +0.065 C 
ATOM     14  C   UNL     1      -2.082   4.664   7.885  0.00  0.00    +0.171 C 
BRANCH   5  15
ATOM     15  S   UNL     1      -4.696   4.692   8.667  0.00  0.00    +0.033 S 
ATOM     16  O   UNL     1      -5.484   5.732   9.231  0.00  0.00    -0.158 OA
ATOM     17  O   UNL     1      -4.897   4.279   7.323  0.00  0.00    -0.158 OA
BRANCH  15  19
ATOM     18  C   UNL     1      -6.022   2.517   9.664  0.00  0.00    +0.029 C 
ATOM     19  C   UNL     1      -4.683   3.251   9.769  0.00  0.00    +0.182 C 
ENDBRANCH  15  19
ENDBRANCH   5  15
ENDBRANCH   1  14
BRANCH   3  20
ATOM     20  N   UNL     1      -3.051   2.628   4.867  0.00  0.00    -0.230 N 
ATOM     21  C   UNL     1      -2.895   2.682   3.530  0.00  0.00    +0.264 C 
ATOM     22  O   UNL     1      -2.284   3.604   3.026  0.00  0.00    -0.269 OA
ATOM     23  H   UNL     1      -3.538   1.892   5.270  0.00  0.00    +0.173 HD
BRANCH  21  24
ATOM     24  C   UNL     1      -3.466   1.621   2.677  0.00  0.00    +0.081 A 
ATOM     25  C   UNL     1      -4.173   0.562   3.252  0.00  0.00    +0.036 A 
ATOM     26  C   UNL     1      -4.698  -0.429   2.450  0.00  0.00    +0.042 A 
ATOM     27  C   UNL     1      -4.533  -0.376   1.075  0.00  0.00    +0.023 A 
ATOM     28  C   UNL     1      -3.842   0.668   0.494  0.00  0.00    +0.048 A 
ATOM     29  C   UNL     1      -3.306   1.673   1.286  0.00  0.00    +0.132 A 
ATOM     30 CL   UNL     1      -5.571  -1.748   3.166  0.00  0.00    -0.084 Cl
BRANCH  29  31
ATOM     31  O   UNL     1      -2.626   2.700   0.717  0.00  0.00    -0.494 OA
ATOM     32  C   UNL     1      -2.498   2.683  -0.707  0.00  0.00    +0.277 C 
ENDBRANCH  29  31
ENDBRANCH  21  24
ENDBRANCH   3  20
TORSDOF 6
