REMARK  Name = ZINC49468557
REMARK  7 active torsions:
REMARK  status: ('A' for Active; 'I' for Inactive)
REMARK    1  A    between atoms: C_1  and  C_2
REMARK    2  A    between atoms: C_2  and  C_3
REMARK    3  A    between atoms: C_4  and  C_8
REMARK    4  A    between atoms: N_10  and  N_11
REMARK    5  A    between atoms: N_14  and  C_15
REMARK    6  A    between atoms: C_15  and  C_16
REMARK    7  A    between atoms: C_15  and  C_17
REMARK                            x       y       z     vdW  Elec       q    Type
REMARK                         _______ _______ _______ _____ _____    ______ ____
ROOT
ATOM      1  C   UNL     1      -1.688  -0.638   2.589  0.00  0.00    +0.270 C 
ATOM      2  O   UNL     1      -0.573  -0.228   2.849  0.00  0.00    -0.268 OA
ATOM      3  N   UNL     1      -2.538  -0.956   3.585  0.00  0.00    -0.229 N 
ATOM      4  H   UNL     1      -3.428  -1.283   3.378  0.00  0.00    +0.173 HD
ENDROOT
BRANCH   3   5
ATOM      5  N   UNL     1      -2.138  -0.814   4.920  0.00  0.00    -0.218 N 
ATOM      6  C   UNL     1      -2.988  -1.131   5.916  0.00  0.00    +0.316 C 
ATOM      7  O   UNL     1      -2.641  -1.008   7.075  0.00  0.00    -0.251 OA
ATOM      8  N   UNL     1      -4.224  -1.586   5.628  0.00  0.00    -0.296 N 
ATOM      9  H   UNL     1      -1.248  -0.487   5.128  0.00  0.00    +0.174 HD
ATOM     10  H   UNL     1      -4.501  -1.684   4.704  0.00  0.00    +0.151 HD
BRANCH   8  11
ATOM     11  C   UNL     1      -5.149  -1.931   6.711  0.00  0.00    +0.068 C 
ATOM     12  C   UNL     1      -6.589  -1.810   6.210  0.00  0.00    +0.027 C 
ATOM     13  C   UNL     1      -4.886  -3.368   7.167  0.00  0.00    +0.027 C 
ENDBRANCH   8  11
ENDBRANCH   3   5
BRANCH   1  15
ATOM     14  C   UNL     1      -1.412  -0.526   0.013  0.00  0.00    +0.084 A 
ATOM     15  C   UNL     1      -2.109  -0.787   1.187  0.00  0.00    +0.118 A 
ATOM     16  S   UNL     1      -3.659  -1.357   0.509  0.00  0.00    +0.042 S 
ATOM     17  N   UNL     1      -3.292  -1.215  -1.064  0.00  0.00    -0.110 NA
ATOM     18  N   UNL     1      -2.088  -0.765  -1.084  0.00  0.00    -0.145 NA
BRANCH  14  20
ATOM     19  C   UNL     1      -0.019   1.526   0.010  0.00  0.00    +0.010 C 
ATOM     20  C   UNL     1       0.002  -0.004   0.002  0.00  0.00    +0.055 C 
ENDBRANCH  14  20
ENDBRANCH   1  15
TORSDOF 4
