REMARK  Name = ZINC55797189
REMARK  5 active torsions:
REMARK  status: ('A' for Active; 'I' for Inactive)
REMARK    1  A    between atoms: C_3  and  N_29
REMARK    2  A    between atoms: C_6  and  C_7
REMARK    3  A    between atoms: C_7  and  N_8
REMARK    4  A    between atoms: C_9  and  C_11
REMARK    5  A    between atoms: C_17  and  C_19
REMARK                            x       y       z     vdW  Elec       q    Type
REMARK                         _______ _______ _______ _____ _____    ______ ____
ROOT
ATOM      1  C   UNL     1      -3.338  -1.887  -3.095  0.00  0.00    +0.162 C 
ATOM      2  C   UNL     1      -2.315  -2.670  -3.945  0.00  0.00    +0.033 C 
ATOM      3  C   UNL     1      -2.879  -4.115  -3.923  0.00  0.00    +0.021 C 
ATOM      4  C   UNL     1      -4.406  -3.854  -3.941  0.00  0.00    +0.108 C 
ATOM      5  N   UNL     1      -4.595  -2.649  -3.107  0.00  0.00    -0.289 N 
ATOM      6  C   UNL     1      -5.728  -2.306  -2.463  0.00  0.00    +0.222 C 
ATOM      7  O   UNL     1      -5.744  -1.331  -1.742  0.00  0.00    -0.275 OA
ENDROOT
BRANCH   6   8
ATOM      8  C   UNL     1      -6.975  -3.134  -2.638  0.00  0.00    +0.048 C 
ATOM      9  C   UNL     1      -6.787  -4.489  -1.954  0.00  0.00    +0.019 C 
ATOM     10  C   UNL     1      -8.053  -5.330  -2.132  0.00  0.00    -0.009 C 
ATOM     11  C   UNL     1      -9.242  -4.601  -1.502  0.00  0.00    +0.007 C 
ATOM     12  C   UNL     1      -9.430  -3.245  -2.187  0.00  0.00    -0.009 C 
ATOM     13  C   UNL     1      -8.164  -2.405  -2.009  0.00  0.00    +0.019 C 
ATOM     14  C   UNL     1      -9.694  -3.460  -3.678  0.00  0.00    +0.007 C 
ATOM     15  C   UNL     1      -8.505  -4.189  -4.308  0.00  0.00    -0.009 C 
ATOM     16  C   UNL     1      -8.318  -5.544  -3.623  0.00  0.00    +0.007 C 
ATOM     17  C   UNL     1      -7.239  -3.348  -4.130  0.00  0.00    +0.019 C 
ENDBRANCH   6   8
BRANCH   1  19
ATOM     18  N   UNL     1      -1.684  -1.092  -1.435  0.00  0.00    -0.310 N 
ATOM     19  C   UNL     1      -2.833  -1.753  -1.681  0.00  0.00    +0.234 C 
ATOM     20  O   UNL     1      -3.461  -2.239  -0.765  0.00  0.00    -0.274 OA
ATOM     21  H   UNL     1      -1.182  -0.703  -2.169  0.00  0.00    +0.149 HD
BRANCH  18  22
ATOM     22  C   UNL     1      -1.194  -0.962  -0.061  0.00  0.00    +0.139 C 
BRANCH  22  28
ATOM     23  C   UNL     1       0.078   1.191   0.062  0.00  0.00    +0.007 A 
ATOM     24  C   UNL     1       1.263   1.902   0.062  0.00  0.00    +0.033 A 
ATOM     25  C   UNL     1       2.468   1.237  -0.059  0.00  0.00    +0.126 A 
ATOM     26  C   UNL     1       2.489  -0.140  -0.180  0.00  0.00    +0.033 A 
ATOM     27  C   UNL     1       1.304  -0.852  -0.180  0.00  0.00    +0.007 A 
ATOM     28  C   UNL     1       0.098  -0.186  -0.060  0.00  0.00    -0.030 A 
BRANCH  25  29
ATOM     29  N   UNL     1       3.737   1.999  -0.059  0.00  0.00    +0.056 N 
ATOM     30  O   UNL     1       3.720   3.203   0.047  0.00  0.00    -0.126 OA
ATOM     31  O   UNL     1       4.792   1.417  -0.165  0.00  0.00    -0.126 OA
ENDBRANCH  25  29
ENDBRANCH  22  28
ENDBRANCH  18  22
ENDBRANCH   1  19
TORSDOF 5
