REMARK  Name = ZINC35485686
REMARK  10 active torsions:
REMARK  status: ('A' for Active; 'I' for Inactive)
REMARK    1  A    between atoms: C_1  and  C_2
REMARK    2  A    between atoms: C_2  and  C_3
REMARK    3  A    between atoms: C_3  and  O_4
REMARK    4  A    between atoms: O_4  and  C_5
REMARK    5  A    between atoms: C_8  and  C_14
REMARK    6  A    between atoms: C_10  and  O_11
REMARK    7  A    between atoms: O_11  and  C_12
REMARK    8  A    between atoms: C_12  and  C_13
REMARK    9  A    between atoms: C_21  and  C_36
REMARK   10  A    between atoms: C_33  and  C_35
REMARK                            x       y       z     vdW  Elec       q    Type
REMARK                         _______ _______ _______ _____ _____    ______ ____
ROOT
ATOM      1  C   UNL     1       3.349  -4.483   5.547  0.00  0.00    +0.152 C 
ATOM      2  C   UNL     1       2.457  -4.501   6.745  0.00  0.00    +0.072 A 
ATOM      3  C   UNL     1       1.135  -5.098   6.956  0.00  0.00    +0.199 A 
ATOM      4  O   UNL     1       0.613  -5.861   6.163  0.00  0.00    -0.287 OA
ATOM      5  C   UNL     1       0.492  -4.683   8.229  0.00  0.00    +0.065 A 
ATOM      6  C   UNL     1      -0.842  -5.002   8.483  0.00  0.00    +0.018 A 
ATOM      7  C   UNL     1      -1.421  -4.609   9.658  0.00  0.00    -0.050 A 
ATOM      8  C   UNL     1      -0.686  -3.894  10.594  0.00  0.00    +0.007 A 
ATOM      9  C   UNL     1       0.631  -3.572  10.360  0.00  0.00    +0.047 A 
ATOM     10  C   UNL     1       1.246  -3.964   9.170  0.00  0.00    +0.139 A 
ATOM     11  O   UNL     1       2.544  -3.645   8.965  0.00  0.00    -0.450 OA
ATOM     12  C   UNL     1       3.086  -3.809   7.742  0.00  0.00    +0.199 A 
ATOM     13  C   UNL     1       4.378  -3.327   7.226  0.00  0.00    +0.289 C 
ATOM     14  O   UNL     1       5.180  -2.673   7.862  0.00  0.00    -0.266 OA
ATOM     15  N   UNL     1       4.542  -3.717   5.944  0.00  0.00    -0.230 N 
ATOM     16  C   UNL     1       5.642  -3.446   5.141  0.00  0.00    +0.191 A 
ATOM     17  N   UNL     1       5.882  -3.782   3.881  0.00  0.00    -0.125 NA
ATOM     18  N   UNL     1       6.948  -3.448   3.295  0.00  0.00    -0.145 NA
ATOM     19  C   UNL     1       7.888  -2.745   3.895  0.00  0.00    +0.101 A 
ATOM     20  S   UNL     1       7.138  -2.534   5.508  0.00  0.00    -0.035 S 
ATOM     21  C   UNL     1       9.214  -2.255   3.372  0.00  0.00    +0.075 C 
ATOM     22  C   UNL     1      -2.861  -4.953   9.937  0.00  0.00    +0.044 C 
ENDROOT
BRANCH   1  26
ATOM     23  C   UNL     1       1.386  -2.554   2.274  0.00  0.00    +0.162 A 
ATOM     24  C   UNL     1       1.962  -1.799   3.283  0.00  0.00    +0.050 A 
ATOM     25  C   UNL     1       2.595  -2.425   4.340  0.00  0.00    +0.009 A 
ATOM     26  C   UNL     1       2.656  -3.805   4.393  0.00  0.00    -0.018 A 
ATOM     27  C   UNL     1       2.084  -4.565   3.389  0.00  0.00    +0.055 A 
ATOM     28  C   UNL     1       1.442  -3.944   2.330  0.00  0.00    +0.162 A 
BRANCH  23  29
ATOM     29  O   UNL     1       0.761  -1.940   1.234  0.00  0.00    -0.488 OA
BRANCH  29  30
ATOM     30  C   UNL     1       0.742  -0.511   1.242  0.00  0.00    +0.229 C 
BRANCH  30  32
ATOM     31  C   UNL     1      -0.019   1.526   0.010  0.00  0.00    +0.007 C 
ATOM     32  C   UNL     1       0.002  -0.004   0.002  0.00  0.00    +0.038 C 
ENDBRANCH  30  32
ENDBRANCH  29  30
ENDBRANCH  23  29
BRANCH  28  33
ATOM     33  O   UNL     1       0.874  -4.690   1.346  0.00  0.00    -0.489 OA
BRANCH  33  34
ATOM     34  C   UNL     1       0.971  -6.110   1.470  0.00  0.00    +0.226 C 
ATOM     35  C   UNL     1       0.279  -6.774   0.278  0.00  0.00    +0.048 C 
ENDBRANCH  33  34
ENDBRANCH  28  33
ENDBRANCH   1  26
TORSDOF 6
