REMARK  Name = ZINC39940972
REMARK  6 active torsions:
REMARK  status: ('A' for Active; 'I' for Inactive)
REMARK    1  A    between atoms: C_1  and  C_2
REMARK    2  A    between atoms: N_10  and  N_11
REMARK    3  A    between atoms: C_12  and  C_13
REMARK    4  A    between atoms: C_14  and  C_29
REMARK    5  A    between atoms: N_16  and  C_20
REMARK    6  A    between atoms: C_20  and  C_21
REMARK                            x       y       z     vdW  Elec       q    Type
REMARK                         _______ _______ _______ _____ _____    ______ ____
ROOT
ATOM      1  C   UNL     1      -4.626  -4.133   3.717  0.00  0.00    +0.023 C 
ATOM      2  C   UNL     1      -5.535  -3.865   2.762  0.00  0.00    +0.023 C 
ATOM      3  N   UNL     1      -6.729  -4.479   3.024  0.00  0.00    -0.280 N 
ATOM      4  N   UNL     1      -6.679  -5.198   4.183  0.00  0.00    -0.203 NA
ATOM      5  C   UNL     1      -5.313  -5.037   4.719  0.00  0.00    +0.200 C 
ATOM      6 CL   UNL     1      -5.364  -4.255   6.343  0.00  0.00    -0.098 Cl
ATOM      7  C   UNL     1      -5.272  -2.999   1.557  0.00  0.00    +0.062 C 
ATOM      8  H   UNL     1      -7.514  -4.411   2.458  0.00  0.00    +0.166 HD
ENDROOT
BRANCH   1  10
ATOM      9  N   UNL     1      -2.832  -2.889   2.829  0.00  0.00    -0.188 NA
ATOM     10  C   UNL     1      -3.290  -3.668   3.770  0.00  0.00    +0.138 C 
BRANCH   9  19
ATOM     11  C   UNL     1      -0.019   1.526   0.010  0.00  0.00    +0.044 C 
ATOM     12  C   UNL     1       0.002  -0.004   0.002  0.00  0.00    +0.210 C 
ATOM     13  C   UNL     1      -1.432  -0.493  -0.073  0.00  0.00    +0.265 C 
ATOM     14  O   UNL     1      -2.166  -0.177  -0.990  0.00  0.00    -0.271 OA
ATOM     15  N   UNL     1      -1.851  -1.289   0.918  0.00  0.00    -0.145 NA
ATOM     16  C   UNL     1      -1.033  -1.618   1.901  0.00  0.00    +0.221 C 
ATOM     17  N   UNL     1       0.255  -1.195   1.995  0.00  0.00    -0.253 N 
ATOM     18  N   UNL     1       0.791  -0.456   1.161  0.00  0.00    -0.197 NA
ATOM     19  N   UNL     1      -1.510  -2.428   2.882  0.00  0.00    -0.207 N 
ATOM     20  H   UNL     1      -0.935  -2.688   3.619  0.00  0.00    +0.177 HD
ATOM     21  H   UNL     1       0.781  -1.488   2.755  0.00  0.00    +0.191 HD
ENDBRANCH   9  19
ENDBRANCH   1  10
BRANCH   4  22
ATOM     22  C   UNL     1      -7.686  -4.723   5.141  0.00  0.00    +0.145 C 
BRANCH  22  23
ATOM     23  C   UNL     1      -9.065  -4.980   4.590  0.00  0.00    +0.005 A 
ATOM     24  C   UNL     1      -9.687  -4.023   3.808  0.00  0.00    +0.047 A 
ATOM     25  C   UNL     1     -10.953  -4.260   3.303  0.00  0.00    +0.020 A 
ATOM     26  C   UNL     1     -11.596  -5.451   3.579  0.00  0.00    +0.003 A 
ATOM     27  C   UNL     1     -10.975  -6.407   4.360  0.00  0.00    +0.020 A 
ATOM     28  C   UNL     1      -9.707  -6.175   4.862  0.00  0.00    +0.047 A 
ATOM     29 CL   UNL     1      -8.924  -7.379   5.836  0.00  0.00    -0.083 Cl
ATOM     30 CL   UNL     1      -8.879  -2.526   3.462  0.00  0.00    -0.083 Cl
ENDBRANCH  22  23
ENDBRANCH   4  22
TORSDOF 4
