REMARK  Name = ZINC01339647
REMARK  6 active torsions:
REMARK  status: ('A' for Active; 'I' for Inactive)
REMARK    1  A    between atoms: C_1  and  C_2
REMARK    2  A    between atoms: C_14  and  S_21
REMARK    3  A    between atoms: C_16  and  C_18
REMARK    4  A    between atoms: S_21  and  C_22
REMARK    5  A    between atoms: C_22  and  C_23
REMARK    6  A    between atoms: N_25  and  C_26
REMARK                            x       y       z     vdW  Elec       q    Type
REMARK                         _______ _______ _______ _____ _____    ______ ____
ROOT
ATOM      1  C   UNL     1      -1.752  -3.377  -0.015  0.00  0.00    +0.008 C 
ATOM      2  C   UNL     1      -0.665  -2.345  -0.321  0.00  0.00    -0.009 C 
ATOM      3  C   UNL     1       0.589  -2.655   0.502  0.00  0.00    +0.008 C 
ATOM      4  C   UNL     1       1.755  -1.791   0.021  0.00  0.00    +0.037 C 
ATOM      5  C   UNL     1       1.317  -0.328   0.023  0.00  0.00    -0.024 A 
ATOM      6  C   UNL     1       0.003  -0.005   0.038  0.00  0.00    -0.004 A 
ATOM      7  S   UNL     1      -0.022   1.768   0.035  0.00  0.00    -0.073 S 
ATOM      8  C   UNL     1       1.734   2.038   0.014  0.00  0.00    +0.114 A 
ATOM      9  C   UNL     1       2.255   0.735   0.010  0.00  0.00    +0.056 A 
ATOM     10  C   UNL     1       3.732   0.657  -0.007  0.00  0.00    +0.173 A 
ATOM     11  N   UNL     1       4.592  -0.331  -0.015  0.00  0.00    -0.128 NA
ATOM     12  N   UNL     1       5.791   0.139  -0.030  0.00  0.00    -0.122 NA
ATOM     13  C   UNL     1       5.766   1.452  -0.032  0.00  0.00    +0.198 A 
ATOM     14  N   UNL     1       4.452   1.832  -0.017  0.00  0.00    -0.257 N 
ATOM     15  C   UNL     1       3.812   3.037  -0.011  0.00  0.00    +0.122 A 
ATOM     16  N   UNL     1       2.512   3.116   0.003  0.00  0.00    -0.226 NA
ATOM     17  C   UNL     1      -1.165  -0.942   0.053  0.00  0.00    +0.046 C 
ENDROOT
BRANCH  15  18
ATOM     18  C   UNL     1       4.628   4.305  -0.022  0.00  0.00    +0.056 C 
ATOM     19  C   UNL     1       3.884   5.625   0.191  0.00  0.00    +0.012 C 
ATOM     20  C   UNL     1       4.424   5.265  -1.196  0.00  0.00    +0.012 C 
ENDBRANCH  15  18
BRANCH  13  21
ATOM     21  S   UNL     1       7.163   2.525  -0.049  0.00  0.00    -0.076 S 
BRANCH  21  22
ATOM     22  C   UNL     1       8.583   1.395  -0.065  0.00  0.00    +0.173 C 
BRANCH  22  23
ATOM     23  C   UNL     1       9.860   2.195  -0.080  0.00  0.00    +0.227 C 
ATOM     24  O   UNL     1       9.818   3.407  -0.081  0.00  0.00    -0.275 OA
ATOM     25  N   UNL     1      11.051   1.562  -0.093  0.00  0.00    -0.285 N 
ATOM     26  H   UNL     1      11.087   0.595  -0.025  0.00  0.00    +0.155 HD
BRANCH  25  27
ATOM     27  C   UNL     1      12.235   2.302  -0.206  0.00  0.00    +0.037 A 
ATOM     28  C   UNL     1      13.313   1.783  -0.911  0.00  0.00    +0.027 A 
ATOM     29  C   UNL     1      14.481   2.513  -1.026  0.00  0.00    +0.051 A 
ATOM     30  C   UNL     1      14.583   3.760  -0.431  0.00  0.00    +0.166 A 
ATOM     31  C   UNL     1      13.505   4.280   0.281  0.00  0.00    +0.168 A 
ATOM     32  C   UNL     1      12.334   3.550   0.393  0.00  0.00    +0.072 A 
ATOM     33  O   UNL     1      13.854   5.508   0.765  0.00  0.00    -0.453 OA
ATOM     34  C   UNL     1      15.291   5.558   0.689  0.00  0.00    +0.466 C 
ATOM     35  O   UNL     1      15.607   4.662  -0.394  0.00  0.00    -0.453 OA
ENDBRANCH  25  27
ENDBRANCH  22  23
ENDBRANCH  21  22
ENDBRANCH  13  21
TORSDOF 5
