REMARK  Name = ZINC10489270
REMARK  10 active torsions:
REMARK  status: ('A' for Active; 'I' for Inactive)
REMARK    1  A    between atoms: C_1  and  C_2
REMARK    2  A    between atoms: C_2  and  C_26
REMARK    3  A    between atoms: N_3  and  N_4
REMARK    4  A    between atoms: C_7  and  O_25
REMARK    5  A    between atoms: C_8  and  C_11
REMARK    6  A    between atoms: C_11  and  C_12
REMARK    7  A    between atoms: N_14  and  C_15
REMARK    8  A    between atoms: C_20  and  O_21
REMARK    9  A    between atoms: O_21  and  C_22
REMARK   10  A    between atoms: C_22  and  C_24
REMARK                            x       y       z     vdW  Elec       q    Type
REMARK                         _______ _______ _______ _____ _____    ______ ____
ROOT
ATOM      1  N   UNL     1       2.718   3.165   0.139  0.00  0.00    -0.122 NA
ATOM      2  C   UNL     1       2.011   2.049   0.173  0.00  0.00    +0.213 C 
ATOM      3  N   UNL     1       2.456   0.777   0.263  0.00  0.00    -0.189 NA
ATOM      4  C   UNL     1       1.695  -0.251   0.289  0.00  0.00    +0.204 C 
ATOM      5  C   UNL     1       0.199   0.024   0.210  0.00  0.00    +0.148 C 
ATOM      6  S   UNL     1       0.233   1.860   0.108  0.00  0.00    -0.071 S 
ENDROOT
BRANCH   1   9
ATOM      7  C   UNL     1       2.123   6.744   0.033  0.00  0.00    +0.068 C 
ATOM      8  C   UNL     1       2.821   5.408   0.016  0.00  0.00    +0.068 C 
ATOM      9  N   UNL     1       2.121   4.305   0.049  0.00  0.00    -0.151 NA
BRANCH   8  10
ATOM     10  C   UNL     1       4.289   5.346  -0.037  0.00  0.00    -0.002 A 
ATOM     11  C   UNL     1       5.057   6.319   0.612  0.00  0.00    +0.012 A 
ATOM     12  C   UNL     1       6.433   6.252   0.563  0.00  0.00    +0.039 A 
ATOM     13  C   UNL     1       7.056   5.230  -0.138  0.00  0.00    +0.123 A 
ATOM     14  C   UNL     1       6.301   4.267  -0.789  0.00  0.00    +0.039 A 
ATOM     15  C   UNL     1       4.924   4.319  -0.743  0.00  0.00    +0.012 A 
ATOM     16  F   UNL     1       8.405   5.173  -0.187  0.00  0.00    -0.205 F 
ENDBRANCH   8  10
ENDBRANCH   1   9
BRANCH   4  17
ATOM     17  O   UNL     1       2.187  -1.500   0.380  0.00  0.00    -0.495 OA
ATOM     18  H   UNL     1       3.148  -1.591   0.426  0.00  0.00    +0.293 HD
ENDBRANCH   4  17
BRANCH   5  19
ATOM     19  C   UNL     1      -0.416  -0.593  -1.048  0.00  0.00    +0.120 C 
BRANCH  19  20
ATOM     20  C   UNL     1      -1.875  -0.224  -1.126  0.00  0.00    +0.219 C 
ATOM     21  O   UNL     1      -2.374   0.464  -0.261  0.00  0.00    -0.275 OA
ATOM     22  N   UNL     1      -2.626  -0.660  -2.157  0.00  0.00    -0.283 N 
ATOM     23  H   UNL     1      -2.211  -1.137  -2.892  0.00  0.00    +0.155 HD
BRANCH  22  24
ATOM     24  C   UNL     1      -4.007  -0.424  -2.167  0.00  0.00    +0.076 A 
ATOM     25  C   UNL     1      -4.687  -0.226  -0.974  0.00  0.00    +0.027 A 
ATOM     26  C   UNL     1      -6.048   0.012  -0.987  0.00  0.00    +0.002 A 
ATOM     27  C   UNL     1      -6.737   0.044  -2.186  0.00  0.00    +0.004 A 
ATOM     28  C   UNL     1      -6.067  -0.157  -3.378  0.00  0.00    +0.048 A 
ATOM     29  C   UNL     1      -4.701  -0.391  -3.374  0.00  0.00    +0.153 A 
BRANCH  29  30
ATOM     30  O   UNL     1      -4.041  -0.590  -4.546  0.00  0.00    -0.424 OA
BRANCH  30  31
ATOM     31  C   UNL     1      -3.926  -1.857  -4.973  0.00  0.00    +0.309 C 
ATOM     32  O   UNL     1      -4.318  -2.767  -4.281  0.00  0.00    -0.251 OA
ATOM     33  C   UNL     1      -3.308  -2.146  -6.317  0.00  0.00    +0.136 C 
ENDBRANCH  30  31
ENDBRANCH  29  30
ENDBRANCH  22  24
ENDBRANCH  19  20
ENDBRANCH   5  19
TORSDOF 8
