REMARK  Name = ZINC63384974
REMARK  2 active torsions:
REMARK  status: ('A' for Active; 'I' for Inactive)
REMARK    1  A    between atoms: C_1  and  C_2
REMARK    2  A    between atoms: C_2  and  C_3
REMARK                            x       y       z     vdW  Elec       q    Type
REMARK                         _______ _______ _______ _____ _____    ______ ____
ROOT
ATOM      1  C   UNL     1       0.707  -0.490  -1.238  0.00  0.00    +0.216 C 
ATOM      2  O   UNL     1       1.112   0.308  -2.057  0.00  0.00    -0.276 OA
ATOM      3  N   UNL     1       0.847  -1.812  -1.460  0.00  0.00    -0.281 N 
ATOM      4  C   UNL     1       0.401  -2.768  -0.439  0.00  0.00    +0.113 C 
ATOM      5  C   UNL     1       1.575  -3.682  -0.044  0.00  0.00    +0.052 C 
ATOM      6  C   UNL     1       2.231  -4.126  -1.328  0.00  0.00    -0.034 C 
ATOM      7  C   UNL     1       2.535  -5.333  -1.790  0.00  0.00    -0.001 A 
ATOM      8  C   UNL     1       2.450  -6.667  -1.175  0.00  0.00    +0.010 A 
ATOM      9  C   UNL     1       2.831  -7.713  -1.956  0.00  0.00    +0.001 A 
ATOM     10  C   UNL     1       3.283  -7.566  -3.271  0.00  0.00    +0.002 A 
ATOM     11  C   UNL     1       3.403  -6.376  -3.912  0.00  0.00    +0.026 A 
ATOM     12  C   UNL     1       3.040  -5.202  -3.191  0.00  0.00    +0.043 A 
ATOM     13  N   UNL     1       3.077  -3.951  -3.546  0.00  0.00    -0.375 N 
ATOM     14  C   UNL     1       2.663  -3.135  -2.404  0.00  0.00    +0.143 C 
ATOM     15  C   UNL     1       1.435  -2.276  -2.719  0.00  0.00    +0.165 C 
ATOM     16  C   UNL     1       0.438  -3.026  -3.541  0.00  0.00    +0.009 A 
ATOM     17  C   UNL     1      -0.270  -4.183  -3.293  0.00  0.00    +0.023 A 
ATOM     18  C   UNL     1      -1.134  -4.621  -4.291  0.00  0.00    +0.018 A 
ATOM     19  C   UNL     1      -1.276  -3.926  -5.476  0.00  0.00    +0.017 A 
ATOM     20  C   UNL     1      -0.568  -2.762  -5.732  0.00  0.00    +0.025 A 
ATOM     21  C   UNL     1       0.303  -2.311  -4.738  0.00  0.00    +0.039 A 
ATOM     22  N   UNL     1       1.121  -1.195  -4.727  0.00  0.00    -0.283 N 
ATOM     23  C   UNL     1       1.824  -1.094  -3.579  0.00  0.00    +0.248 C 
ATOM     24  O   UNL     1       2.616  -0.222  -3.292  0.00  0.00    -0.273 OA
ATOM     25 BR   UNL     1      -2.136  -6.201  -4.020  0.00  0.00    -0.050 Br
ATOM     26  H   UNL     1       1.183  -0.561  -5.458  0.00  0.00    +0.155 HD
ATOM     27  H   UNL     1       3.336  -3.617  -4.418  0.00  0.00    +0.160 HD
ENDROOT
BRANCH   1  29
ATOM     28  C   UNL     1       0.018   1.526   0.030  0.00  0.00    +0.013 C 
ATOM     29  C   UNL     1       0.049  -0.003   0.027  0.00  0.00    +0.092 C 
ENDBRANCH   1  29
TORSDOF 1
