REMARK  Name = ZINC12006199
REMARK  4 active torsions:
REMARK  status: ('A' for Active; 'I' for Inactive)
REMARK    1  A    between atoms: C_1  and  C_2
REMARK    2  A    between atoms: C_11  and  N_20
REMARK    3  A    between atoms: C_13  and  C_15
REMARK    4  A    between atoms: C_21  and  C_23
REMARK                            x       y       z     vdW  Elec       q    Type
REMARK                         _______ _______ _______ _____ _____    ______ ____
ROOT
ATOM      1  C   UNL     1      -5.148   4.939   0.081  0.00  0.00    +0.066 C 
ATOM      2  C   UNL     1      -3.657   5.159   0.067  0.00  0.00    +0.047 A 
ATOM      3  C   UNL     1      -3.156   6.428   0.069  0.00  0.00    +0.093 A 
ATOM      4  C   UNL     1      -1.760   6.607   0.056  0.00  0.00    +0.253 A 
ATOM      5  O   UNL     1      -1.276   7.727   0.057  0.00  0.00    -0.268 OA
ATOM      6  N   UNL     1      -0.967   5.514   0.047  0.00  0.00    -0.291 N 
ATOM      7  H   UNL     1      -0.002   5.613   0.043  0.00  0.00    +0.172 HD
ATOM      8  C   UNL     1      -1.525   4.274   0.040  0.00  0.00    +0.234 A 
ATOM      9  N   UNL     1      -2.831   4.115   0.052  0.00  0.00    -0.217 NA
ATOM     10  N   UNL     1      -0.706   3.162   0.026  0.00  0.00    -0.184 N 
ATOM     11  C   UNL     1      -1.120   1.860   0.017  0.00  0.00    +0.132 A 
ATOM     12  C   UNL     1      -0.013   1.076   0.008  0.00  0.00    +0.077 A 
ATOM     13  C   UNL     1       1.116   1.923   0.002  0.00  0.00    +0.130 A 
ATOM     14  N   UNL     1       0.695   3.171   0.013  0.00  0.00    -0.159 NA
ENDROOT
BRANCH  13  15
ATOM     15  C   UNL     1       2.528   1.485  -0.014  0.00  0.00    +0.155 A 
ATOM     16  C   UNL     1       3.616   2.300  -0.026  0.00  0.00    +0.051 A 
ATOM     17  C   UNL     1       4.750   1.463  -0.036  0.00  0.00    +0.042 A 
ATOM     18  C   UNL     1       4.303   0.192  -0.039  0.00  0.00    +0.196 A 
ATOM     19  O   UNL     1       2.960   0.209  -0.026  0.00  0.00    -0.461 OA
ENDBRANCH  13  15
BRANCH  11  20
ATOM     20  N   UNL     1      -2.441   1.417   0.019  0.00  0.00    -0.269 N 
ATOM     21  C   UNL     1      -2.709   0.097   0.013  0.00  0.00    +0.233 C 
ATOM     22  O   UNL     1      -1.800  -0.707   0.005  0.00  0.00    -0.274 OA
ATOM     23  H   UNL     1      -3.167   2.060   0.025  0.00  0.00    +0.156 HD
BRANCH  21  24
ATOM     24  C   UNL     1      -4.138  -0.382   0.015  0.00  0.00    +0.204 C 
ATOM     25 CL   UNL     1      -4.167  -2.185   0.006  0.00  0.00    -0.116 Cl
ENDBRANCH  21  24
ENDBRANCH  11  20
TORSDOF 3
