REMARK  Name = ZINC06320960
REMARK  10 active torsions:
REMARK  status: ('A' for Active; 'I' for Inactive)
REMARK    1  A    between atoms: C_1  and  C_2
REMARK    2  A    between atoms: C_6  and  C_15
REMARK    3  A    between atoms: C_13  and  C_14
REMARK    4  A    between atoms: C_15  and  C_17
REMARK    5  A    between atoms: C_15  and  N_67
REMARK    6  A    between atoms: N_21  and  C_22
REMARK    7  A    between atoms: C_22  and  C_23
REMARK    8  A    between atoms: C_22  and  C_24
REMARK    9  A    between atoms: C_22  and  C_25
REMARK   10  A    between atoms: C_28  and  C_31
REMARK                            x       y       z     vdW  Elec       q    Type
REMARK                         _______ _______ _______ _____ _____    ______ ____
ROOT
ATOM      1  C   UNL     1      -4.768   3.738  -0.118  0.00  0.00    +0.039 C 
ENDROOT
BRANCH   1   7
ATOM      2  C   UNL     1       2.637   3.575  -0.988  0.00  0.00    +0.044 C 
ATOM      3  C   UNL     1       1.313   2.866  -0.856  0.00  0.00    -0.047 A 
ATOM      4  C   UNL     1       0.169   3.595  -0.691  0.00  0.00    +0.013 A 
ATOM      5  C   UNL     1      -1.059   2.938  -0.569  0.00  0.00    -0.001 A 
ATOM      6  C   UNL     1      -2.305   3.687  -0.392  0.00  0.00    +0.017 A 
ATOM      7  C   UNL     1      -3.468   2.997  -0.296  0.00  0.00    +0.011 A 
ATOM      8  C   UNL     1      -3.464   1.586  -0.349  0.00  0.00    +0.251 A 
ATOM      9  O   UNL     1      -4.520   0.985  -0.251  0.00  0.00    -0.268 OA
ATOM     10  N   UNL     1      -2.325   0.889  -0.507  0.00  0.00    -0.322 N 
ATOM     11  H   UNL     1      -2.359  -0.080  -0.540  0.00  0.00    +0.169 HD
ATOM     12  C   UNL     1      -1.111   1.532  -0.622  0.00  0.00    +0.049 A 
ATOM     13  C   UNL     1       0.068   0.811  -0.784  0.00  0.00    +0.030 A 
ATOM     14  C   UNL     1       1.267   1.480  -0.902  0.00  0.00    -0.046 A 
ATOM     15  C   UNL     1       2.542   0.697  -1.085  0.00  0.00    +0.044 C 
ENDBRANCH   1   7
BRANCH   1  21
ATOM     16  C   UNL     1      -6.669   4.027   1.357  0.00  0.00    -0.072 C 
ATOM     17  C   UNL     1      -7.498   3.286   2.409  0.00  0.00    +0.017 C 
ATOM     18  C   UNL     1      -6.621   2.901   3.567  0.00  0.00    -0.048 C 
ATOM     19  C   UNL     1      -5.308   2.893   3.492  0.00  0.00    -0.041 C 
ATOM     20  C   UNL     1      -4.557   3.275   2.248  0.00  0.00    -0.049 C 
ATOM     21  N   UNL     1      -5.461   3.222   1.085  0.00  0.00    +0.392 N 
ATOM     22  H   UNL     1      -5.738   2.248   0.918  0.00  0.00    -0.080 HD
BRANCH  18  23
ATOM     23  C   UNL     1      -7.260   2.515   4.843  0.00  0.00    -0.022 A 
ATOM     24  C   UNL     1      -8.052   1.368   4.911  0.00  0.00    +0.011 A 
ATOM     25  C   UNL     1      -8.641   1.009   6.105  0.00  0.00    +0.039 A 
ATOM     26  C   UNL     1      -8.457   1.792   7.234  0.00  0.00    +0.123 A 
ATOM     27  C   UNL     1      -7.676   2.935   7.171  0.00  0.00    +0.039 A 
ATOM     28  C   UNL     1      -7.077   3.299   5.983  0.00  0.00    +0.011 A 
ATOM     29  F   UNL     1      -9.041   1.439   8.400  0.00  0.00    -0.205 F 
ENDBRANCH  18  23
ENDBRANCH   1  21
BRANCH   1  30
ATOM     30  C   UNL     1      -5.644   3.511  -1.323  0.00  0.00    +0.143 A 
ATOM     31  N   UNL     1      -6.216   2.385  -1.673  0.00  0.00    -0.115 NA
ATOM     32  N   UNL     1      -6.882   2.597  -2.756  0.00  0.00    -0.023 NA
ATOM     33  N   UNL     1      -6.743   3.827  -3.110  0.00  0.00    -0.043 NA
ATOM     34  N   UNL     1      -5.987   4.423  -2.251  0.00  0.00    -0.225 N 
BRANCH  34  35
ATOM     35  C   UNL     1      -5.578   5.830  -2.281  0.00  0.00    +0.059 C 
ATOM     36  C   UNL     1      -4.051   5.917  -2.300  0.00  0.00    +0.036 C 
ATOM     37  C   UNL     1      -6.142   6.498  -3.536  0.00  0.00    +0.036 C 
ATOM     38  C   UNL     1      -6.114   6.543  -1.038  0.00  0.00    +0.036 C 
ENDBRANCH  34  35
ENDBRANCH   1  30
TORSDOF 5
