REMARK  Name = ZINC39325282
REMARK  10 active torsions:
REMARK  status: ('A' for Active; 'I' for Inactive)
REMARK    1  A    between atoms: C_1  and  C_2
REMARK    2  A    between atoms: C_6  and  C_15
REMARK    3  A    between atoms: C_13  and  C_14
REMARK    4  A    between atoms: C_15  and  N_16
REMARK    5  A    between atoms: N_16  and  C_17
REMARK    6  A    between atoms: N_16  and  S_27
REMARK    7  A    between atoms: C_17  and  C_18
REMARK    8  A    between atoms: S_27  and  C_30
REMARK    9  A    between atoms: C_33  and  O_36
REMARK   10  A    between atoms: O_36  and  C_37
REMARK                            x       y       z     vdW  Elec       q    Type
REMARK                         _______ _______ _______ _____ _____    ______ ____
ROOT
ATOM      1  N   UNL     1       1.293  -6.329  -2.915  0.00  0.00    -0.171 NA
ENDROOT
BRANCH   1   2
ATOM      2  S   UNL     1       2.068  -7.052  -1.642  0.00  0.00    +0.061 S 
ATOM      3  O   UNL     1       2.515  -8.319  -2.105  0.00  0.00    -0.153 OA
ATOM      4  O   UNL     1       2.954  -6.082  -1.101  0.00  0.00    -0.153 OA
BRANCH   2   5
ATOM      5  C   UNL     1       0.853  -7.369  -0.405  0.00  0.00    +0.106 A 
ATOM      6  C   UNL     1       0.671  -6.471   0.630  0.00  0.00    +0.032 A 
ATOM      7  C   UNL     1      -0.280  -6.717   1.601  0.00  0.00    +0.047 A 
ATOM      8  C   UNL     1      -1.054  -7.867   1.536  0.00  0.00    +0.120 A 
ATOM      9  C   UNL     1      -0.869  -8.767   0.497  0.00  0.00    +0.047 A 
ATOM     10  C   UNL     1       0.080  -8.513  -0.475  0.00  0.00    +0.032 A 
BRANCH   8  11
ATOM     11  O   UNL     1      -1.990  -8.112   2.491  0.00  0.00    -0.495 OA
ATOM     12  C   UNL     1      -2.749  -9.315   2.361  0.00  0.00    +0.277 C 
ENDBRANCH   8  11
ENDBRANCH   2   5
ENDBRANCH   1   2
BRANCH   1  13
ATOM     13  C   UNL     1       1.298  -4.870  -3.041  0.00  0.00    +0.126 C 
BRANCH  13  19
ATOM     14  C   UNL     1      -1.191   1.526  -1.063  0.00  0.00    +0.044 C 
ATOM     15  C   UNL     1      -1.190   0.018  -1.049  0.00  0.00    -0.047 A 
ATOM     16  C   UNL     1      -0.633  -0.655  -2.089  0.00  0.00    +0.013 A 
ATOM     17  C   UNL     1      -0.638  -2.118  -2.064  0.00  0.00    -0.007 A 
ATOM     18  C   UNL     1      -0.090  -2.837  -3.086  0.00  0.00    -0.003 C 
ATOM     19  C   UNL     1      -0.139  -4.348  -2.977  0.00  0.00    +0.114 C 
ATOM     20  C   UNL     1      -0.790  -4.936  -1.745  0.00  0.00    +0.225 C 
ATOM     21  O   UNL     1      -0.857  -6.142  -1.606  0.00  0.00    -0.275 OA
ATOM     22  N   UNL     1      -1.288  -4.132  -0.820  0.00  0.00    -0.284 N 
ATOM     23  C   UNL     1      -1.247  -2.803  -0.911  0.00  0.00    +0.041 A 
ATOM     24  C   UNL     1      -1.796  -2.011   0.114  0.00  0.00    +0.027 A 
ATOM     25  C   UNL     1      -1.756  -0.655   0.034  0.00  0.00    -0.046 A 
ATOM     26  C   UNL     1      -2.350   0.154   1.158  0.00  0.00    +0.044 C 
ATOM     27  H   UNL     1      -1.701  -4.529  -0.037  0.00  0.00    +0.155 HD
ENDBRANCH  13  19
ENDBRANCH   1  13
BRANCH   1  28
ATOM     28  C   UNL     1       0.604  -7.149  -3.914  0.00  0.00    +0.144 C 
BRANCH  28  29
ATOM     29  C   UNL     1       1.524  -7.398  -5.081  0.00  0.00    -0.028 A 
ATOM     30  C   UNL     1       1.542  -6.516  -6.146  0.00  0.00    +0.009 A 
ATOM     31  C   UNL     1       2.385  -6.739  -7.219  0.00  0.00    +0.050 A 
ATOM     32  C   UNL     1       3.214  -7.849  -7.229  0.00  0.00    +0.166 A 
ATOM     33  C   UNL     1       3.196  -8.737  -6.157  0.00  0.00    +0.167 A 
ATOM     34  C   UNL     1       2.353  -8.504  -5.083  0.00  0.00    +0.054 A 
ATOM     35  O   UNL     1       4.093  -9.736  -6.404  0.00  0.00    -0.453 OA
ATOM     36  C   UNL     1       4.361  -9.672  -7.817  0.00  0.00    +0.466 C 
ATOM     37  O   UNL     1       4.122  -8.291  -8.148  0.00  0.00    -0.453 OA
ENDBRANCH  28  29
ENDBRANCH   1  28
TORSDOF 7
