REMARK  Name = ZINC49042658
REMARK  7 active torsions:
REMARK  status: ('A' for Active; 'I' for Inactive)
REMARK    1  A    between atoms: C_1  and  C_2
REMARK    2  A    between atoms: C_2  and  C_3
REMARK    3  A    between atoms: C_2  and  N_4
REMARK    4  A    between atoms: N_4  and  C_5
REMARK    5  A    between atoms: N_4  and  S_6
REMARK    6  A    between atoms: S_6  and  N_9
REMARK    7  A    between atoms: C_18  and  N_19
REMARK                            x       y       z     vdW  Elec       q    Type
REMARK                         _______ _______ _______ _____ _____    ______ ____
ROOT
ATOM      1  N   UNL     1       2.056  -2.756  -1.484  0.00  0.00    -0.193 N 
ATOM      2  C   UNL     1       1.785  -3.676  -0.371  0.00  0.00    +0.133 C 
ATOM      3  C   UNL     1       2.696  -4.899  -0.542  0.00  0.00    +0.025 C 
ATOM      4  C   UNL     1       2.326  -5.612  -1.843  0.00  0.00    +0.040 C 
ATOM      5  C   UNL     1       2.301  -4.636  -2.990  0.00  0.00    -0.004 A 
ATOM      6  C   UNL     1       2.162  -3.273  -2.780  0.00  0.00    +0.057 A 
ATOM      7  C   UNL     1       2.132  -2.400  -3.862  0.00  0.00    +0.025 A 
ATOM      8  C   UNL     1       2.237  -2.886  -5.151  0.00  0.00    +0.004 A 
ATOM      9  C   UNL     1       2.374  -4.243  -5.367  0.00  0.00    +0.023 A 
ATOM     10  C   UNL     1       2.414  -5.122  -4.288  0.00  0.00    +0.030 A 
ENDROOT
BRANCH   1  11
ATOM     11  S   UNL     1       2.226  -1.132  -1.210  0.00  0.00    +0.114 S 
ATOM     12  O   UNL     1       2.993  -0.616  -2.290  0.00  0.00    -0.138 OA
ATOM     13  O   UNL     1       2.626  -0.988   0.145  0.00  0.00    -0.138 OA
BRANCH  11  14
ATOM     14  N   UNL     1       0.720  -0.454  -1.333  0.00  0.00    -0.164 NA
ATOM     15  C   UNL     1       0.298   0.172  -2.590  0.00  0.00    +0.133 C 
BRANCH  14  17
ATOM     16  C   UNL     1      -0.546   0.953   0.215  0.00  0.00    +0.025 C 
ATOM     17  C   UNL     1      -0.191  -0.480  -0.186  0.00  0.00    +0.075 C 
ATOM     18  C   UNL     1      -1.467  -1.234  -0.565  0.00  0.00    +0.025 C 
ENDBRANCH  14  17
ENDBRANCH  11  14
ENDBRANCH   1  11
BRANCH  10  19
ATOM     19  N   UNL     1       2.551  -6.494  -4.510  0.00  0.00    -0.358 N 
ATOM     20  H   UNL     1       2.568  -7.107  -3.759  0.00  0.00    +0.142 HD
ATOM     21  H   UNL     1       2.631  -6.833  -5.415  0.00  0.00    +0.142 HD
ENDBRANCH  10  19
TORSDOF 4
