REMARK  Name = ZINC16941853
REMARK  2 active torsions:
REMARK  status: ('A' for Active; 'I' for Inactive)
REMARK    1  A    between atoms: C_4  and  N_34
REMARK    2  A    between atoms: C_10  and  C_13
REMARK                            x       y       z     vdW  Elec       q    Type
REMARK                         _______ _______ _______ _____ _____    ______ ____
ROOT
ATOM      1  C   UNL     1      -2.126   1.284  -3.631  0.00  0.00    -0.078 C 
ATOM      2  C   UNL     1      -2.823   1.930  -4.830  0.00  0.00    -0.018 C 
ATOM      3  C   UNL     1      -4.236   1.355  -4.963  0.00  0.00    +0.011 C 
ATOM      4  C   UNL     1      -5.004   1.603  -3.661  0.00  0.00    +0.086 C 
ATOM      5  C   UNL     1      -4.243   0.966  -2.496  0.00  0.00    -0.064 C 
ATOM      6  N   UNL     1      -2.901   1.579  -2.407  0.00  0.00    +0.382 N 
ATOM      7  H   UNL     1      -3.005   2.597  -2.317  0.00  0.00    -0.081 HD
ENDROOT
BRANCH   6  11
ATOM      8  C   UNL     1      -0.729   1.579   1.267  0.00  0.00    -0.000 C 
ATOM      9  C   UNL     1      -0.013   1.086   0.008  0.00  0.00    -0.002 C 
ATOM     10  C   UNL     1      -0.753   1.593  -1.232  0.00  0.00    -0.015 C 
ATOM     11  C   UNL     1      -2.188   1.063  -1.221  0.00  0.00    -0.069 C 
ATOM     12  C   UNL     1      -2.904   1.556   0.038  0.00  0.00    -0.015 C 
ATOM     13  C   UNL     1      -2.164   1.050   1.278  0.00  0.00    -0.002 C 
ENDBRANCH   6  11
BRANCH   4  14
ATOM     14  C   UNL     1      -6.377   0.989  -3.761  0.00  0.00    +0.357 C 
ATOM     15  O   UNL     1      -6.713   0.130  -2.981  0.00  0.00    -0.246 OA
ATOM     16  O   UNL     1      -7.226   1.396  -4.717  0.00  0.00    -0.246 OA
ENDBRANCH   4  14
TORSDOF 2
