REMARK  Name = ZINC33936820
REMARK  10 active torsions:
REMARK  status: ('A' for Active; 'I' for Inactive)
REMARK    1  A    between atoms: C_1  and  C_2
REMARK    2  A    between atoms: C_12  and  C_14
REMARK    3  A    between atoms: C_14  and  C_16
REMARK    4  A    between atoms: C_14  and  N_28
REMARK    5  A    between atoms: N_20  and  C_21
REMARK    6  A    between atoms: C_21  and  C_22
REMARK    7  A    between atoms: N_28  and  C_29
REMARK    8  A    between atoms: N_28  and  C_36
REMARK    9  A    between atoms: C_29  and  C_30
REMARK   10  A    between atoms: C_36  and  C_37
REMARK                            x       y       z     vdW  Elec       q    Type
REMARK                         _______ _______ _______ _____ _____    ______ ____
ROOT
ATOM      1  C   UNL     1      -0.556  -3.576   4.872  0.00  0.00    +0.163 C 
ENDROOT
BRANCH   1  13
ATOM      2  C   UNL     1      -3.848  -0.022   0.430  0.00  0.00    +0.046 C 
ATOM      3  C   UNL     1      -2.371  -0.243   0.630  0.00  0.00    -0.026 A 
ATOM      4  C   UNL     1      -1.460   0.363  -0.208  0.00  0.00    +0.005 A 
ATOM      5  C   UNL     1      -0.097   0.167  -0.034  0.00  0.00    +0.001 A 
ATOM      6  C   UNL     1       0.367  -0.632   0.973  0.00  0.00    +0.010 A 
ATOM      7  C   UNL     1      -0.538  -1.257   1.835  0.00  0.00    -0.001 A 
ATOM      8  C   UNL     1      -1.921  -1.056   1.665  0.00  0.00    +0.052 A 
ATOM      9  N   UNL     1      -2.810  -1.671   2.522  0.00  0.00    -0.322 N 
ATOM     10  H   UNL     1      -3.763  -1.534   2.401  0.00  0.00    +0.169 HD
ATOM     11  C   UNL     1      -2.375  -2.457   3.522  0.00  0.00    +0.254 A 
ATOM     12  O   UNL     1      -3.189  -2.985   4.260  0.00  0.00    -0.268 OA
ATOM     13  C   UNL     1      -0.999  -2.687   3.739  0.00  0.00    +0.042 A 
ATOM     14  C   UNL     1      -0.075  -2.120   2.924  0.00  0.00    +0.021 A 
ENDBRANCH   1  13
BRANCH   1  15
ATOM     15  C   UNL     1       0.945  -3.521   4.996  0.00  0.00    +0.173 A 
ATOM     16  N   UNL     1       1.685  -2.442   5.074  0.00  0.00    -0.111 NA
ATOM     17  N   UNL     1       2.916  -2.809   5.170  0.00  0.00    -0.023 NA
ATOM     18  N   UNL     1       2.981  -4.095   5.155  0.00  0.00    -0.044 NA
ATOM     19  N   UNL     1       1.786  -4.570   5.055  0.00  0.00    -0.225 N 
BRANCH  19  20
ATOM     20  C   UNL     1       1.413  -5.987   5.010  0.00  0.00    +0.179 C 
BRANCH  20  21
ATOM     21  C   UNL     1       1.403  -6.465   3.557  0.00  0.00    +0.140 C 
ATOM     22  C   UNL     1       1.100  -7.983   3.493  0.00  0.00    +0.035 C 
ATOM     23  C   UNL     1       0.510  -8.106   2.061  0.00  0.00    +0.031 C 
ATOM     24  C   UNL     1      -0.233  -6.763   1.897  0.00  0.00    +0.160 C 
ATOM     25  O   UNL     1       0.333  -5.836   2.833  0.00  0.00    -0.375 OA
ENDBRANCH  20  21
ENDBRANCH  19  20
ENDBRANCH   1  15
BRANCH   1  26
ATOM     26  N   UNL     1      -1.168  -3.114   6.125  0.00  0.00    -0.280 NA
BRANCH  26  27
ATOM     27  C   UNL     1      -0.642  -1.798   6.514  0.00  0.00    +0.121 C 
BRANCH  27  28
ATOM     28  C   UNL     1      -1.335  -0.724   5.716  0.00  0.00    -0.033 A 
ATOM     29  C   UNL     1      -0.666  -0.088   4.687  0.00  0.00    +0.005 A 
ATOM     30  C   UNL     1      -1.301   0.897   3.955  0.00  0.00    +0.000 A 
ATOM     31  C   UNL     1      -2.605   1.247   4.252  0.00  0.00    +0.000 A 
ATOM     32  C   UNL     1      -3.274   0.611   5.281  0.00  0.00    +0.000 A 
ATOM     33  C   UNL     1      -2.640  -0.378   6.010  0.00  0.00    +0.005 A 
ENDBRANCH  27  28
ENDBRANCH  26  27
BRANCH  26  34
ATOM     34  C   UNL     1      -0.975  -4.097   7.199  0.00  0.00    +0.122 C 
BRANCH  34  35
ATOM     35  C   UNL     1      -1.930  -3.803   8.327  0.00  0.00    -0.015 A 
ATOM     36  C   UNL     1      -1.577  -2.916   9.333  0.00  0.00    +0.008 A 
ATOM     37  C   UNL     1      -2.487  -2.676  10.351  0.00  0.00    +0.020 A 
ATOM     38  C   UNL     1      -3.708  -3.324  10.329  0.00  0.00    +0.111 A 
ATOM     39  N   UNL     1      -4.010  -4.161   9.356  0.00  0.00    -0.263 NA
ATOM     40  C   UNL     1      -3.171  -4.409   8.369  0.00  0.00    +0.115 A 
ENDBRANCH  34  35
ENDBRANCH  26  34
ENDBRANCH   1  26
TORSDOF 9
