REMARK  Name = ZINC61377336
REMARK  11 active torsions:
REMARK  status: ('A' for Active; 'I' for Inactive)
REMARK    1  A    between atoms: C_1  and  N_2
REMARK    2  A    between atoms: N_2  and  C_3
REMARK    3  A    between atoms: N_2  and  C_17
REMARK    4  A    between atoms: C_3  and  C_4
REMARK    5  A    between atoms: C_4  and  N_5
REMARK    6  A    between atoms: N_5  and  S_6
REMARK    7  A    between atoms: S_6  and  C_9
REMARK    8  A    between atoms: C_14  and  N_15
REMARK    9  A    between atoms: C_17  and  C_18
REMARK   10  A    between atoms: C_18  and  O_19
REMARK   11  A    between atoms: O_19  and  C_20
REMARK                            x       y       z     vdW  Elec       q    Type
REMARK                         _______ _______ _______ _____ _____    ______ ____
ROOT
ATOM      1  S   UNL     1       4.591  -0.707   2.308  0.00  0.00    +0.060 S 
ATOM      2  O   UNL     1       5.082  -1.308   3.498  0.00  0.00    -0.153 OA
ATOM      3  O   UNL     1       4.835  -1.257   1.020  0.00  0.00    -0.153 OA
ENDROOT
BRANCH   1   4
ATOM      4  C   UNL     1       5.219   0.939   2.279  0.00  0.00    +0.126 A 
ATOM      5  C   UNL     1       5.843   1.421   1.144  0.00  0.00    +0.031 A 
ATOM      6  C   UNL     1       6.336   2.713   1.120  0.00  0.00    +0.017 A 
ATOM      7  C   UNL     1       6.206   3.527   2.232  0.00  0.00    +0.020 A 
ATOM      8  C   UNL     1       5.583   3.051   3.370  0.00  0.00    +0.040 A 
ATOM      9  C   UNL     1       5.082   1.755   3.394  0.00  0.00    +0.052 A 
ATOM     10 BR   UNL     1       6.882   5.293   2.194  0.00  0.00    -0.050 Br
BRANCH   9  11
ATOM     11  N   UNL     1       4.447   1.272   4.541  0.00  0.00    -0.356 N 
ATOM     12  H   UNL     1       4.022   0.401   4.529  0.00  0.00    +0.142 HD
ATOM     13  H   UNL     1       4.431   1.809   5.349  0.00  0.00    +0.142 HD
ENDBRANCH   9  11
ENDBRANCH   1   4
BRANCH   1  14
ATOM     14  N   UNL     1       2.947  -0.601   2.474  0.00  0.00    -0.192 NA
ATOM     15  H   UNL     1       2.518  -0.943   3.273  0.00  0.00    +0.148 HD
BRANCH  14  16
ATOM     16  C   UNL     1       2.142   0.009   1.413  0.00  0.00    +0.087 C 
BRANCH  16  17
ATOM     17  C   UNL     1       0.669  -0.351   1.620  0.00  0.00    -0.062 C 
BRANCH  17  19
ATOM     18  C   UNL     1      -0.076   1.724   0.674  0.00  0.00    -0.096 C 
ATOM     19  N   UNL     1      -0.139   0.261   0.556  0.00  0.00    +0.380 N 
ATOM     20  H   UNL     1       0.222  -0.020  -0.343  0.00  0.00    -0.082 HD
BRANCH  19  21
ATOM     21  C   UNL     1      -1.534  -0.182   0.685  0.00  0.00    -0.051 C 
BRANCH  21  22
ATOM     22  C   UNL     1      -2.349   0.354  -0.493  0.00  0.00    +0.141 C 
BRANCH  22  23
ATOM     23  O   UNL     1      -1.877  -0.234  -1.707  0.00  0.00    -0.385 OA
ATOM     24  C   UNL     1      -2.575   0.202  -2.874  0.00  0.00    +0.193 C 
ENDBRANCH  22  23
ENDBRANCH  21  22
ENDBRANCH  19  21
ENDBRANCH  17  19
ENDBRANCH  16  17
ENDBRANCH  14  16
ENDBRANCH   1  14
TORSDOF 9
