REMARK  Name = ZINC39360144
REMARK  9 active torsions:
REMARK  status: ('A' for Active; 'I' for Inactive)
REMARK    1  A    between atoms: C_1  and  C_2
REMARK    2  A    between atoms: C_4  and  C_9
REMARK    3  A    between atoms: C_5  and  C_8
REMARK    4  A    between atoms: C_9  and  N_10
REMARK    5  A    between atoms: N_10  and  C_11
REMARK    6  A    between atoms: C_12  and  C_14
REMARK    7  A    between atoms: C_14  and  C_15
REMARK    8  A    between atoms: N_22  and  C_23
REMARK    9  A    between atoms: C_23  and  C_24
REMARK                            x       y       z     vdW  Elec       q    Type
REMARK                         _______ _______ _______ _____ _____    ______ ____
ROOT
ATOM      1  C   UNL     1      -6.264   2.123   1.536  0.00  0.00    +0.028 C 
ATOM      2  C   UNL     1      -7.354   3.154   1.459  0.00  0.00    +0.200 C 
ATOM      3  O   UNL     1      -7.520   3.748   0.414  0.00  0.00    -0.278 OA
ATOM      4  N   UNL     1      -8.150   3.443   2.495  0.00  0.00    -0.318 N 
ATOM      5  C   UNL     1      -8.008   2.800   3.799  0.00  0.00    +0.085 C 
ATOM      6  C   UNL     1      -7.180   1.521   3.662  0.00  0.00    -0.059 C 
ATOM      7  N   UNL     1      -5.939   1.839   2.939  0.00  0.00    +0.389 N 
ATOM      8  H   UNL     1      -8.848   4.106   2.376  0.00  0.00    +0.149 HD
ATOM      9  H   UNL     1      -5.502   2.648   3.355  0.00  0.00    -0.081 HD
ENDROOT
BRANCH   1  10
ATOM     10  C   UNL     1      -5.017   2.648   0.822  0.00  0.00    +0.090 C 
BRANCH  10  13
ATOM     11  N   UNL     1      -4.279   3.042  -1.506  0.00  0.00    -0.300 N 
ATOM     12  C   UNL     1      -2.922   3.247  -0.993  0.00  0.00    +0.132 C 
ATOM     13  C   UNL     1      -5.274   2.705  -0.662  0.00  0.00    +0.215 C 
ATOM     14  O   UNL     1      -6.376   2.447  -1.097  0.00  0.00    -0.276 OA
BRANCH  11  15
ATOM     15  C   UNL     1      -4.553   3.202  -2.936  0.00  0.00    +0.142 C 
BRANCH  15  18
ATOM     16  C   UNL     1      -6.544   5.507  -1.713  0.00  0.00    +0.039 C 
ATOM     17  C   UNL     1      -6.028   5.477  -3.153  0.00  0.00    +0.154 C 
ATOM     18  C   UNL     1      -4.750   4.663  -3.248  0.00  0.00    -0.004 C 
ATOM     19  C   UNL     1      -3.840   5.543  -3.673  0.00  0.00    +0.063 C 
ATOM     20  N   UNL     1      -4.395   6.763  -3.844  0.00  0.00    -0.159 NA
ATOM     21  N   UNL     1      -5.603   6.820  -3.582  0.00  0.00    -0.180 NA
ATOM     22  C   UNL     1      -2.390   5.219  -3.928  0.00  0.00    +0.067 C 
ENDBRANCH  15  18
ENDBRANCH  11  15
ENDBRANCH  10  13
ENDBRANCH   1  10
BRANCH   7  23
ATOM     23  C   UNL     1      -5.024   0.692   3.010  0.00  0.00    -0.074 C 
BRANCH  23  24
ATOM     24  C   UNL     1      -4.564   0.495   4.456  0.00  0.00    -0.028 C 
ATOM     25  C   UNL     1      -3.778   1.725   4.914  0.00  0.00    +0.002 C 
ATOM     26  C   UNL     1      -3.318   1.528   6.360  0.00  0.00    +0.000 C 
ATOM     27  C   UNL     1      -2.424   0.289   6.446  0.00  0.00    +0.000 C 
ATOM     28  C   UNL     1      -3.211  -0.941   5.989  0.00  0.00    +0.000 C 
ATOM     29  C   UNL     1      -3.670  -0.744   4.543  0.00  0.00    +0.002 C 
ENDBRANCH  23  24
ENDBRANCH   7  23
TORSDOF 6
