REMARK  Name = ZINC39439910
REMARK  11 active torsions:
REMARK  status: ('A' for Active; 'I' for Inactive)
REMARK    1  A    between atoms: C_1  and  C_2
REMARK    2  A    between atoms: C_5  and  C_21
REMARK    3  A    between atoms: C_6  and  C_20
REMARK    4  A    between atoms: N_8  and  C_9
REMARK    5  A    between atoms: C_11  and  N_17
REMARK    6  A    between atoms: C_14  and  O_15
REMARK    7  A    between atoms: O_15  and  C_16
REMARK    8  A    between atoms: C_22  and  C_23
REMARK    9  A    between atoms: C_22  and  C_25
REMARK   10  A    between atoms: C_31  and  O_35
REMARK   11  A    between atoms: O_35  and  C_36
REMARK                            x       y       z     vdW  Elec       q    Type
REMARK                         _______ _______ _______ _____ _____    ______ ____
ROOT
ATOM      1  C   UNL     1       0.557   2.209  -0.990  0.00  0.00    +0.032 C 
ATOM      2  C   UNL     1       0.289   0.706  -0.889  0.00  0.00    +0.094 C 
ATOM      3  C   UNL     1       1.155  -0.035  -1.873  0.00  0.00    +0.000 C 
ATOM      4  C   UNL     1       1.953  -0.877  -1.224  0.00  0.00    -0.028 C 
ATOM      5  C   UNL     1       1.697  -0.779   0.257  0.00  0.00    +0.101 C 
ATOM      6  N   UNL     1       0.640   0.226   0.454  0.00  0.00    -0.314 N 
ATOM      7  C   UNL     1       1.234  -2.135   0.795  0.00  0.00    +0.033 C 
ENDROOT
BRANCH   6   8
ATOM      8  C   UNL     1       0.083   0.640   1.669  0.00  0.00    +0.075 A 
ATOM      9  C   UNL     1      -1.025  -0.016   2.187  0.00  0.00    +0.059 A 
ATOM     10  C   UNL     1      -1.573   0.396   3.387  0.00  0.00    +0.128 A 
ATOM     11  C   UNL     1      -1.020   1.461   4.074  0.00  0.00    +0.036 A 
ATOM     12  C   UNL     1       0.083   2.120   3.564  0.00  0.00    +0.050 A 
ATOM     13  C   UNL     1       0.642   1.710   2.365  0.00  0.00    +0.141 A 
BRANCH  10  14
ATOM     14  N   UNL     1      -2.755  -0.305   3.937  0.00  0.00    +0.056 N 
ATOM     15  O   UNL     1      -3.239  -1.236   3.337  0.00  0.00    -0.126 OA
ATOM     16  O   UNL     1      -3.235   0.054   4.987  0.00  0.00    -0.126 OA
ENDBRANCH  10  14
BRANCH  13  17
ATOM     17  O   UNL     1       1.732   2.353   1.866  0.00  0.00    -0.493 OA
ATOM     18  C   UNL     1       2.252   3.440   2.634  0.00  0.00    +0.277 C 
ENDBRANCH  13  17
ENDBRANCH   6   8
BRANCH   4  19
ATOM     19  C   UNL     1       2.932  -1.765  -1.853  0.00  0.00    +0.023 C 
ATOM     20  C   UNL     1       2.538  -2.635  -2.809  0.00  0.00    +0.072 C 
BRANCH  20  21
ATOM     21  C   UNL     1       1.074  -2.792  -3.130  0.00  0.00    +0.216 C 
ATOM     22  N   UNL     1       0.717  -4.215  -3.171  0.00  0.00    -0.359 N 
ATOM     23  C   UNL     1       0.282  -4.475  -4.370  0.00  0.00    +0.061 A 
ATOM     24  C   UNL     1      -0.212  -5.711  -4.996  0.00  0.00    +0.031 A 
ATOM     25  C   UNL     1      -0.607  -5.697  -6.283  0.00  0.00    +0.048 A 
ATOM     26  C   UNL     1      -0.563  -4.484  -7.088  0.00  0.00    +0.122 A 
ATOM     27  C   UNL     1      -0.121  -3.306  -6.583  0.00  0.00    +0.073 A 
ATOM     28  C   UNL     1       0.328  -3.236  -5.191  0.00  0.00    +0.064 A 
ATOM     29  N   UNL     1       0.790  -2.253  -4.465  0.00  0.00    -0.359 N 
ATOM     30  H   UNL     1       0.791  -4.846  -2.438  0.00  0.00    +0.162 HD
ATOM     31  H   UNL     1       0.921  -1.336  -4.755  0.00  0.00    +0.162 HD
BRANCH  26  32
ATOM     32  O   UNL     1      -0.976  -4.534  -8.379  0.00  0.00    -0.495 OA
ATOM     33  C   UNL     1      -1.432  -5.798  -8.866  0.00  0.00    +0.277 C 
ENDBRANCH  26  32
ENDBRANCH  20  21
BRANCH  20  34
ATOM     34  C   UNL     1       3.513  -3.408  -3.519  0.00  0.00    +0.099 C 
ATOM     35  N   UNL     1       4.286  -4.022  -4.081  0.00  0.00    -0.191 NA
ENDBRANCH  20  34
ENDBRANCH   4  19
TORSDOF 7
