REMARK  Name = ZINC08065503
REMARK  8 active torsions:
REMARK  status: ('A' for Active; 'I' for Inactive)
REMARK    1  A    between atoms: C_1  and  C_2
REMARK    2  A    between atoms: C_2  and  C_4
REMARK    3  A    between atoms: C_2  and  N_41
REMARK    4  A    between atoms: N_9  and  C_10
REMARK    5  A    between atoms: C_11  and  N_41
REMARK    6  A    between atoms: C_12  and  C_13
REMARK    7  A    between atoms: C_12  and  N_41
REMARK    8  A    between atoms: N_15  and  C_16
REMARK                            x       y       z     vdW  Elec       q    Type
REMARK                         _______ _______ _______ _____ _____    ______ ____
ROOT
ATOM      1  C   UNL     1      -2.688   0.305   1.680  0.00  0.00    -0.094 C 
ATOM      2  N   UNL     1      -2.513   0.921   0.348  0.00  0.00    +0.391 N 
ATOM      3  H   UNL     1      -2.310   0.183  -0.337  0.00  0.00    -0.080 HD
ENDROOT
BRANCH   2   5
ATOM      4  C   UNL     1      -1.553   2.874   1.521  0.00  0.00    -0.004 C 
ATOM      5  C   UNL     1      -1.383   1.874   0.376  0.00  0.00    +0.017 C 
BRANCH   5   6
ATOM      6  C   UNL     1      -0.102   1.103   0.569  0.00  0.00    +0.207 C 
ATOM      7  O   UNL     1      -0.132  -0.103   0.687  0.00  0.00    -0.277 OA
ATOM      8  N   UNL     1       1.077   1.754   0.604  0.00  0.00    -0.242 N 
ATOM      9  C   UNL     1       2.223   1.065   0.771  0.00  0.00    +0.306 C 
ATOM     10  O   UNL     1       2.193  -0.145   0.889  0.00  0.00    -0.252 OA
ATOM     11  N   UNL     1       3.403   1.716   0.806  0.00  0.00    -0.302 N 
ATOM     12  C   UNL     1       4.648   0.966   0.988  0.00  0.00    +0.129 C 
ATOM     13  H   UNL     1       1.102   2.719   0.510  0.00  0.00    +0.159 HD
ATOM     14  H   UNL     1       3.427   2.681   0.712  0.00  0.00    +0.150 HD
ENDBRANCH   5   6
ENDBRANCH   2   5
BRANCH   2  15
ATOM     15  C   UNL     1      -3.752   1.620  -0.052  0.00  0.00    +0.020 C 
BRANCH  15  16
ATOM     16  C   UNL     1      -4.833   0.596  -0.287  0.00  0.00    +0.201 C 
ATOM     17  O   UNL     1      -4.598  -0.582  -0.121  0.00  0.00    -0.278 OA
ATOM     18  N   UNL     1      -6.060   0.990  -0.681  0.00  0.00    -0.287 N 
ATOM     19  H   UNL     1      -6.270   1.935  -0.740  0.00  0.00    +0.155 HD
BRANCH  18  20
ATOM     20  C   UNL     1      -7.031   0.035  -1.005  0.00  0.00    +0.035 A 
ATOM     21  C   UNL     1      -6.656  -1.166  -1.592  0.00  0.00    +0.025 A 
ATOM     22  C   UNL     1      -7.615  -2.110  -1.905  0.00  0.00    +0.023 A 
ATOM     23  C   UNL     1      -8.950  -1.854  -1.647  0.00  0.00    +0.059 A 
ATOM     24  C   UNL     1      -9.328  -0.654  -1.067  0.00  0.00    +0.061 A 
ATOM     25  C   UNL     1      -8.371   0.290  -0.746  0.00  0.00    +0.044 A 
ATOM     26 CL   UNL     1     -11.003  -0.337  -0.744  0.00  0.00    -0.082 Cl
ATOM     27 CL   UNL     1     -10.153  -3.039  -2.049  0.00  0.00    -0.082 Cl
ENDBRANCH  18  20
ENDBRANCH  15  16
ENDBRANCH   2  15
TORSDOF 5
