REMARK  Name = ZINC54009843
REMARK  3 active torsions:
REMARK  status: ('A' for Active; 'I' for Inactive)
REMARK    1  A    between atoms: C_3  and  O_9
REMARK    2  A    between atoms: O_9  and  C_10
REMARK    3  A    between atoms: C_10  and  C_11
REMARK                            x       y       z     vdW  Elec       q    Type
REMARK                         _______ _______ _______ _____ _____    ______ ____
ROOT
ATOM      1  O   UNL     1       3.548   2.109  -0.021  0.00  0.00    -0.482 OA
ENDROOT
BRANCH   1   4
ATOM      2  C   UNL     1      -0.017   1.379   0.010  0.00  0.00    +0.019 A 
ATOM      3  C   UNL     1       1.170   2.088   0.002  0.00  0.00    +0.050 A 
ATOM      4  C   UNL     1       2.380   1.413  -0.013  0.00  0.00    +0.156 A 
ATOM      5  C   UNL     1       2.398   0.023  -0.021  0.00  0.00    +0.166 A 
ATOM      6  C   UNL     1       1.208  -0.682  -0.013  0.00  0.00    +0.057 A 
ATOM      7  C   UNL     1       0.002  -0.004   0.002  0.00  0.00    +0.021 A 
ATOM      8 BR   UNL     1      -1.623  -0.970   0.012  0.00  0.00    -0.050 Br
ATOM      9  F   UNL     1       3.576  -0.638  -0.036  0.00  0.00    -0.202 F 
ENDBRANCH   1   4
BRANCH   1  10
ATOM     10  C   UNL     1       3.454   3.534  -0.013  0.00  0.00    +0.297 C 
BRANCH  10  11
ATOM     11  C   UNL     1       4.838   4.130  -0.023  0.00  0.00    +0.101 C 
ATOM     12  N   UNL     1       5.897   3.339  -0.038  0.00  0.00    -0.388 N 
ATOM     13  N   UNL     1       4.993   5.442  -0.018  0.00  0.00    -0.346 N 
ATOM     14  H   UNL     1       6.788   3.722  -0.044  0.00  0.00    +0.157 HD
ATOM     15  H   UNL     1       4.216   6.022  -0.008  0.00  0.00    +0.143 HD
ATOM     16  H   UNL     1       5.884   5.825  -0.025  0.00  0.00    +0.143 HD
ATOM     17  H   UNL     1       5.784   2.376  -0.041  0.00  0.00    +0.157 HD
ENDBRANCH  10  11
ENDBRANCH   1  10
TORSDOF 3
