REMARK  Name = ZINC09517282
REMARK  10 active torsions:
REMARK  status: ('A' for Active; 'I' for Inactive)
REMARK    1  A    between atoms: C_1  and  C_2
REMARK    2  A    between atoms: C_2  and  O_3
REMARK    3  A    between atoms: O_3  and  C_4
REMARK    4  A    between atoms: C_7  and  C_12
REMARK    5  A    between atoms: C_9  and  O_10
REMARK    6  A    between atoms: O_10  and  C_11
REMARK    7  A    between atoms: C_12  and  C_14
REMARK    8  A    between atoms: C_12  and  N_24
REMARK    9  A    between atoms: C_15  and  O_23
REMARK   10  A    between atoms: C_20  and  C_22
REMARK                            x       y       z     vdW  Elec       q    Type
REMARK                         _______ _______ _______ _____ _____    ______ ____
ROOT
ATOM      1  C   UNL     1       1.142  -6.064   1.761  0.00  0.00    +0.006 C 
ENDROOT
BRANCH   1   2
ATOM      2  N   UNL     1      -0.116  -6.701   1.351  0.00  0.00    +0.388 N 
ATOM      3  C   UNL     1      -1.212  -6.197   2.187  0.00  0.00    -0.072 C 
ATOM      4  C   UNL     1      -2.539  -6.793   1.709  0.00  0.00    +0.046 C 
ATOM      5  C   UNL     1      -2.470  -8.318   1.809  0.00  0.00    +0.167 C 
ATOM      6  C   UNL     1      -1.276  -8.831   1.001  0.00  0.00    +0.046 C 
ATOM      7  C   UNL     1       0.001  -8.156   1.506  0.00  0.00    -0.072 C 
ATOM      8  O   UNL     1      -3.682  -8.888   1.289  0.00  0.00    -0.346 OA
ATOM      9  C   UNL     1      -3.938 -10.041   2.127  0.00  0.00    +0.191 C 
ATOM     10  C   UNL     1      -3.457  -9.538   3.511  0.00  0.00    +0.191 C 
ATOM     11  O   UNL     1      -2.327  -8.705   3.181  0.00  0.00    -0.346 OA
ATOM     12  H   UNL     1      -0.304  -6.481   0.385  0.00  0.00    -0.080 HD
ENDBRANCH   1   2
BRANCH   1  13
ATOM     13  C   UNL     1       2.267  -6.573   0.897  0.00  0.00    +0.045 A 
ATOM     14  C   UNL     1       3.419  -7.149   1.262  0.00  0.00    +0.225 A 
ATOM     15  N   UNL     1       4.331  -7.551   0.316  0.00  0.00    -0.173 N 
ATOM     16  C   UNL     1       4.011  -7.338  -0.990  0.00  0.00    +0.199 A 
ATOM     17  S   UNL     1       2.410  -6.573  -0.884  0.00  0.00    -0.050 S 
ATOM     18  N   UNL     1       4.975  -7.772  -1.754  0.00  0.00    -0.205 NA
ATOM     19  C   UNL     1       5.945  -8.277  -0.994  0.00  0.00    +0.150 A 
ATOM     20  N   UNL     1       5.608  -8.168   0.263  0.00  0.00    -0.147 NA
ATOM     21  C   UNL     1       7.229  -8.878  -1.504  0.00  0.00    +0.090 C 
BRANCH  14  22
ATOM     22  O   UNL     1       3.689  -7.337   2.582  0.00  0.00    -0.492 OA
ATOM     23  H   UNL     1       4.542  -7.759   2.752  0.00  0.00    +0.294 HD
ENDBRANCH  14  22
ENDBRANCH   1  13
BRANCH   1  27
ATOM     24  C   UNL     1       0.802  -1.825   1.306  0.00  0.00    +0.162 A 
ATOM     25  C   UNL     1       0.261  -2.673   0.353  0.00  0.00    +0.049 A 
ATOM     26  C   UNL     1       0.372  -4.043   0.502  0.00  0.00    +0.006 A 
ATOM     27  C   UNL     1       1.024  -4.570   1.602  0.00  0.00    -0.052 A 
ATOM     28  C   UNL     1       1.566  -3.730   2.557  0.00  0.00    +0.051 A 
ATOM     29  C   UNL     1       1.462  -2.356   2.410  0.00  0.00    +0.162 A 
BRANCH  29  30
ATOM     30  O   UNL     1       2.000  -1.528   3.345  0.00  0.00    -0.491 OA
ATOM     31  C   UNL     1       2.664  -2.143   4.451  0.00  0.00    +0.277 C 
ENDBRANCH  29  30
BRANCH  24  32
ATOM     32  O   UNL     1       0.693  -0.477   1.160  0.00  0.00    -0.489 OA
BRANCH  32  34
ATOM     33  C   UNL     1      -0.019   1.526   0.010  0.00  0.00    +0.048 C 
ATOM     34  C   UNL     1       0.002  -0.004   0.002  0.00  0.00    +0.226 C 
ENDBRANCH  32  34
ENDBRANCH  24  32
ENDBRANCH   1  27
TORSDOF 7
