REMARK  Name = ZINC47672969
REMARK  4 active torsions:
REMARK  status: ('A' for Active; 'I' for Inactive)
REMARK    1  A    between atoms: C_3  and  N_23
REMARK    2  A    between atoms: C_4  and  N_20
REMARK    3  A    between atoms: C_6  and  C_7
REMARK    4  A    between atoms: N_9  and  C_10
REMARK                            x       y       z     vdW  Elec       q    Type
REMARK                         _______ _______ _______ _____ _____    ______ ____
ROOT
ATOM      1  C   UNL     1      -1.294  -0.704   0.118  0.00  0.00    +0.244 C 
ATOM      2  O   UNL     1      -1.308  -1.890   0.389  0.00  0.00    -0.270 OA
ATOM      3  N   UNL     1      -2.450  -0.055  -0.123  0.00  0.00    -0.308 N 
ATOM      4  H   UNL     1      -2.439   0.891  -0.339  0.00  0.00    +0.149 HD
ENDROOT
BRANCH   3   5
ATOM      5  C   UNL     1      -3.723  -0.777  -0.060  0.00  0.00    +0.074 C 
ATOM      6  C   UNL     1      -3.992  -1.456  -1.404  0.00  0.00    +0.027 C 
ATOM      7  C   UNL     1      -5.320  -2.213  -1.337  0.00  0.00    +0.067 C 
ATOM      8  C   UNL     1      -6.450  -1.232  -1.020  0.00  0.00    +0.170 C 
ATOM      9  C   UNL     1      -6.182  -0.548   0.322  0.00  0.00    +0.067 C 
ATOM     10  C   UNL     1      -4.853   0.206   0.252  0.00  0.00    +0.027 C 
ATOM     11  O   UNL     1      -6.524  -0.239  -2.055  0.00  0.00    -0.346 OA
ATOM     12  C   UNL     1      -7.540  -0.727  -2.964  0.00  0.00    +0.191 C 
ATOM     13  C   UNL     1      -8.548  -1.381  -1.986  0.00  0.00    +0.191 C 
ATOM     14  O   UNL     1      -7.697  -1.935  -0.962  0.00  0.00    -0.346 OA
ENDBRANCH   3   5
BRANCH   1  20
ATOM     15  C   UNL     1       0.005   1.386  -0.257  0.00  0.00    +0.015 A 
ATOM     16  C   UNL     1       1.202   2.062  -0.316  0.00  0.00    +0.026 A 
ATOM     17  C   UNL     1       2.396   1.389  -0.066  0.00  0.00    +0.055 A 
ATOM     18  C   UNL     1       2.382   0.032   0.243  0.00  0.00    +0.147 A 
ATOM     19  C   UNL     1       1.188  -0.649   0.303  0.00  0.00    +0.047 A 
ATOM     20  C   UNL     1      -0.012   0.023   0.054  0.00  0.00    +0.039 A 
BRANCH  18  21
ATOM     21  N   UNL     1       3.653  -0.679   0.507  0.00  0.00    +0.058 N 
ATOM     22  O   UNL     1       3.800  -1.816   0.125  0.00  0.00    -0.126 OA
ATOM     23  O   UNL     1       4.544  -0.123   1.106  0.00  0.00    -0.126 OA
ENDBRANCH  18  21
BRANCH  17  24
ATOM     24  N   UNL     1       3.604   2.075  -0.127  0.00  0.00    -0.356 N 
ATOM     25  H   UNL     1       3.610   3.039  -0.230  0.00  0.00    +0.142 HD
ATOM     26  H   UNL     1       4.441   1.589  -0.065  0.00  0.00    +0.142 HD
ENDBRANCH  17  24
ENDBRANCH   1  20
TORSDOF 4
