REMARK  Name = ZINC32522426
REMARK  10 active torsions:
REMARK  status: ('A' for Active; 'I' for Inactive)
REMARK    1  A    between atoms: C_1  and  C_2
REMARK    2  A    between atoms: C_2  and  O_3
REMARK    3  A    between atoms: O_3  and  C_4
REMARK    4  A    between atoms: C_4  and  C_6
REMARK    5  A    between atoms: C_7  and  C_23
REMARK    6  A    between atoms: C_10  and  N_11
REMARK    7  A    between atoms: C_12  and  C_14
REMARK    8  A    between atoms: C_14  and  S_15
REMARK    9  A    between atoms: S_15  and  C_16
REMARK   10  A    between atoms: C_26  and  C_29
REMARK                            x       y       z     vdW  Elec       q    Type
REMARK                         _______ _______ _______ _____ _____    ______ ____
ROOT
ATOM      1  C   UNL     1      -1.248  -2.095   0.003  0.00  0.00    +0.095 A 
ATOM      2  C   UNL     1      -1.290  -2.848  -1.236  0.00  0.00    +0.005 A 
ATOM      3  C   UNL     1      -1.340  -4.200  -1.127  0.00  0.00    +0.056 A 
ATOM      4  S   UNL     1      -1.333  -4.469   0.633  0.00  0.00    -0.080 S 
ATOM      5  C   UNL     1      -1.259  -2.829   1.181  0.00  0.00    +0.086 A 
ENDROOT
BRANCH   2   6
ATOM      6  C   UNL     1      -1.277  -2.175  -2.557  0.00  0.00    -0.017 A 
ATOM      7  C   UNL     1      -2.168  -1.136  -2.821  0.00  0.00    +0.009 A 
ATOM      8  C   UNL     1      -2.150  -0.510  -4.051  0.00  0.00    +0.004 A 
ATOM      9  C   UNL     1      -1.255  -0.918  -5.024  0.00  0.00    -0.050 A 
ATOM     10  C   UNL     1      -0.372  -1.952  -4.769  0.00  0.00    +0.004 A 
ATOM     11  C   UNL     1      -0.378  -2.582  -3.542  0.00  0.00    +0.009 A 
ATOM     12  C   UNL     1      -1.244  -0.235  -6.367  0.00  0.00    +0.044 C 
ENDBRANCH   2   6
BRANCH   5  13
ATOM     13  N   UNL     1      -1.222  -2.360   2.485  0.00  0.00    -0.279 N 
ATOM     14  C   UNL     1      -1.241  -3.230   3.514  0.00  0.00    +0.228 C 
ATOM     15  O   UNL     1      -1.290  -4.423   3.300  0.00  0.00    -0.275 OA
ATOM     16  H   UNL     1      -1.178  -1.279   2.679  0.00  0.00    +0.155 HD
BRANCH  14  17
ATOM     17  C   UNL     1      -1.200  -2.720   4.932  0.00  0.00    +0.173 C 
BRANCH  17  18
ATOM     18  S   UNL     1      -1.238  -4.121   6.078  0.00  0.00    -0.075 S 
BRANCH  18  19
ATOM     19  C   UNL     1      -1.182  -3.260   7.614  0.00  0.00    +0.213 A 
ATOM     20  N   UNL     1      -1.198  -3.961   8.784  0.00  0.00    -0.180 NA
ATOM     21  C   UNL     1      -1.149  -3.275   9.949  0.00  0.00    +0.292 A 
ATOM     22  O   UNL     1      -1.156  -3.857  11.020  0.00  0.00    -0.264 OA
ATOM     23  C   UNL     1      -1.096  -1.865   9.890  0.00  0.00    +0.207 A 
ATOM     24  N   UNL     1      -1.090  -1.268   8.722  0.00  0.00    -0.150 NA
ATOM     25  N   UNL     1      -1.131  -1.939   7.626  0.00  0.00    -0.122 NA
ENDBRANCH  18  19
ENDBRANCH  17  18
ENDBRANCH  14  17
ENDBRANCH   5  13
BRANCH   1  26
ATOM     26  C   UNL     1      -1.191  -0.633   0.010  0.00  0.00    +0.342 C 
ATOM     27  O   UNL     1      -2.220   0.016   0.023  0.00  0.00    -0.245 OA
BRANCH  26  28
ATOM     28  O   UNL     1       0.002  -0.004   0.002  0.00  0.00    -0.461 OA
BRANCH  28  30
ATOM     29  C   UNL     1       1.418   1.977  -0.001  0.00  0.00    +0.048 C 
ATOM     30  C   UNL     1      -0.018   1.448   0.010  0.00  0.00    +0.229 C 
ENDBRANCH  28  30
ENDBRANCH  26  28
ENDBRANCH   1  26
TORSDOF 8
