REMARK  Name = ZINC09347034
REMARK  6 active torsions:
REMARK  status: ('A' for Active; 'I' for Inactive)
REMARK    1  A    between atoms: C_1  and  C_2
REMARK    2  A    between atoms: C_2  and  C_4
REMARK    3  A    between atoms: C_2  and  S_20
REMARK    4  A    between atoms: C_10  and  C_12
REMARK    5  A    between atoms: S_20  and  C_21
REMARK    6  A    between atoms: N_25  and  C_26
REMARK                            x       y       z     vdW  Elec       q    Type
REMARK                         _______ _______ _______ _____ _____    ______ ____
ROOT
ATOM      1  C   UNL     1       5.031   3.301  -0.150  0.00  0.00    +0.232 C 
ATOM      2  O   UNL     1       5.556   2.241   0.120  0.00  0.00    -0.274 OA
ATOM      3  N   UNL     1       5.782   4.337  -0.573  0.00  0.00    -0.262 N 
ATOM      4  C   UNL     1       7.158   4.191  -0.700  0.00  0.00    +0.188 A 
ATOM      5  N   UNL     1       7.929   3.138  -0.463  0.00  0.00    -0.125 NA
ATOM      6  N   UNL     1       9.178   3.175  -0.633  0.00  0.00    -0.140 NA
ATOM      7  C   UNL     1       9.796   4.270  -1.058  0.00  0.00    +0.135 A 
ATOM      8  S   UNL     1       8.394   5.369  -1.238  0.00  0.00    -0.030 S 
ATOM      9  H   UNL     1       5.362   5.184  -0.789  0.00  0.00    +0.157 HD
ENDROOT
BRANCH   7  10
ATOM     10  C   UNL     1      11.232   4.511  -1.315  0.00  0.00    +0.027 A 
ATOM     11  C   UNL     1      11.662   5.758  -1.772  0.00  0.00    +0.013 A 
ATOM     12  C   UNL     1      13.003   5.979  -2.005  0.00  0.00    +0.021 A 
ATOM     13  C   UNL     1      13.922   4.964  -1.798  0.00  0.00    +0.042 A 
ATOM     14  C   UNL     1      13.502   3.723  -1.351  0.00  0.00    +0.040 A 
ATOM     15  C   UNL     1      12.162   3.491  -1.109  0.00  0.00    +0.052 A 
ATOM     16 CL   UNL     1      11.637   1.934  -0.548  0.00  0.00    -0.083 Cl
ATOM     17 CL   UNL     1      15.607   5.248  -2.102  0.00  0.00    -0.083 Cl
ENDBRANCH   7  10
BRANCH   1  19
ATOM     18  C   UNL     1       3.220   4.176   1.301  0.00  0.00    +0.029 C 
ATOM     19  C   UNL     1       3.538   3.459  -0.012  0.00  0.00    +0.137 C 
BRANCH  19  20
ATOM     20  S   UNL     1       2.756   1.826  -0.013  0.00  0.00    -0.074 S 
BRANCH  20  21
ATOM     21  C   UNL     1       1.059   2.300   0.004  0.00  0.00    +0.192 A 
ATOM     22  N   UNL     1       0.591   3.526   0.015  0.00  0.00    -0.123 NA
ATOM     23  N   UNL     1      -0.694   3.503   0.026  0.00  0.00    -0.137 NA
ATOM     24  C   UNL     1      -1.119   2.272   0.019  0.00  0.00    +0.225 A 
ATOM     25  N   UNL     1      -0.018   1.461   0.010  0.00  0.00    -0.312 N 
ATOM     26  C   UNL     1       0.002  -0.004   0.002  0.00  0.00    +0.152 C 
ENDBRANCH  20  21
ENDBRANCH  19  20
ENDBRANCH   1  19
TORSDOF 4
