REMARK  Name = ZINC40462723
REMARK  11 active torsions:
REMARK  status: ('A' for Active; 'I' for Inactive)
REMARK    1  A    between atoms: C_1  and  C_2
REMARK    2  A    between atoms: C_2  and  O_3
REMARK    3  A    between atoms: O_3  and  C_4
REMARK    4  A    between atoms: C_4  and  C_6
REMARK    5  A    between atoms: C_9  and  N_13
REMARK    6  A    between atoms: C_14  and  C_16
REMARK    7  A    between atoms: C_16  and  C_18
REMARK    8  A    between atoms: C_16  and  N_22
REMARK    9  A    between atoms: C_18  and  C_19
REMARK   10  A    between atoms: C_19  and  S_20
REMARK   11  A    between atoms: S_20  and  C_21
REMARK                            x       y       z     vdW  Elec       q    Type
REMARK                         _______ _______ _______ _____ _____    ______ ____
ROOT
ATOM      1  N   UNL     1      -6.680  -4.062   0.045  0.00  0.00    -0.286 N 
ATOM      2  C   UNL     1      -7.757  -3.259   0.156  0.00  0.00    +0.203 C 
ATOM      3  O   UNL     1      -7.618  -2.054   0.156  0.00  0.00    -0.277 OA
ATOM      4  H   UNL     1      -6.796  -5.023  -0.022  0.00  0.00    +0.155 HD
ENDROOT
BRANCH   1   8
ATOM      5  C   UNL     1      -2.853  -2.416  -0.013  0.00  0.00    +0.060 A 
ATOM      6  C   UNL     1      -3.920  -1.732  -0.605  0.00  0.00    +0.017 A 
ATOM      7  C   UNL     1      -5.183  -2.279  -0.584  0.00  0.00    +0.025 A 
ATOM      8  C   UNL     1      -5.399  -3.511   0.025  0.00  0.00    +0.047 A 
ATOM      9  C   UNL     1      -4.340  -4.195   0.616  0.00  0.00    +0.040 A 
ATOM     10  C   UNL     1      -3.073  -3.657   0.593  0.00  0.00    +0.032 A 
ATOM     11 BR   UNL     1      -4.641  -5.869   1.442  0.00  0.00    -0.048 Br
BRANCH   5  12
ATOM     12  C   UNL     1      -1.499  -1.833  -0.034  0.00  0.00    +0.339 C 
ATOM     13  O   UNL     1      -0.572  -2.431   0.477  0.00  0.00    -0.245 OA
BRANCH  12  14
ATOM     14  O   UNL     1      -1.289  -0.637  -0.618  0.00  0.00    -0.461 OA
BRANCH  14  16
ATOM     15  C   UNL     1       0.089   1.224  -1.306  0.00  0.00    +0.048 C 
ATOM     16  C   UNL     1       0.048  -0.133  -0.601  0.00  0.00    +0.229 C 
ENDBRANCH  14  16
ENDBRANCH  12  14
ENDBRANCH   5  12
ENDBRANCH   1   8
BRANCH   2  17
ATOM     17  C   UNL     1      -9.134  -3.859   0.280  0.00  0.00    +0.014 C 
BRANCH  17  18
ATOM     18  N   UNL     1     -10.051  -2.865   0.854  0.00  0.00    +0.386 N 
ATOM     19  H   UNL     1     -10.973  -3.266   0.937  0.00  0.00    -0.089 HD
ATOM     20  H   UNL     1      -9.720  -2.590   1.767  0.00  0.00    -0.089 HD
ATOM     21  H   UNL     1     -10.089  -2.056   0.252  0.00  0.00    -0.089 HD
ENDBRANCH  17  18
BRANCH  17  22
ATOM     22  C   UNL     1      -9.636  -4.276  -1.104  0.00  0.00    +0.003 C 
BRANCH  22  23
ATOM     23  C   UNL     1     -10.978  -4.996  -0.965  0.00  0.00    +0.068 C 
BRANCH  23  24
ATOM     24  S   UNL     1     -11.572  -5.490  -2.606  0.00  0.00    -0.164 S 
ATOM     25  C   UNL     1     -13.150  -6.320  -2.269  0.00  0.00    +0.084 C 
ENDBRANCH  23  24
ENDBRANCH  22  23
ENDBRANCH  17  22
ENDBRANCH   2  17
TORSDOF 9
