REMARK  Name = ZINC64303404
REMARK  4 active torsions:
REMARK  status: ('A' for Active; 'I' for Inactive)
REMARK    1  A    between atoms: C_1  and  C_2
REMARK    2  A    between atoms: C_6  and  C_8
REMARK    3  A    between atoms: C_15  and  C_17
REMARK    4  A    between atoms: N_22  and  C_24
REMARK                            x       y       z     vdW  Elec       q    Type
REMARK                         _______ _______ _______ _____ _____    ______ ____
ROOT
ATOM      1  C   UNL     1       3.891  -1.169   1.052  0.00  0.00    +0.164 A 
ATOM      2  N   UNL     1       4.189  -1.276   2.368  0.00  0.00    -0.257 N 
ATOM      3  H   UNL     1       3.571  -1.197   3.112  0.00  0.00    +0.191 HD
ATOM      4  N   UNL     1       5.569  -1.523   2.442  0.00  0.00    -0.136 NA
ATOM      5  C   UNL     1       6.020  -1.552   1.209  0.00  0.00    +0.241 A 
ATOM      6  N   UNL     1       5.005  -1.344   0.369  0.00  0.00    -0.193 NA
ATOM      7  N   UNL     1       7.349  -1.771   0.837  0.00  0.00    -0.248 N 
ATOM      8  C   UNL     1       8.288  -1.976   1.782  0.00  0.00    +0.270 C 
ATOM      9  O   UNL     1       7.979  -1.970   2.957  0.00  0.00    -0.268 OA
ATOM     10  H   UNL     1       7.595  -1.776  -0.101  0.00  0.00    +0.158 HD
ENDROOT
BRANCH   8  11
ATOM     11  C   UNL     1       9.694  -2.208   1.388  0.00  0.00    +0.146 A 
ATOM     12  C   UNL     1      10.678  -2.428   2.382  0.00  0.00    +0.040 A 
ATOM     13  C   UNL     1      11.964  -2.638   1.981  0.00  0.00    +0.074 A 
ATOM     14  C   UNL     1      12.236  -2.623   0.595  0.00  0.00    +0.267 A 
ATOM     15  O   UNL     1      13.372  -2.807   0.190  0.00  0.00    -0.266 OA
ATOM     16  N   UNL     1      11.233  -2.405  -0.276  0.00  0.00    -0.232 N 
ATOM     17  N   UNL     1      10.026  -2.214   0.116  0.00  0.00    -0.164 NA
ATOM     18  C   UNL     1      11.527  -2.391  -1.712  0.00  0.00    +0.176 C 
ENDBRANCH   8  11
BRANCH   1  23
ATOM     19  C   UNL     1      -0.019   1.526   0.010  0.00  0.00    +0.019 C 
ATOM     20  C   UNL     1       0.002  -0.004   0.002  0.00  0.00    +0.052 C 
ATOM     21  C   UNL     1       0.814  -0.554  -1.199  0.00  0.00    +0.042 C 
ATOM     22  C   UNL     1       2.235  -0.807  -0.810  0.00  0.00    -0.008 C 
ATOM     23  C   UNL     1       2.553  -0.911   0.482  0.00  0.00    +0.048 C 
ATOM     24  S   UNL     1       1.028  -0.672   1.378  0.00  0.00    -0.118 S 
ENDBRANCH   1  23
TORSDOF 2
