REMARK  Name = ZINC13806211
REMARK  8 active torsions:
REMARK  status: ('A' for Active; 'I' for Inactive)
REMARK    1  A    between atoms: C_1  and  C_2
REMARK    2  A    between atoms: C_5  and  O_8
REMARK    3  A    between atoms: O_8  and  C_9
REMARK    4  A    between atoms: C_9  and  C_10
REMARK    5  A    between atoms: C_10  and  C_12
REMARK    6  A    between atoms: C_10  and  O_33
REMARK    7  A    between atoms: C_12  and  N_13
REMARK    8  A    between atoms: N_21  and  C_32
REMARK                            x       y       z     vdW  Elec       q    Type
REMARK                         _______ _______ _______ _____ _____    ______ ____
ROOT
ATOM      1  N   UNL     1      -0.002   0.077   0.308  0.00  0.00    -0.304 N 
ATOM      2  C   UNL     1       1.363  -0.114   0.138  0.00  0.00    +0.153 A 
ATOM      3  C   UNL     1       2.230  -1.210   0.293  0.00  0.00    +0.280 A 
ATOM      4  O   UNL     1       1.798  -2.291   0.654  0.00  0.00    -0.265 OA
ATOM      5  N   UNL     1       3.545  -1.053   0.035  0.00  0.00    -0.273 N 
ATOM      6  H   UNL     1       4.164  -1.831   0.143  0.00  0.00    +0.173 HD
ATOM      7  C   UNL     1       4.036   0.133  -0.364  0.00  0.00    +0.331 A 
ATOM      8  O   UNL     1       5.227   0.238  -0.586  0.00  0.00    -0.246 OA
ATOM      9  N   UNL     1       3.241   1.208  -0.524  0.00  0.00    -0.280 N 
ATOM     10  C   UNL     1       1.881   1.109  -0.276  0.00  0.00    +0.170 A 
ATOM     11  N   UNL     1       0.867   1.973  -0.344  0.00  0.00    -0.196 NA
ATOM     12  C   UNL     1      -0.256   1.376  -0.000  0.00  0.00    +0.201 A 
ATOM     13  N   UNL     1      -1.495   1.974   0.035  0.00  0.00    -0.301 N 
ATOM     14  C   UNL     1      -2.349   1.489  -1.073  0.00  0.00    +0.108 C 
ATOM     15  C   UNL     1      -3.603   2.302  -1.242  0.00  0.00    +0.019 C 
ATOM     16  C   UNL     1      -3.339   3.398  -2.296  0.00  0.00    +0.002 C 
ATOM     17  C   UNL     1      -2.588   4.521  -1.746  0.00  0.00    +0.002 C 
ATOM     18  C   UNL     1      -1.199   4.096  -1.227  0.00  0.00    +0.019 C 
ATOM     19  C   UNL     1      -1.372   3.446   0.119  0.00  0.00    +0.108 C 
ATOM     20  C   UNL     1       3.814   2.483  -0.962  0.00  0.00    +0.155 C 
ENDROOT
BRANCH   1  21
ATOM     21  C   UNL     1      -0.978  -0.927   0.738  0.00  0.00    +0.160 C 
BRANCH  21  22
ATOM     22  C   UNL     1      -1.152  -0.853   2.256  0.00  0.00    +0.172 C 
BRANCH  22  23
ATOM     23  O   UNL     1       0.071  -1.225   2.894  0.00  0.00    -0.387 OA
ATOM     24  H   UNL     1       0.325  -2.147   2.750  0.00  0.00    +0.210 HD
ENDBRANCH  22  23
BRANCH  22  25
ATOM     25  C   UNL     1      -2.265  -1.809   2.689  0.00  0.00    +0.262 C 
BRANCH  25  26
ATOM     26  O   UNL     1      -2.507  -1.656   4.089  0.00  0.00    -0.489 OA
BRANCH  26  31
ATOM     27  C   UNL     1      -6.512  -4.900   6.362  0.00  0.00    +0.044 C 
ATOM     28  C   UNL     1      -5.440  -4.032   5.753  0.00  0.00    -0.050 A 
ATOM     29  C   UNL     1      -4.744  -3.138   6.546  0.00  0.00    +0.007 A 
ATOM     30  C   UNL     1      -3.761  -2.341   5.991  0.00  0.00    +0.046 A 
ATOM     31  C   UNL     1      -3.474  -2.438   4.637  0.00  0.00    +0.121 A 
ATOM     32  C   UNL     1      -4.178  -3.332   3.843  0.00  0.00    +0.046 A 
ATOM     33  C   UNL     1      -5.155  -4.131   4.404  0.00  0.00    +0.007 A 
ENDBRANCH  26  31
ENDBRANCH  25  26
ENDBRANCH  22  25
ENDBRANCH  21  22
ENDBRANCH   1  21
TORSDOF 6
