REMARK  Name = ZINC20227619
REMARK  3 active torsions:
REMARK  status: ('A' for Active; 'I' for Inactive)
REMARK    1  A    between atoms: C_4  and  N_11
REMARK    2  A    between atoms: C_5  and  C_7
REMARK    3  A    between atoms: C_17  and  C_18
REMARK                            x       y       z     vdW  Elec       q    Type
REMARK                         _______ _______ _______ _____ _____    ______ ____
ROOT
ATOM      1  N   UNL     1       3.556   2.098  -0.103  0.00  0.00    -0.225 NA
ATOM      2  C   UNL     1       3.533   3.406  -0.237  0.00  0.00    +0.166 C 
ATOM      3  N   UNL     1       4.544   4.242  -0.656  0.00  0.00    -0.260 N 
ATOM      4  C   UNL     1       4.347   5.547  -0.739  0.00  0.00    +0.256 C 
ATOM      5  O   UNL     1       5.228   6.301  -1.113  0.00  0.00    -0.269 OA
ATOM      6  C   UNL     1       3.020   6.050  -0.354  0.00  0.00    +0.078 C 
ATOM      7  C   UNL     1       2.551   7.330  -0.337  0.00  0.00    +0.035 C 
ATOM      8  S   UNL     1       2.186   4.532   0.087  0.00  0.00    -0.049 S 
ATOM      9  H   UNL     1       5.526   3.826  -0.926  0.00  0.00    +0.157 HD
ENDROOT
BRANCH   1  13
ATOM     10  C   UNL     1       0.081   0.052   0.824  0.00  0.00    +0.001 A 
ATOM     11  C   UNL     1       0.095   0.941  -0.237  0.00  0.00    +0.002 A 
ATOM     12  C   UNL     1       1.249   1.627  -0.551  0.00  0.00    +0.028 A 
ATOM     13  C   UNL     1       2.407   1.421   0.203  0.00  0.00    +0.078 A 
ATOM     14  C   UNL     1       2.386   0.523   1.272  0.00  0.00    +0.080 A 
ATOM     15  C   UNL     1       1.224  -0.156   1.576  0.00  0.00    +0.014 A 
BRANCH  14  16
ATOM     16  C   UNL     1       3.630   0.294   2.092  0.00  0.00    +0.419 C 
ATOM     17  F   UNL     1       3.361  -0.642   3.096  0.00  0.00    -0.166 F 
ATOM     18  F   UNL     1       4.650  -0.188   1.266  0.00  0.00    -0.166 F 
ATOM     19  F   UNL     1       4.032   1.501   2.675  0.00  0.00    -0.166 F 
ENDBRANCH  14  16
ENDBRANCH   1  13
BRANCH   7  20
ATOM     20  C   UNL     1       3.436   8.410  -0.567  0.00  0.00    +0.013 A 
ATOM     21  C   UNL     1       3.221   9.582  -1.285  0.00  0.00    +0.015 A 
ATOM     22  C   UNL     1       4.264  10.472  -1.349  0.00  0.00    +0.008 A 
ATOM     23  C   UNL     1       5.432  10.174  -0.722  0.00  0.00    +0.046 A 
ATOM     24  S   UNL     1       5.115   8.628  -0.005  0.00  0.00    -0.097 S 
ENDBRANCH   7  20
TORSDOF 3
