REMARK  Name = ZINC13221705
REMARK  8 active torsions:
REMARK  status: ('A' for Active; 'I' for Inactive)
REMARK    1  A    between atoms: C_1  and  C_2
REMARK    2  A    between atoms: C_3  and  C_25
REMARK    3  A    between atoms: C_4  and  C_24
REMARK    4  A    between atoms: C_9  and  S_11
REMARK    5  A    between atoms: S_11  and  C_12
REMARK    6  A    between atoms: C_12  and  C_13
REMARK    7  A    between atoms: N_15  and  C_16
REMARK    8  A    between atoms: C_25  and  C_26
REMARK                            x       y       z     vdW  Elec       q    Type
REMARK                         _______ _______ _______ _____ _____    ______ ____
ROOT
ATOM      1  C   UNL     1      -2.503   1.054  -2.492  0.00  0.00    +0.066 C 
ATOM      2  C   UNL     1      -3.049   0.542  -1.184  0.00  0.00    +0.047 A 
ATOM      3  C   UNL     1      -2.510   1.000   0.023  0.00  0.00    +0.006 A 
ATOM      4  C   UNL     1      -3.016   0.534   1.195  0.00  0.00    +0.049 A 
ATOM      5  N   UNL     1      -4.029  -0.370   1.163  0.00  0.00    -0.200 N 
ATOM      6  C   UNL     1      -4.530  -0.802  -0.034  0.00  0.00    +0.254 A 
ATOM      7  N   UNL     1      -4.026  -0.337  -1.183  0.00  0.00    -0.216 NA
ATOM      8  N   UNL     1      -5.499  -1.671   0.233  0.00  0.00    -0.183 NA
ATOM      9  C   UNL     1      -5.632  -1.806   1.550  0.00  0.00    +0.211 A 
ATOM     10  N   UNL     1      -4.757  -1.032   2.160  0.00  0.00    -0.137 NA
ATOM     11  C   UNL     1      -2.461   1.014   2.511  0.00  0.00    +0.066 C 
ENDROOT
BRANCH   9  12
ATOM     12  S   UNL     1      -6.796  -2.857   2.354  0.00  0.00    -0.075 S 
BRANCH  12  13
ATOM     13  C   UNL     1      -7.694  -3.642   0.987  0.00  0.00    +0.173 C 
BRANCH  13  14
ATOM     14  C   UNL     1      -8.735  -4.579   1.543  0.00  0.00    +0.228 C 
ATOM     15  O   UNL     1      -8.859  -4.705   2.743  0.00  0.00    -0.275 OA
ATOM     16  N   UNL     1      -9.529  -5.277   0.707  0.00  0.00    -0.284 N 
ATOM     17  H   UNL     1      -9.475  -5.129  -0.250  0.00  0.00    +0.155 HD
BRANCH  16  18
ATOM     18  C   UNL     1     -10.431  -6.217   1.220  0.00  0.00    +0.052 A 
ATOM     19  C   UNL     1     -11.054  -5.990   2.440  0.00  0.00    +0.026 A 
ATOM     20  C   UNL     1     -11.944  -6.918   2.944  0.00  0.00    +0.022 A 
ATOM     21  C   UNL     1     -12.216  -8.074   2.234  0.00  0.00    +0.042 A 
ATOM     22  C   UNL     1     -11.598  -8.304   1.018  0.00  0.00    +0.041 A 
ATOM     23  C   UNL     1     -10.710  -7.376   0.507  0.00  0.00    +0.064 A 
ATOM     24 CL   UNL     1      -9.938  -7.662  -1.022  0.00  0.00    -0.082 Cl
ATOM     25 CL   UNL     1     -13.336  -9.238   2.870  0.00  0.00    -0.083 Cl
ENDBRANCH  16  18
ENDBRANCH  13  14
ENDBRANCH  12  13
ENDBRANCH   9  12
BRANCH   3  26
ATOM     26  C   UNL     1      -1.386   2.004   0.024  0.00  0.00    +0.163 C 
BRANCH  26  27
ATOM     27  C   UNL     1      -0.065   1.278   0.011  0.00  0.00    +0.360 C 
ATOM     28  O   UNL     1      -0.039   0.070   0.002  0.00  0.00    -0.246 OA
ATOM     29  O   UNL     1       1.083   1.974   0.004  0.00  0.00    -0.246 OA
ENDBRANCH  26  27
ENDBRANCH   3  26
TORSDOF 6
