REMARK  Name = ZINC63140563
REMARK  5 active torsions:
REMARK  status: ('A' for Active; 'I' for Inactive)
REMARK    1  A    between atoms: C_1  and  O_2
REMARK    2  A    between atoms: O_2  and  C_3
REMARK    3  A    between atoms: C_6  and  C_9
REMARK    4  A    between atoms: N_28  and  C_31
REMARK    5  A    between atoms: C_31  and  C_32
REMARK                            x       y       z     vdW  Elec       q    Type
REMARK                         _______ _______ _______ _____ _____    ______ ____
ROOT
ATOM      1  C   UNL     1      -4.981  -2.629   0.035  0.00  0.00    +0.133 C 
ATOM      2  C   UNL     1      -5.247  -3.221   1.422  0.00  0.00    +0.131 C 
ATOM      3  C   UNL     1      -4.271  -4.377   1.600  0.00  0.00    -0.034 C 
ATOM      4  C   UNL     1      -3.595  -4.129   2.716  0.00  0.00    -0.001 A 
ATOM      5  C   UNL     1      -2.578  -4.910   3.438  0.00  0.00    +0.010 A 
ATOM      6  C   UNL     1      -2.074  -4.340   4.565  0.00  0.00    +0.001 A 
ATOM      7  C   UNL     1      -2.476  -3.087   5.039  0.00  0.00    +0.002 A 
ATOM      8  C   UNL     1      -3.409  -2.304   4.441  0.00  0.00    +0.026 A 
ATOM      9  C   UNL     1      -4.014  -2.797   3.250  0.00  0.00    +0.043 A 
ATOM     10  N   UNL     1      -4.953  -2.264   2.490  0.00  0.00    -0.375 N 
ATOM     11  C   UNL     1      -4.140  -5.487   0.586  0.00  0.00    +0.065 C 
ATOM     12  C   UNL     1      -3.977  -4.810  -0.787  0.00  0.00    +0.167 C 
ATOM     13  N   UNL     1      -4.966  -3.746  -0.936  0.00  0.00    -0.279 N 
ATOM     14  C   UNL     1      -5.874  -3.733  -1.919  0.00  0.00    +0.234 C 
ATOM     15  O   UNL     1      -6.666  -2.815  -1.944  0.00  0.00    -0.274 OA
ATOM     16  C   UNL     1      -5.981  -4.769  -2.989  0.00  0.00    +0.204 C 
ATOM     17  N   UNL     1      -4.973  -5.807  -2.852  0.00  0.00    -0.287 N 
ATOM     18  C   UNL     1      -4.071  -5.836  -1.868  0.00  0.00    +0.237 C 
ATOM     19  O   UNL     1      -3.276  -6.752  -1.852  0.00  0.00    -0.274 OA
ATOM     20  H   UNL     1      -5.373  -1.397   2.607  0.00  0.00    +0.160 HD
ENDROOT
BRANCH   1  24
ATOM     21  C   UNL     1      -1.200  -0.637   0.010  0.00  0.00    +0.120 A 
ATOM     22  C   UNL     1      -2.357   0.064  -0.296  0.00  0.00    +0.046 A 
ATOM     23  C   UNL     1      -3.578  -0.582  -0.287  0.00  0.00    +0.009 A 
ATOM     24  C   UNL     1      -3.648  -1.927   0.026  0.00  0.00    -0.025 A 
ATOM     25  C   UNL     1      -2.496  -2.628   0.332  0.00  0.00    +0.009 A 
ATOM     26  C   UNL     1      -1.272  -1.988   0.319  0.00  0.00    +0.046 A 
BRANCH  21  28
ATOM     27  C   UNL     1       0.000   1.387  -0.325  0.00  0.00    +0.277 C 
ATOM     28  O   UNL     1       0.002  -0.004   0.002  0.00  0.00    -0.495 OA
ENDBRANCH  21  28
ENDBRANCH   1  24
BRANCH  17  29
ATOM     29  C   UNL     1      -4.946  -6.882  -3.847  0.00  0.00    +0.143 C 
BRANCH  29  30
ATOM     30  C   UNL     1      -4.044  -6.488  -4.988  0.00  0.00    -0.029 A 
ATOM     31  C   UNL     1      -4.560  -5.803  -6.072  0.00  0.00    +0.007 A 
ATOM     32  C   UNL     1      -3.734  -5.442  -7.120  0.00  0.00    +0.022 A 
ATOM     33  C   UNL     1      -2.389  -5.765  -7.083  0.00  0.00    +0.059 A 
ATOM     34  C   UNL     1      -1.872  -6.450  -5.997  0.00  0.00    +0.060 A 
ATOM     35  C   UNL     1      -2.700  -6.806  -4.947  0.00  0.00    +0.026 A 
ATOM     36 CL   UNL     1      -0.185  -6.856  -5.949  0.00  0.00    -0.082 Cl
ATOM     37 CL   UNL     1      -1.351  -5.312  -8.398  0.00  0.00    -0.082 Cl
ENDBRANCH  29  30
ENDBRANCH  17  29
TORSDOF 4
