REMARK  Name = ZINC39530974
REMARK  10 active torsions:
REMARK  status: ('A' for Active; 'I' for Inactive)
REMARK    1  A    between atoms: C_4  and  C_7
REMARK    2  A    between atoms: C_7  and  C_8
REMARK    3  A    between atoms: C_11  and  C_14
REMARK    4  A    between atoms: C_14  and  C_16
REMARK    5  A    between atoms: C_14  and  N_25
REMARK    6  A    between atoms: C_16  and  N_17
REMARK    7  A    between atoms: N_17  and  C_18
REMARK    8  A    between atoms: C_18  and  C_19
REMARK    9  A    between atoms: C_29  and  C_32
REMARK   10  A    between atoms: C_32  and  C_33
REMARK                            x       y       z     vdW  Elec       q    Type
REMARK                         _______ _______ _______ _____ _____    ______ ____
ROOT
ATOM      1  C   UNL     1       5.463  -1.673   5.347  0.00  0.00    -0.024 C 
ENDROOT
BRANCH   1   2
ATOM      2  N   UNL     1       5.711  -3.120   5.381  0.00  0.00    +0.383 N 
ATOM      3  C   UNL     1       5.996  -3.536   6.761  0.00  0.00    -0.097 C 
ATOM      4  C   UNL     1       6.255  -5.044   6.796  0.00  0.00    -0.101 C 
ATOM      5  N   UNL     1       7.406  -5.363   5.941  0.00  0.00    +0.379 N 
ATOM      6  C   UNL     1       7.122  -4.947   4.561  0.00  0.00    -0.085 C 
ATOM      7  C   UNL     1       6.863  -3.439   4.526  0.00  0.00    -0.094 C 
ATOM      8  H   UNL     1       8.221  -4.873   6.279  0.00  0.00    -0.086 HD
ATOM      9  H   UNL     1       7.577  -6.357   5.964  0.00  0.00    -0.086 HD
ATOM     10  H   UNL     1       4.896  -3.609   5.043  0.00  0.00    -0.081 HD
BRANCH   6  11
ATOM     11  C   UNL     1       8.321  -5.279   3.671  0.00  0.00    +0.017 C 
BRANCH  11  12
ATOM     12  C   UNL     1       8.501  -6.774   3.607  0.00  0.00    -0.049 A 
ATOM     13  C   UNL     1       9.300  -7.414   4.536  0.00  0.00    +0.003 A 
ATOM     14  C   UNL     1       9.465  -8.785   4.478  0.00  0.00    +0.000 A 
ATOM     15  C   UNL     1       8.830  -9.516   3.491  0.00  0.00    +0.000 A 
ATOM     16  C   UNL     1       8.030  -8.876   2.563  0.00  0.00    +0.000 A 
ATOM     17  C   UNL     1       7.862  -7.506   2.624  0.00  0.00    +0.003 A 
ENDBRANCH  11  12
ENDBRANCH   6  11
ENDBRANCH   1   2
BRANCH   1  21
ATOM     18  C   UNL     1       4.738  -0.447   1.320  0.00  0.00    -0.043 A 
ATOM     19  C   UNL     1       5.498   0.348   2.158  0.00  0.00    +0.004 A 
ATOM     20  C   UNL     1       5.732  -0.049   3.462  0.00  0.00    +0.002 A 
ATOM     21  C   UNL     1       5.206  -1.240   3.927  0.00  0.00    -0.060 A 
ATOM     22  C   UNL     1       4.446  -2.034   3.089  0.00  0.00    +0.002 A 
ATOM     23  C   UNL     1       4.208  -1.635   1.787  0.00  0.00    +0.004 A 
BRANCH  18  24
ATOM     24  C   UNL     1       4.483  -0.015  -0.101  0.00  0.00    +0.070 C 
BRANCH  24  28
ATOM     25  C   UNL     1       0.923   2.341  -0.256  0.00  0.00    +0.000 A 
ATOM     26  C   UNL     1       2.146   2.950  -0.045  0.00  0.00    +0.000 A 
ATOM     27  C   UNL     1       3.298   2.188   0.005  0.00  0.00    +0.004 A 
ATOM     28  C   UNL     1       3.227   0.817  -0.155  0.00  0.00    -0.043 A 
ATOM     29  C   UNL     1       2.003   0.208  -0.365  0.00  0.00    +0.004 A 
ATOM     30  C   UNL     1       0.852   0.970  -0.417  0.00  0.00    +0.000 A 
ENDBRANCH  24  28
ENDBRANCH  18  24
ENDBRANCH   1  21
BRANCH   1  31
ATOM     31  C   UNL     1       4.241  -1.345   6.209  0.00  0.00    +0.070 C 
BRANCH  31  32
ATOM     32  N   UNL     1       4.037   0.109   6.235  0.00  0.00    -0.313 NA
ATOM     33  H   UNL     1       4.886   0.589   6.495  0.00  0.00    +0.122 HD
BRANCH  32  34
ATOM     34  C   UNL     1       2.932   0.469   7.134  0.00  0.00    +0.116 C 
BRANCH  34  35
ATOM     35  C   UNL     1       2.753   1.966   7.136  0.00  0.00    -0.034 A 
ATOM     36  C   UNL     1       3.446   2.744   8.044  0.00  0.00    +0.005 A 
ATOM     37  C   UNL     1       3.282   4.117   8.045  0.00  0.00    +0.000 A 
ATOM     38  C   UNL     1       2.425   4.711   7.138  0.00  0.00    +0.000 A 
ATOM     39  C   UNL     1       1.732   3.933   6.229  0.00  0.00    +0.000 A 
ATOM     40  C   UNL     1       1.899   2.560   6.225  0.00  0.00    +0.005 A 
ENDBRANCH  34  35
ENDBRANCH  32  34
ENDBRANCH  31  32
ENDBRANCH   1  31
TORSDOF 10
