REMARK  Name = ZINC39697418
REMARK  10 active torsions:
REMARK  status: ('A' for Active; 'I' for Inactive)
REMARK    1  A    between atoms: C_1  and  O_2
REMARK    2  A    between atoms: O_2  and  C_3
REMARK    3  A    between atoms: C_8  and  C_15
REMARK    4  A    between atoms: C_15  and  N_16
REMARK    5  A    between atoms: N_16  and  C_17
REMARK    6  A    between atoms: N_16  and  C_24
REMARK    7  A    between atoms: C_17  and  C_18
REMARK    8  A    between atoms: C_24  and  C_25
REMARK    9  A    between atoms: N_29  and  C_30
REMARK   10  A    between atoms: C_30  and  C_31
REMARK                            x       y       z     vdW  Elec       q    Type
REMARK                         _______ _______ _______ _____ _____    ______ ____
ROOT
ATOM      1  N   UNL     1       4.069  -6.357   4.507  0.00  0.00    +0.388 N 
ATOM      2  H   UNL     1       3.569  -7.101   4.043  0.00  0.00    -0.081 HD
ENDROOT
BRANCH   1   3
ATOM      3  C   UNL     1       3.956  -5.124   3.718  0.00  0.00    -0.061 C 
BRANCH   3   9
ATOM      4  C   UNL     1       1.408  -3.451  -1.510  0.00  0.00    +0.122 A 
ATOM      5  C   UNL     1       1.593  -2.264  -0.785  0.00  0.00    +0.046 A 
ATOM      6  C   UNL     1       1.917  -2.286   0.530  0.00  0.00    +0.013 A 
ATOM      7  C   UNL     1       2.075  -3.577   1.202  0.00  0.00    -0.007 A 
ATOM      8  C   UNL     1       2.399  -3.638   2.522  0.00  0.00    -0.007 C 
ATOM      9  C   UNL     1       2.543  -5.014   3.142  0.00  0.00    +0.082 C 
ATOM     10  C   UNL     1       2.315  -6.209   2.244  0.00  0.00    +0.222 C 
ATOM     11  O   UNL     1       2.418  -7.337   2.690  0.00  0.00    -0.275 OA
ATOM     12  N   UNL     1       2.004  -6.024   0.973  0.00  0.00    -0.284 N 
ATOM     13  C   UNL     1       1.876  -4.814   0.424  0.00  0.00    +0.044 A 
ATOM     14  C   UNL     1       1.538  -4.694  -0.931  0.00  0.00    +0.069 A 
ATOM     15  H   UNL     1       1.861  -6.803   0.414  0.00  0.00    +0.155 HD
BRANCH   4  17
ATOM     16  C   UNL     1       0.961  -2.063  -3.383  0.00  0.00    +0.277 C 
ATOM     17  O   UNL     1       1.085  -3.372  -2.823  0.00  0.00    -0.495 OA
ENDBRANCH   4  17
ENDBRANCH   3   9
ENDBRANCH   1   3
BRANCH   1  18
ATOM     18  C   UNL     1       3.495  -6.139   5.841  0.00  0.00    -0.042 C 
BRANCH  18  19
ATOM     19  C   UNL     1       2.005  -5.948   5.721  0.00  0.00    -0.064 A 
ATOM     20  C   UNL     1       1.430  -4.746   6.091  0.00  0.00    +0.002 A 
ATOM     21  C   UNL     1       0.064  -4.570   5.981  0.00  0.00    +0.000 A 
ATOM     22  C   UNL     1      -0.729  -5.596   5.501  0.00  0.00    +0.000 A 
ATOM     23  C   UNL     1      -0.154  -6.798   5.131  0.00  0.00    +0.000 A 
ATOM     24  C   UNL     1       1.213  -6.972   5.237  0.00  0.00    +0.002 A 
ENDBRANCH  18  19
ENDBRANCH   1  18
BRANCH   1  25
ATOM     25  C   UNL     1       5.485  -6.727   4.638  0.00  0.00    +0.001 C 
BRANCH  25  26
ATOM     26  C   UNL     1       5.594  -8.056   5.341  0.00  0.00    +0.135 A 
ATOM     27  N   UNL     1       5.688  -8.252   6.634  0.00  0.00    -0.115 NA
ATOM     28  N   UNL     1       5.761  -9.521   6.840  0.00  0.00    -0.023 NA
ATOM     29  N   UNL     1       5.716 -10.141   5.712  0.00  0.00    -0.044 NA
ATOM     30  N   UNL     1       5.607  -9.272   4.764  0.00  0.00    -0.227 N 
BRANCH  30  31
ATOM     31  C   UNL     1       5.519  -9.555   3.329  0.00  0.00    +0.182 C 
BRANCH  31  32
ATOM     32  C   UNL     1       6.905  -9.589   2.738  0.00  0.00    -0.026 A 
ATOM     33  C   UNL     1       7.474  -8.430   2.244  0.00  0.00    +0.005 A 
ATOM     34  C   UNL     1       8.745  -8.462   1.702  0.00  0.00    +0.000 A 
ATOM     35  C   UNL     1       9.447  -9.652   1.653  0.00  0.00    +0.000 A 
ATOM     36  C   UNL     1       8.878 -10.810   2.148  0.00  0.00    +0.000 A 
ATOM     37  C   UNL     1       7.609 -10.778   2.694  0.00  0.00    +0.005 A 
ENDBRANCH  31  32
ENDBRANCH  30  31
ENDBRANCH  25  26
ENDBRANCH   1  25
TORSDOF 9
