REMARK  Name = ZINC09264601
REMARK  5 active torsions:
REMARK  status: ('A' for Active; 'I' for Inactive)
REMARK    1  A    between atoms: C_1  and  C_2
REMARK    2  A    between atoms: C_11  and  C_13
REMARK    3  A    between atoms: C_16  and  S_19
REMARK    4  A    between atoms: S_19  and  C_20
REMARK    5  A    between atoms: N_24  and  C_27
REMARK                            x       y       z     vdW  Elec       q    Type
REMARK                         _______ _______ _______ _____ _____    ______ ____
ROOT
ATOM      1  C   UNL     1       4.564   1.569   1.367  0.00  0.00    +0.066 C 
ATOM      2  C   UNL     1       3.339   2.054   0.634  0.00  0.00    +0.047 A 
ATOM      3  C   UNL     1       3.370   3.247  -0.027  0.00  0.00    +0.093 A 
ATOM      4  C   UNL     1       2.218   3.679  -0.711  0.00  0.00    +0.257 A 
ATOM      5  O   UNL     1       2.206   4.745  -1.304  0.00  0.00    -0.267 OA
ATOM      6  N   UNL     1       1.130   2.888  -0.696  0.00  0.00    -0.255 N 
ATOM      7  C   UNL     1       1.152   1.713   0.000  0.00  0.00    +0.207 A 
ATOM      8  N   UNL     1       2.229   1.315   0.634  0.00  0.00    -0.221 NA
ATOM      9  N   UNL     1      -0.011   0.966   0.007  0.00  0.00    -0.259 N 
ATOM     10  C   UNL     1      -1.201   1.685   0.017  0.00  0.00    +0.165 C 
ATOM     11  C   UNL     1      -0.089   3.246  -1.426  0.00  0.00    +0.220 C 
ATOM     12  N   UNL     1      -2.294   1.232   0.717  0.00  0.00    -0.302 N 
ATOM     13  C   UNL     1      -2.237  -0.029   1.472  0.00  0.00    +0.126 C 
ATOM     14  C   UNL     1      -2.730   0.242   2.902  0.00  0.00    +0.124 C 
ATOM     15  N   UNL     1      -4.055   0.873   2.846  0.00  0.00    -0.327 N 
ATOM     16  C   UNL     1      -3.995   2.182   2.182  0.00  0.00    +0.124 C 
ATOM     17  C   UNL     1      -3.553   1.993   0.728  0.00  0.00    +0.126 C 
ATOM     18  H   UNL     1       0.002  -0.004   0.002  0.00  0.00    +0.158 HD
ATOM     19  N   UNL     1      -1.315   2.840  -0.651  0.00  0.00    -0.337 N 
ATOM     20  H   UNL     1      -2.172   3.406  -0.635  0.00  0.00    +0.164 HD
ENDROOT
BRANCH  11  21
ATOM     21  C   UNL     1      -0.089   2.569  -2.772  0.00  0.00    -0.004 A 
ATOM     22  C   UNL     1       1.109   2.301  -3.409  0.00  0.00    +0.008 A 
ATOM     23  C   UNL     1       1.113   1.675  -4.640  0.00  0.00    +0.015 A 
ATOM     24  C   UNL     1      -0.089   1.325  -5.244  0.00  0.00    +0.008 A 
ATOM     25  C   UNL     1      -1.291   1.600  -4.602  0.00  0.00    +0.015 A 
ATOM     26  C   UNL     1      -1.287   2.221  -3.369  0.00  0.00    +0.008 A 
BRANCH  24  27
ATOM     27  S   UNL     1      -0.089   0.533  -6.818  0.00  0.00    -0.129 S 
ATOM     28  C   UNL     1       1.670   0.391  -7.237  0.00  0.00    +0.090 C 
ENDBRANCH  24  27
ENDBRANCH  11  21
BRANCH  15  29
ATOM     29  C   UNL     1      -4.611   0.984   4.123  0.00  0.00    +0.030 A 
ATOM     30  C   UNL     1      -5.013   2.225   4.601  0.00  0.00    +0.023 A 
ATOM     31  C   UNL     1      -5.567   2.330   5.862  0.00  0.00    +0.002 A 
ATOM     32  C   UNL     1      -5.710   1.205   6.653  0.00  0.00    +0.000 A 
ATOM     33  C   UNL     1      -5.306  -0.031   6.182  0.00  0.00    +0.002 A 
ATOM     34  C   UNL     1      -4.757  -0.145   4.920  0.00  0.00    +0.023 A 
ENDBRANCH  15  29
TORSDOF 3
