REMARK  Name = ZINC48351770
REMARK  10 active torsions:
REMARK  status: ('A' for Active; 'I' for Inactive)
REMARK    1  A    between atoms: C_1  and  C_2
REMARK    2  A    between atoms: C_2  and  N_3
REMARK    3  A    between atoms: C_5  and  N_8
REMARK    4  A    between atoms: N_11  and  N_12
REMARK    5  A    between atoms: C_13  and  C_15
REMARK    6  A    between atoms: C_15  and  C_17
REMARK    7  A    between atoms: C_15  and  O_18
REMARK    8  A    between atoms: O_18  and  C_19
REMARK    9  A    between atoms: C_20  and  C_27
REMARK   10  A    between atoms: C_24  and  C_25
REMARK                            x       y       z     vdW  Elec       q    Type
REMARK                         _______ _______ _______ _____ _____    ______ ____
ROOT
ATOM      1  N   UNL     1      -4.948  -4.734  -2.789  0.00  0.00    -0.230 N 
ATOM      2  C   UNL     1      -6.145  -5.140  -3.255  0.00  0.00    +0.270 C 
ATOM      3  O   UNL     1      -7.164  -4.641  -2.825  0.00  0.00    -0.270 OA
ATOM      4  H   UNL     1      -4.133  -5.132  -3.133  0.00  0.00    +0.173 HD
ENDROOT
BRANCH   1   8
ATOM      5  N   UNL     1      -2.549  -3.885  -1.820  0.00  0.00    -0.266 N 
ATOM      6  C   UNL     1      -3.681  -3.331  -1.341  0.00  0.00    +0.320 C 
ATOM      7  O   UNL     1      -3.622  -2.465  -0.490  0.00  0.00    -0.251 OA
ATOM      8  N   UNL     1      -4.879  -3.736  -1.807  0.00  0.00    -0.218 N 
ATOM      9  H   UNL     1      -2.597  -4.575  -2.499  0.00  0.00    +0.157 HD
ATOM     10  H   UNL     1      -5.694  -3.338  -1.463  0.00  0.00    +0.174 HD
BRANCH   5  13
ATOM     11  N   UNL     1       0.862  -3.263  -1.017  0.00  0.00    -0.270 N 
ATOM     12  C   UNL     1      -0.086  -3.931  -1.725  0.00  0.00    +0.131 A 
ATOM     13  C   UNL     1      -1.298  -3.461  -1.333  0.00  0.00    +0.072 A 
ATOM     14  C   UNL     1      -1.081  -2.477  -0.357  0.00  0.00    +0.157 A 
ATOM     15  N   UNL     1       0.208  -2.364  -0.165  0.00  0.00    -0.178 NA
BRANCH  11  17
ATOM     16  C   UNL     1       2.982  -2.112  -1.418  0.00  0.00    +0.029 C 
ATOM     17  C   UNL     1       2.310  -3.455  -1.122  0.00  0.00    +0.140 C 
ENDBRANCH  11  17
ENDBRANCH   5  13
ENDBRANCH   1   8
BRANCH   2  18
ATOM     18  C   UNL     1      -6.219  -6.212  -4.311  0.00  0.00    +0.257 C 
ATOM     19  C   UNL     1      -5.689  -7.529  -3.738  0.00  0.00    +0.062 C 
BRANCH  18  20
ATOM     20  O   UNL     1      -7.577  -6.384  -4.721  0.00  0.00    -0.479 OA
BRANCH  20  21
ATOM     21  C   UNL     1      -7.787  -6.819  -5.992  0.00  0.00    +0.127 A 
ATOM     22  C   UNL     1      -8.033  -8.163  -6.234  0.00  0.00    -0.007 A 
ATOM     23  C   UNL     1      -8.247  -8.604  -7.525  0.00  0.00    +0.027 A 
ATOM     24  C   UNL     1      -8.215  -7.706  -8.578  0.00  0.00    +0.042 A 
ATOM     25  C   UNL     1      -7.969  -6.365  -8.338  0.00  0.00    +0.027 A 
ATOM     26  C   UNL     1      -7.762  -5.920  -7.047  0.00  0.00    -0.007 A 
ATOM     27  C   UNL     1      -7.501  -4.459  -6.786  0.00  0.00    +0.047 C 
ATOM     28 CL   UNL     1      -8.483  -8.262 -10.200  0.00  0.00    -0.084 Cl
ATOM     29  C   UNL     1      -8.067  -9.142  -5.088  0.00  0.00    +0.047 C 
ENDBRANCH  20  21
ENDBRANCH  18  20
ENDBRANCH   2  18
TORSDOF 6
