REMARK  Name = ZINC21875459
REMARK  4 active torsions:
REMARK  status: ('A' for Active; 'I' for Inactive)
REMARK    1  A    between atoms: C_1  and  C_2
REMARK    2  A    between atoms: C_7  and  C_8
REMARK    3  A    between atoms: N_10  and  C_11
REMARK    4  A    between atoms: C_17  and  C_19
REMARK                            x       y       z     vdW  Elec       q    Type
REMARK                         _______ _______ _______ _____ _____    ______ ____
ROOT
ATOM      1  C   UNL     1       0.309  -3.126   0.895  0.00  0.00    +0.047 C 
ATOM      2  C   UNL     1       1.160  -1.950   1.299  0.00  0.00    -0.010 A 
ATOM      3  C   UNL     1       0.998  -0.620   0.893  0.00  0.00    +0.042 A 
ATOM      4  C   UNL     1       2.002   0.134   1.500  0.00  0.00    +0.027 A 
ATOM      5  N   UNL     1       2.741  -0.690   2.243  0.00  0.00    -0.354 N 
ATOM      6  H   UNL     1       3.594  -0.297   2.816  0.00  0.00    +0.166 HD
ATOM      7  C   UNL     1       2.243  -1.974   2.134  0.00  0.00    +0.106 A 
ATOM      8  C   UNL     1       2.151   1.620   1.289  0.00  0.00    +0.054 C 
ATOM      9  C   UNL     1       1.428   2.021  -0.001  0.00  0.00    +0.014 C 
ATOM     10  C   UNL     1      -0.019   1.517   0.010  0.00  0.00    +0.080 C 
ATOM     11  C   UNL     1       0.002  -0.004   0.002  0.00  0.00    +0.165 C 
ATOM     12  O   UNL     1      -0.748  -0.661  -0.689  0.00  0.00    -0.292 OA
ENDROOT
BRANCH   7  13
ATOM     13  C   UNL     1       2.785  -3.164   2.802  0.00  0.00    +0.261 C 
ATOM     14  O   UNL     1       2.261  -4.249   2.631  0.00  0.00    -0.269 OA
ATOM     15  N   UNL     1       3.862  -3.055   3.605  0.00  0.00    -0.307 N 
ATOM     16  H   UNL     1       4.335  -2.074   3.759  0.00  0.00    +0.149 HD
BRANCH  15  17
ATOM     17  C   UNL     1       4.402  -4.242   4.271  0.00  0.00    +0.076 C 
ATOM     18  C   UNL     1       5.364  -4.964   3.325  0.00  0.00    +0.022 C 
ATOM     19  C   UNL     1       5.928  -6.204   4.021  0.00  0.00    +0.002 C 
ATOM     20  C   UNL     1       6.679  -5.782   5.286  0.00  0.00    +0.000 C 
ATOM     21  C   UNL     1       5.718  -5.060   6.232  0.00  0.00    +0.005 C 
ATOM     22  C   UNL     1       5.153  -3.820   5.536  0.00  0.00    +0.006 C 
ATOM     23  C   UNL     1       4.191  -3.097   6.482  0.00  0.00    +0.009 C 
ENDBRANCH  15  17
ENDBRANCH   7  13
TORSDOF 2
