REMARK  Name = ZINC20752870
REMARK  6 active torsions:
REMARK  status: ('A' for Active; 'I' for Inactive)
REMARK    1  A    between atoms: C_1  and  C_2
REMARK    2  A    between atoms: C_2  and  C_3
REMARK    3  A    between atoms: C_2  and  C_4
REMARK    4  A    between atoms: C_2  and  N_5
REMARK    5  A    between atoms: C_6  and  C_8
REMARK    6  A    between atoms: C_15  and  C_24
REMARK                            x       y       z     vdW  Elec       q    Type
REMARK                         _______ _______ _______ _____ _____    ______ ____
ROOT
ATOM      1  C   UNL     1      -0.949   7.200   1.514  0.00  0.00    +0.058 A 
ATOM      2  C   UNL     1      -0.154   8.281   1.140  0.00  0.00    +0.015 A 
ATOM      3  C   UNL     1       0.326   8.373  -0.148  0.00  0.00    +0.001 A 
ATOM      4  C   UNL     1       0.023   7.383  -1.069  0.00  0.00    +0.006 A 
ATOM      5  C   UNL     1      -0.757   6.304  -0.715  0.00  0.00    -0.019 A 
ATOM      6  C   UNL     1      -1.269   6.192   0.581  0.00  0.00    +0.044 A 
ATOM      7  N   UNL     1      -2.094   5.162   1.008  0.00  0.00    -0.335 N 
ATOM      8  C   UNL     1      -2.355   4.080   0.046  0.00  0.00    +0.112 C 
ATOM      9  C   UNL     1      -2.511   4.721  -1.317  0.00  0.00    +0.029 C 
ATOM     10  C   UNL     1      -1.081   5.229  -1.679  0.00  0.00    +0.049 C 
ATOM     11  C   UNL     1      -1.167   5.463  -3.141  0.00  0.00    -0.023 C 
ATOM     12  C   UNL     1      -2.077   4.638  -3.647  0.00  0.00    -0.030 C 
ATOM     13  C   UNL     1      -2.703   3.801  -2.529  0.00  0.00    +0.033 C 
ATOM     14  H   UNL     1      -2.546   5.128   2.010  0.00  0.00    +0.147 HD
ENDROOT
BRANCH   8  15
ATOM     15  C   UNL     1      -1.196   3.116   0.030  0.00  0.00    +0.010 A 
ATOM     16  C   UNL     1      -1.192   1.790  -0.251  0.00  0.00    +0.013 A 
ATOM     17  C   UNL     1       0.003   1.098  -0.199  0.00  0.00    +0.008 A 
ATOM     18  C   UNL     1       1.137   1.767   0.120  0.00  0.00    +0.045 A 
ATOM     19  S   UNL     1       0.529   3.427   0.369  0.00  0.00    -0.100 S 
ENDBRANCH   8  15
BRANCH   1  21
ATOM     20  N   UNL     1      -1.157   8.070   3.789  0.00  0.00    -0.307 N 
ATOM     21  C   UNL     1      -1.460   7.109   2.894  0.00  0.00    +0.246 C 
ATOM     22  O   UNL     1      -2.154   6.167   3.225  0.00  0.00    -0.270 OA
ATOM     23  H   UNL     1      -0.529   8.922   3.490  0.00  0.00    +0.150 HD
BRANCH  20  25
ATOM     24  C   UNL     1      -1.151   6.694   5.811  0.00  0.00    +0.031 C 
ATOM     25  C   UNL     1      -1.665   7.980   5.161  0.00  0.00    +0.026 C 
ATOM     26  C   UNL     1      -1.179   9.187   5.965  0.00  0.00    +0.031 C 
ATOM     27  C   UNL     1      -3.194   7.964   5.138  0.00  0.00    +0.031 C 
ENDBRANCH  20  25
ENDBRANCH   1  21
TORSDOF 3
