REMARK  Name = ZINC39890158
REMARK  6 active torsions:
REMARK  status: ('A' for Active; 'I' for Inactive)
REMARK    1  A    between atoms: C_1  and  C_2
REMARK    2  A    between atoms: C_2  and  C_3
REMARK    3  A    between atoms: C_2  and  C_4
REMARK    4  A    between atoms: C_4  and  C_5
REMARK    5  A    between atoms: N_32  and  C_35
REMARK    6  A    between atoms: C_35  and  C_36
REMARK                            x       y       z     vdW  Elec       q    Type
REMARK                         _______ _______ _______ _____ _____    ______ ____
ROOT
ATOM      1  C   UNL     1      -1.416  -2.035  -0.119  0.00  0.00    +0.104 A 
ATOM      2  N   UNL     1      -1.372  -2.967   0.812  0.00  0.00    -0.145 NA
ATOM      3  N   UNL     1      -1.364  -4.197   0.532  0.00  0.00    -0.125 NA
ATOM      4  C   UNL     1      -1.399  -4.628  -0.721  0.00  0.00    +0.192 A 
ATOM      5  S   UNL     1      -1.457  -3.061  -1.586  0.00  0.00    -0.035 S 
ATOM      6  N   UNL     1      -1.397  -5.925  -1.220  0.00  0.00    -0.219 N 
ATOM      7  C   UNL     1      -1.429  -6.276  -2.524  0.00  0.00    +0.290 C 
ATOM      8  O   UNL     1      -1.462  -5.495  -3.454  0.00  0.00    -0.266 OA
ATOM      9  C   UNL     1      -1.418  -7.743  -2.653  0.00  0.00    +0.200 A 
ATOM     10  C   UNL     1      -1.375  -8.284  -1.397  0.00  0.00    +0.085 A 
ATOM     11  C   UNL     1      -1.350  -9.737  -1.204  0.00  0.00    +0.199 A 
ATOM     12  O   UNL     1      -1.482 -10.267  -0.114  0.00  0.00    -0.287 OA
ATOM     13  C   UNL     1      -1.151 -10.503  -2.460  0.00  0.00    +0.067 A 
ATOM     14  C   UNL     1      -0.913 -11.877  -2.418  0.00  0.00    +0.053 A 
ATOM     15  C   UNL     1      -0.724 -12.572  -3.594  0.00  0.00    +0.124 A 
ATOM     16  C   UNL     1      -0.770 -11.903  -4.812  0.00  0.00    +0.042 A 
ATOM     17  C   UNL     1      -1.006 -10.548  -4.864  0.00  0.00    +0.050 A 
ATOM     18  C   UNL     1      -1.204  -9.825  -3.688  0.00  0.00    +0.140 A 
ATOM     19  O   UNL     1      -1.448  -8.496  -3.769  0.00  0.00    -0.450 OA
ATOM     20  F   UNL     1      -0.493 -13.902  -3.562  0.00  0.00    -0.205 F 
ATOM     21  C   UNL     1      -1.353  -7.157  -0.425  0.00  0.00    +0.180 C 
ATOM     22  C   UNL     1      -0.155  -7.187   0.468  0.00  0.00    +0.011 A 
ATOM     23  C   UNL     1       1.195  -7.161   0.191  0.00  0.00    +0.008 A 
ATOM     24  C   UNL     1       2.063  -7.202   1.276  0.00  0.00    +0.000 A 
ATOM     25  C   UNL     1       1.592  -7.267   2.571  0.00  0.00    +0.002 A 
ATOM     26  C   UNL     1       0.236  -7.295   2.859  0.00  0.00    +0.024 A 
ATOM     27  C   UNL     1      -0.646  -7.254   1.778  0.00  0.00    +0.043 A 
ATOM     28  N   UNL     1      -2.030  -7.270   1.773  0.00  0.00    -0.265 N 
ATOM     29  C   UNL     1      -2.532  -7.218   0.521  0.00  0.00    +0.254 C 
ATOM     30  O   UNL     1      -3.705  -7.219   0.213  0.00  0.00    -0.272 OA
ENDROOT
BRANCH   1  31
ATOM     31  C   UNL     1      -1.433  -0.534   0.013  0.00  0.00    +0.068 C 
BRANCH  31  33
ATOM     32  C   UNL     1      -0.019   1.526   0.010  0.00  0.00    +0.007 C 
ATOM     33  C   UNL     1       0.002  -0.004   0.002  0.00  0.00    -0.011 C 
ATOM     34  C   UNL     1       0.742  -0.511   1.242  0.00  0.00    +0.007 C 
ENDBRANCH  31  33
ENDBRANCH   1  31
BRANCH  28  35
ATOM     35  C   UNL     1      -2.853  -7.338   2.983  0.00  0.00    +0.140 C 
BRANCH  35  36
ATOM     36  C   UNL     1      -3.153  -5.942   3.465  0.00  0.00    -0.015 C 
ATOM     37  C   UNL     1      -4.394  -5.564   3.649  0.00  0.00    +0.005 C 
ENDBRANCH  35  36
ENDBRANCH  28  35
TORSDOF 4
