REMARK  Name = ZINC06312399
REMARK  6 active torsions:
REMARK  status: ('A' for Active; 'I' for Inactive)
REMARK    1  A    between atoms: C_1  and  C_2
REMARK    2  A    between atoms: C_2  and  C_14
REMARK    3  A    between atoms: N_3  and  N_4
REMARK    4  A    between atoms: C_5  and  C_7
REMARK    5  A    between atoms: C_10  and  N_13
REMARK    6  A    between atoms: C_18  and  N_20
REMARK                            x       y       z     vdW  Elec       q    Type
REMARK                         _______ _______ _______ _____ _____    ______ ____
ROOT
ATOM      1  C   UNL     1       4.743   5.571  -0.013  0.00  0.00    +0.068 C 
ATOM      2  C   UNL     1       3.430   6.309   0.003  0.00  0.00    +0.063 C 
ATOM      3  N   UNL     1       2.313   5.648   0.010  0.00  0.00    -0.184 NA
ENDROOT
BRANCH   2   4
ATOM      4  C   UNL     1       3.414   7.784   0.011  0.00  0.00    -0.000 A 
ATOM      5  C   UNL     1       4.614   8.499   0.004  0.00  0.00    +0.011 A 
ATOM      6  C   UNL     1       4.592   9.878   0.011  0.00  0.00    +0.023 A 
ATOM      7  C   UNL     1       3.383  10.554   0.025  0.00  0.00    +0.071 A 
ATOM      8  C   UNL     1       2.190   9.851   0.033  0.00  0.00    +0.145 A 
ATOM      9  C   UNL     1       2.198   8.472   0.021  0.00  0.00    +0.044 A 
ATOM     10 CL   UNL     1       3.364  12.290   0.034  0.00  0.00    -0.081 Cl
BRANCH   8  11
ATOM     11  N   UNL     1       0.903  10.582   0.048  0.00  0.00    +0.058 N 
ATOM     12  O   UNL     1      -0.148   9.965   0.054  0.00  0.00    -0.126 OA
ATOM     13  O   UNL     1       0.894  11.800   0.054  0.00  0.00    -0.126 OA
ENDBRANCH   8  11
ENDBRANCH   2   4
BRANCH   3  14
ATOM     14  N   UNL     1       2.329   4.247   0.003  0.00  0.00    -0.203 N 
ATOM     15  C   UNL     1       1.169   3.560   0.010  0.00  0.00    +0.263 C 
ATOM     16  O   UNL     1       0.109   4.157   0.023  0.00  0.00    -0.268 OA
ATOM     17  H   UNL     1       3.174   3.772  -0.008  0.00  0.00    +0.178 HD
BRANCH  15  18
ATOM     18  C   UNL     1       1.185   2.086   0.002  0.00  0.00    +0.038 A 
ATOM     19  C   UNL     1      -0.017   1.372   0.010  0.00  0.00    +0.015 A 
ATOM     20  C   UNL     1       0.002  -0.004   0.002  0.00  0.00    +0.023 A 
ATOM     21  C   UNL     1       1.216  -0.685  -0.014  0.00  0.00    +0.025 A 
ATOM     22  C   UNL     1       2.415   0.023  -0.021  0.00  0.00    +0.023 A 
ATOM     23  C   UNL     1       2.403   1.399  -0.013  0.00  0.00    +0.015 A 
BRANCH  21  24
ATOM     24  N   UNL     1       1.232  -2.076  -0.021  0.00  0.00    -0.358 N 
ATOM     25  H   UNL     1       0.397  -2.570  -0.016  0.00  0.00    +0.142 HD
ATOM     26  H   UNL     1       2.077  -2.551  -0.032  0.00  0.00    +0.142 HD
ENDBRANCH  21  24
ENDBRANCH  15  18
ENDBRANCH   3  14
TORSDOF 5
