REMARK  Name = ZINC09015567
REMARK  11 active torsions:
REMARK  status: ('A' for Active; 'I' for Inactive)
REMARK    1  A    between atoms: C_1  and  C_2
REMARK    2  A    between atoms: C_2  and  O_3
REMARK    3  A    between atoms: O_3  and  C_4
REMARK    4  A    between atoms: C_4  and  C_6
REMARK    5  A    between atoms: C_6  and  C_39
REMARK    6  A    between atoms: C_18  and  C_27
REMARK    7  A    between atoms: C_20  and  C_22
REMARK    8  A    between atoms: C_27  and  C_29
REMARK    9  A    between atoms: C_32  and  O_35
REMARK   10  A    between atoms: O_35  and  C_36
REMARK   11  A    between atoms: C_36  and  C_38
REMARK                            x       y       z     vdW  Elec       q    Type
REMARK                         _______ _______ _______ _____ _____    ______ ____
ROOT
ATOM      1  C   UNL     1       5.597   2.359  -1.472  0.00  0.00    +0.187 C 
ATOM      2  C   UNL     1       6.054   1.664  -0.186  0.00  0.00    +0.129 C 
ATOM      3  C   UNL     1       7.217   0.735  -0.356  0.00  0.00    -0.002 C 
ATOM      4  C   UNL     1       7.361  -0.217   0.584  0.00  0.00    +0.007 C 
ATOM      5  C   UNL     1       6.367  -0.251   1.683  0.00  0.00    -0.004 A 
ATOM      6  C   UNL     1       6.664  -0.816   2.916  0.00  0.00    +0.010 A 
ATOM      7  C   UNL     1       5.705  -0.831   3.911  0.00  0.00    +0.001 A 
ATOM      8  C   UNL     1       4.453  -0.286   3.685  0.00  0.00    +0.002 A 
ATOM      9  C   UNL     1       4.143   0.281   2.462  0.00  0.00    +0.024 A 
ATOM     10  C   UNL     1       5.089   0.307   1.456  0.00  0.00    +0.038 A 
ATOM     11  N   UNL     1       4.870   0.860   0.218  0.00  0.00    -0.310 N 
ATOM     12  C   UNL     1       3.744   1.784   0.044  0.00  0.00    +0.158 C 
ATOM     13  C   UNL     1       4.060   2.486  -1.305  0.00  0.00    +0.116 C 
ENDROOT
BRANCH  13  14
ATOM     14  C   UNL     1       3.349   1.791  -2.437  0.00  0.00    +0.112 A 
ATOM     15  C   UNL     1       2.462   2.357  -3.275  0.00  0.00    +0.045 A 
ATOM     16  C   UNL     1       2.049   1.350  -4.177  0.00  0.00    +0.041 A 
ATOM     17  C   UNL     1       2.703   0.226  -3.832  0.00  0.00    +0.195 A 
ATOM     18  O   UNL     1       3.488   0.499  -2.777  0.00  0.00    -0.467 OA
ENDBRANCH  13  14
BRANCH   1  19
ATOM     19  C   UNL     1       6.230   3.721  -1.589  0.00  0.00    +0.330 C 
ATOM     20  O   UNL     1       5.541   4.713  -1.548  0.00  0.00    -0.249 OA
BRANCH  19  21
ATOM     21  O   UNL     1       7.559   3.832  -1.741  0.00  0.00    -0.464 OA
BRANCH  21  23
ATOM     22  C   UNL     1       9.619   5.102  -2.014  0.00  0.00    +0.048 C 
ATOM     23  C   UNL     1       8.100   5.176  -1.848  0.00  0.00    +0.229 C 
ENDBRANCH  21  23
ENDBRANCH  19  21
ENDBRANCH   1  19
BRANCH  12  24
ATOM     24  C   UNL     1       2.444   1.027  -0.043  0.00  0.00    +0.184 C 
ATOM     25  O   UNL     1       2.451  -0.182  -0.132  0.00  0.00    -0.290 OA
BRANCH  24  26
ATOM     26  C   UNL     1       1.167   1.755  -0.021  0.00  0.00    +0.020 A 
ATOM     27  C   UNL     1      -0.042   1.054  -0.101  0.00  0.00    +0.015 A 
ATOM     28  C   UNL     1      -1.235   1.740  -0.085  0.00  0.00    +0.047 A 
ATOM     29  C   UNL     1      -1.240   3.126   0.023  0.00  0.00    +0.132 A 
ATOM     30  C   UNL     1      -0.042   3.827   0.103  0.00  0.00    +0.047 A 
ATOM     31  C   UNL     1       1.156   3.151   0.082  0.00  0.00    +0.015 A 
BRANCH  29  32
ATOM     32  O   UNL     1      -2.420   3.798   0.045  0.00  0.00    -0.426 OA
BRANCH  32  33
ATOM     33  C   UNL     1      -3.188   3.647   1.136  0.00  0.00    +0.309 C 
ATOM     34  O   UNL     1      -2.774   3.023   2.084  0.00  0.00    -0.251 OA
ATOM     35  C   UNL     1      -4.566   4.255   1.177  0.00  0.00    +0.136 C 
ENDBRANCH  32  33
ENDBRANCH  29  32
ENDBRANCH  24  26
ENDBRANCH  12  24
BRANCH   1  36
ATOM     36  C   UNL     1       5.921   1.537  -2.649  0.00  0.00    +0.084 C 
ATOM     37  N   UNL     1       6.172   0.902  -3.557  0.00  0.00    -0.195 NA
ENDBRANCH   1  36
TORSDOF 9
