REMARK  Name = ZINC35057518
REMARK  9 active torsions:
REMARK  status: ('A' for Active; 'I' for Inactive)
REMARK    1  A    between atoms: C_1  and  C_2
REMARK    2  A    between atoms: N_4  and  C_5
REMARK    3  A    between atoms: C_7  and  O_31
REMARK    4  A    between atoms: C_15  and  C_17
REMARK    5  A    between atoms: C_15  and  C_18
REMARK    6  A    between atoms: C_20  and  O_22
REMARK    7  A    between atoms: O_22  and  C_23
REMARK    8  A    between atoms: O_31  and  C_32
REMARK    9  A    between atoms: C_32  and  C_33
REMARK                            x       y       z     vdW  Elec       q    Type
REMARK                         _______ _______ _______ _____ _____    ______ ____
ROOT
ATOM      1  C   UNL     1      -1.135  -2.139   0.005  0.00  0.00    +0.173 C 
ATOM      2  C   UNL     1      -2.487  -2.667  -0.484  0.00  0.00    +0.176 C 
ATOM      3  C   UNL     1      -2.478  -4.196  -0.440  0.00  0.00    +0.183 C 
ATOM      4  C   UNL     1      -2.143  -4.667   0.979  0.00  0.00    +0.179 C 
ATOM      5  C   UNL     1      -2.021  -6.196   0.970  0.00  0.00    +0.197 C 
ATOM      6  O   UNL     1      -1.062  -6.577  -0.022  0.00  0.00    -0.347 OA
ATOM      7  C   UNL     1      -1.383  -6.125  -1.340  0.00  0.00    +0.165 C 
ATOM      8  O   UNL     1      -1.492  -4.700  -1.344  0.00  0.00    -0.341 OA
ATOM      9  C   UNL     1      -0.280  -6.555  -2.309  0.00  0.00    +0.074 C 
ATOM     10  C   UNL     1      -2.714  -6.740  -1.779  0.00  0.00    +0.074 C 
ATOM     11  O   UNL     1      -0.903  -4.090   1.393  0.00  0.00    -0.332 OA
ATOM     12  C   UNL     1      -0.869  -2.677   1.414  0.00  0.00    +0.331 C 
ENDROOT
BRANCH   1  16
ATOM     13  C   UNL     1      -0.039   1.528   0.065  0.00  0.00    +0.109 C 
ATOM     14  C   UNL     1      -0.010   0.022   0.032  0.00  0.00    +0.210 C 
ATOM     15  O   UNL     1       1.052  -0.563   0.000  0.00  0.00    -0.276 OA
ATOM     16  N   UNL     1      -1.164  -0.674   0.037  0.00  0.00    -0.304 N 
ATOM     17  H   UNL     1      -2.013  -0.206   0.063  0.00  0.00    +0.149 HD
ENDBRANCH   1  16
BRANCH  12  18
ATOM     18  O   UNL     1      -1.879  -2.202   2.306  0.00  0.00    -0.460 OA
BRANCH  18  19
ATOM     19  C   UNL     1      -1.679  -2.413   3.634  0.00  0.00    +0.142 A 
ATOM     20  C   UNL     1      -0.531  -3.058   4.069  0.00  0.00    +0.049 A 
ATOM     21  C   UNL     1      -0.329  -3.272   5.419  0.00  0.00    +0.023 A 
ATOM     22  C   UNL     1      -1.271  -2.842   6.337  0.00  0.00    +0.043 A 
ATOM     23  C   UNL     1      -2.417  -2.198   5.906  0.00  0.00    +0.043 A 
ATOM     24  C   UNL     1      -2.620  -1.978   4.556  0.00  0.00    +0.084 A 
ATOM     25 CL   UNL     1      -4.055  -1.163   4.015  0.00  0.00    -0.080 Cl
ATOM     26 CL   UNL     1      -1.015  -3.112   8.033  0.00  0.00    -0.083 Cl
ENDBRANCH  18  19
ENDBRANCH  12  18
BRANCH   2  27
ATOM     27  O   UNL     1      -3.528  -2.171   0.360  0.00  0.00    -0.361 OA
BRANCH  27  28
ATOM     28  C   UNL     1      -4.808  -2.109  -0.271  0.00  0.00    +0.285 C 
BRANCH  28  29
ATOM     29  C   UNL     1      -5.792  -1.440   0.654  0.00  0.00    +0.381 C 
ATOM     30  O   UNL     1      -5.430  -1.052   1.752  0.00  0.00    -0.244 OA
ATOM     31  O   UNL     1      -6.950  -1.286   0.304  0.00  0.00    -0.244 OA
ENDBRANCH  28  29
ENDBRANCH  27  28
ENDBRANCH   2  27
TORSDOF 6
