REMARK  Name = ZINC61684585
REMARK  7 active torsions:
REMARK  status: ('A' for Active; 'I' for Inactive)
REMARK    1  A    between atoms: C_1  and  C_2
REMARK    2  A    between atoms: C_2  and  C_3
REMARK    3  A    between atoms: C_2  and  N_4
REMARK    4  A    between atoms: C_6  and  N_9
REMARK    5  A    between atoms: N_9  and  S_10
REMARK    6  A    between atoms: S_10  and  C_13
REMARK    7  A    between atoms: C_14  and  N_21
REMARK                            x       y       z     vdW  Elec       q    Type
REMARK                         _______ _______ _______ _____ _____    ______ ____
ROOT
ATOM      1  S   UNL     1      -5.967  -1.028   1.093  0.00  0.00    +0.092 S 
ATOM      2  O   UNL     1      -6.843  -1.531   2.092  0.00  0.00    -0.148 OA
ATOM      3  O   UNL     1      -5.884   0.356   0.779  0.00  0.00    -0.148 OA
ENDROOT
BRANCH   1   4
ATOM      4  C   UNL     1      -6.382  -1.859  -0.405  0.00  0.00    +0.224 A 
ATOM      5  C   UNL     1      -6.145  -1.413  -1.655  0.00  0.00    +0.164 A 
ATOM      6  N   UNL     1      -6.607  -2.329  -2.524  0.00  0.00    -0.205 NA
ATOM      7  C   UNL     1      -7.120  -3.325  -1.859  0.00  0.00    +0.181 A 
ATOM      8  N   UNL     1      -7.010  -3.103  -0.512  0.00  0.00    -0.276 N 
ATOM      9  C   UNL     1      -7.507  -4.079   0.324  0.00  0.00    +0.102 A 
ATOM     10  C   UNL     1      -8.063  -5.183  -0.171  0.00  0.00    +0.067 A 
ATOM     11  S   UNL     1      -7.928  -4.906  -1.931  0.00  0.00    -0.058 S 
BRANCH   5  12
ATOM     12  N   UNL     1      -5.523  -0.201  -1.992  0.00  0.00    -0.340 N 
ATOM     13  H   UNL     1      -5.221   0.400  -1.293  0.00  0.00    +0.144 HD
ATOM     14  H   UNL     1      -5.395   0.037  -2.924  0.00  0.00    +0.144 HD
ENDBRANCH   5  12
ENDBRANCH   1   4
BRANCH   1  15
ATOM     15  N   UNL     1      -4.440  -1.511   1.514  0.00  0.00    -0.212 N 
ATOM     16  H   UNL     1      -4.300  -2.021   2.327  0.00  0.00    +0.174 HD
BRANCH  15  19
ATOM     17  N   UNL     1      -1.372  -0.511   0.012  0.00  0.00    -0.267 N 
ATOM     18  C   UNL     1      -2.148  -0.699   1.113  0.00  0.00    +0.133 A 
ATOM     19  C   UNL     1      -3.345  -1.179   0.693  0.00  0.00    +0.085 A 
ATOM     20  C   UNL     1      -3.299  -1.288  -0.704  0.00  0.00    +0.158 A 
ATOM     21  N   UNL     1      -2.123  -0.883  -1.110  0.00  0.00    -0.177 NA
BRANCH  17  23
ATOM     22  C   UNL     1      -0.019   1.526   0.010  0.00  0.00    +0.032 C 
ATOM     23  C   UNL     1       0.002  -0.004   0.002  0.00  0.00    +0.101 C 
ATOM     24  C   UNL     1       0.742  -0.511   1.242  0.00  0.00    +0.032 C 
ENDBRANCH  17  23
ENDBRANCH  15  19
ENDBRANCH   1  15
TORSDOF 5
