REMARK  Name = ZINC16043603
REMARK  10 active torsions:
REMARK  status: ('A' for Active; 'I' for Inactive)
REMARK    1  A    between atoms: C_1  and  C_2
REMARK    2  A    between atoms: N_5  and  S_11
REMARK    3  A    between atoms: C_7  and  C_10
REMARK    4  A    between atoms: S_11  and  C_14
REMARK    5  A    between atoms: C_16  and  C_21
REMARK    6  A    between atoms: C_21  and  O_23
REMARK    7  A    between atoms: O_23  and  C_24
REMARK    8  A    between atoms: C_24  and  C_26
REMARK    9  A    between atoms: C_24  and  C_27
REMARK   10  A    between atoms: N_29  and  C_30
REMARK                            x       y       z     vdW  Elec       q    Type
REMARK                         _______ _______ _______ _____ _____    ______ ____
ROOT
ATOM      1  C   UNL     1      -1.501  -3.049  -2.969  0.00  0.00    +0.124 A 
ATOM      2  C   UNL     1      -1.038  -4.339  -3.114  0.00  0.00    +0.045 A 
ATOM      3  C   UNL     1      -0.224  -4.667  -4.200  0.00  0.00    +0.061 A 
ATOM      4  C   UNL     1       0.117  -3.684  -5.133  0.00  0.00    +0.016 A 
ATOM      5  C   UNL     1      -0.353  -2.397  -4.976  0.00  0.00    +0.023 A 
ATOM      6  C   UNL     1      -1.165  -2.080  -3.900  0.00  0.00    +0.067 A 
ATOM      7 CL   UNL     1      -1.758  -0.459  -3.713  0.00  0.00    -0.082 Cl
ENDROOT
BRANCH   1   8
ATOM      8  S   UNL     1      -2.529  -2.633  -1.599  0.00  0.00    +0.062 S 
ATOM      9  O   UNL     1      -2.717  -3.828  -0.855  0.00  0.00    -0.153 OA
ATOM     10  O   UNL     1      -3.616  -1.881  -2.121  0.00  0.00    -0.153 OA
BRANCH   8  14
ATOM     11  C   UNL     1      -0.606   2.025  -0.766  0.00  0.00    +0.039 C 
ATOM     12  C   UNL     1      -0.466   0.505  -0.866  0.00  0.00    +0.131 C 
ATOM     13  C   UNL     1      -1.846  -0.147  -0.722  0.00  0.00    +0.140 C 
ATOM     14  N   UNL     1      -1.663  -1.604  -0.632  0.00  0.00    -0.172 NA
ATOM     15  C   UNL     1      -0.690  -2.121   0.343  0.00  0.00    +0.140 C 
ATOM     16  C   UNL     1       0.634  -1.373   0.147  0.00  0.00    +0.131 C 
ATOM     17  O   UNL     1       0.389   0.035   0.179  0.00  0.00    -0.371 OA
ATOM     18  C   UNL     1       1.605  -1.750   1.268  0.00  0.00    +0.039 C 
ENDBRANCH   8  14
ENDBRANCH   1   8
BRANCH   3  19
ATOM     19  C   UNL     1       0.276  -6.047  -4.362  0.00  0.00    +0.340 C 
ATOM     20  O   UNL     1      -0.021  -6.900  -3.550  0.00  0.00    -0.245 OA
BRANCH  19  21
ATOM     21  O   UNL     1       1.062  -6.361  -5.411  0.00  0.00    -0.449 OA
BRANCH  21  22
ATOM     22  C   UNL     1       1.509  -7.714  -5.505  0.00  0.00    +0.259 C 
ATOM     23  C   UNL     1       0.499  -8.530  -6.314  0.00  0.00    +0.062 C 
BRANCH  22  24
ATOM     24  C   UNL     1       2.851  -7.754  -6.189  0.00  0.00    +0.258 C 
ATOM     25  O   UNL     1       3.373  -6.724  -6.560  0.00  0.00    -0.271 OA
ATOM     26  N   UNL     1       3.471  -8.934  -6.389  0.00  0.00    -0.282 N 
ATOM     27  H   UNL     1       3.021  -9.763  -6.162  0.00  0.00    +0.155 HD
BRANCH  26  28
ATOM     28  C   UNL     1       4.766  -8.963  -6.924  0.00  0.00    +0.037 A 
ATOM     29  C   UNL     1       5.151 -10.008  -7.752  0.00  0.00    +0.027 A 
ATOM     30  C   UNL     1       6.428 -10.038  -8.281  0.00  0.00    +0.051 A 
ATOM     31  C   UNL     1       7.326  -9.026  -7.985  0.00  0.00    +0.166 A 
ATOM     32  C   UNL     1       6.943  -7.976  -7.154  0.00  0.00    +0.168 A 
ATOM     33  C   UNL     1       5.661  -7.944  -6.630  0.00  0.00    +0.072 A 
ATOM     34  O   UNL     1       7.996  -7.118  -7.020  0.00  0.00    -0.453 OA
ATOM     35  C   UNL     1       9.154  -7.862  -7.443  0.00  0.00    +0.466 C 
ATOM     36  O   UNL     1       8.621  -8.825  -8.371  0.00  0.00    -0.453 OA
ENDBRANCH  26  28
ENDBRANCH  22  24
ENDBRANCH  21  22
ENDBRANCH  19  21
ENDBRANCH   3  19
TORSDOF 7
