REMARK  Name = ZINC00208782
REMARK  4 active torsions:
REMARK  status: ('A' for Active; 'I' for Inactive)
REMARK    1  A    between atoms: C_1  and  C_2
REMARK    2  A    between atoms: C_5  and  C_8
REMARK    3  A    between atoms: C_21  and  N_25
REMARK    4  A    between atoms: C_22  and  C_23
REMARK                            x       y       z     vdW  Elec       q    Type
REMARK                         _______ _______ _______ _____ _____    ______ ____
ROOT
ATOM      1  C   UNL     1      -2.717   2.949   4.763  0.00  0.00    +0.098 C 
ATOM      2  C   UNL     1      -3.751   1.934   5.179  0.00  0.00    +0.010 A 
ATOM      3  C   UNL     1      -3.324   0.773   5.834  0.00  0.00    +0.009 A 
ATOM      4  C   UNL     1      -4.211  -0.178   6.232  0.00  0.00    +0.010 A 
ATOM      5  C   UNL     1      -5.581   0.003   5.985  0.00  0.00    +0.004 A 
ATOM      6  C   UNL     1      -6.531  -0.958   6.379  0.00  0.00    +0.011 A 
ATOM      7  C   UNL     1      -7.847  -0.714   6.103  0.00  0.00    +0.020 A 
ATOM      8  C   UNL     1      -8.213   0.461   5.450  0.00  0.00    +0.111 A 
ATOM      9  N   UNL     1      -7.324   1.353   5.085  0.00  0.00    -0.251 NA
ATOM     10  C   UNL     1      -6.022   1.175   5.325  0.00  0.00    +0.113 A 
ATOM     11  C   UNL     1      -5.072   2.142   4.926  0.00  0.00    +0.160 A 
ATOM     12  O   UNL     1      -5.496   3.264   4.296  0.00  0.00    -0.439 OA
ATOM     13  C   UNL     1      -4.710   4.353   4.261  0.00  0.00    +0.199 C 
ATOM     14  C   UNL     1      -3.375   4.270   4.476  0.00  0.00    +0.098 C 
ENDROOT
BRANCH   1  19
ATOM     15  C   UNL     1      -0.013   1.086   0.008  0.00  0.00    +0.044 C 
ATOM     16  C   UNL     1      -0.718   1.572   1.248  0.00  0.00    -0.050 A 
ATOM     17  C   UNL     1      -2.083   1.789   1.226  0.00  0.00    +0.003 A 
ATOM     18  C   UNL     1      -2.731   2.230   2.365  0.00  0.00    +0.005 A 
ATOM     19  C   UNL     1      -2.012   2.464   3.522  0.00  0.00    -0.035 A 
ATOM     20  C   UNL     1      -0.646   2.252   3.542  0.00  0.00    +0.005 A 
ATOM     21  C   UNL     1       0.001   1.806   2.405  0.00  0.00    +0.003 A 
ENDBRANCH   1  19
BRANCH  13  22
ATOM     22  N   UNL     1      -5.273   5.578   4.003  0.00  0.00    -0.328 N 
ATOM     23  H   UNL     1      -4.716   6.372   3.976  0.00  0.00    +0.145 HD
ATOM     24  H   UNL     1      -6.228   5.650   3.848  0.00  0.00    +0.145 HD
ENDBRANCH  13  22
BRANCH  14  25
ATOM     25  C   UNL     1      -2.578   5.458   4.429  0.00  0.00    +0.101 C 
ATOM     26  N   UNL     1      -1.946   6.402   4.392  0.00  0.00    -0.191 NA
ENDBRANCH  14  25
TORSDOF 3
