REMARK  Name = ZINC39582252
REMARK  11 active torsions:
REMARK  status: ('A' for Active; 'I' for Inactive)
REMARK    1  A    between atoms: C_1  and  C_2
REMARK    2  A    between atoms: C_2  and  O_3
REMARK    3  A    between atoms: O_3  and  C_4
REMARK    4  A    between atoms: C_4  and  C_6
REMARK    5  A    between atoms: C_8  and  N_18
REMARK    6  A    between atoms: C_11  and  O_16
REMARK    7  A    between atoms: O_16  and  C_17
REMARK    8  A    between atoms: C_19  and  C_21
REMARK    9  A    between atoms: C_21  and  N_22
REMARK   10  A    between atoms: C_25  and  C_28
REMARK   11  A    between atoms: C_28  and  C_29
REMARK                            x       y       z     vdW  Elec       q    Type
REMARK                         _______ _______ _______ _____ _____    ______ ____
ROOT
ATOM      1  N   UNL     1       3.695  -0.955   1.840  0.00  0.00    -0.288 N 
ATOM      2  C   UNL     1       5.014  -1.152   1.649  0.00  0.00    +0.200 C 
ATOM      3  O   UNL     1       5.433  -2.265   1.413  0.00  0.00    -0.278 OA
ATOM      4  H   UNL     1       3.350  -0.055   1.954  0.00  0.00    +0.155 HD
ENDROOT
BRANCH   1   6
ATOM      5  C   UNL     1       3.214  -3.486   1.839  0.00  0.00    +0.234 C 
ATOM      6  C   UNL     1       2.843  -2.020   1.871  0.00  0.00    +0.053 C 
ATOM      7  C   UNL     1       1.462  -1.983   1.941  0.00  0.00    +0.021 A 
ATOM      8  C   UNL     1       0.537  -0.911   1.998  0.00  0.00    +0.057 A 
ATOM      9  C   UNL     1      -0.794  -1.175   2.062  0.00  0.00    +0.121 A 
ATOM     10  C   UNL     1      -1.282  -2.489   2.075  0.00  0.00    +0.047 A 
ATOM     11  C   UNL     1      -0.453  -3.559   2.023  0.00  0.00    +0.029 A 
ATOM     12  C   UNL     1       0.951  -3.364   1.953  0.00  0.00    +0.045 A 
ATOM     13  N   UNL     1       1.949  -4.225   1.895  0.00  0.00    -0.367 N 
ATOM     14  H   UNL     1       1.861  -5.191   1.889  0.00  0.00    +0.161 HD
BRANCH   5  15
ATOM     15  C   UNL     1       4.070  -3.831   3.031  0.00  0.00    +0.336 C 
ATOM     16  O   UNL     1       3.567  -3.941   4.124  0.00  0.00    -0.248 OA
BRANCH  15  17
ATOM     17  O   UNL     1       5.390  -4.017   2.878  0.00  0.00    -0.463 OA
BRANCH  17  19
ATOM     18  C   UNL     1       7.609  -4.541   3.680  0.00  0.00    +0.048 C 
ATOM     19  C   UNL     1       6.120  -4.461   4.023  0.00  0.00    +0.229 C 
ENDBRANCH  17  19
ENDBRANCH  15  17
ENDBRANCH   5  15
BRANCH   9  20
ATOM     20  O   UNL     1      -1.675  -0.139   2.116  0.00  0.00    -0.495 OA
ATOM     21  C   UNL     1      -3.063  -0.470   2.183  0.00  0.00    +0.277 C 
ENDBRANCH   9  20
ENDBRANCH   1   6
BRANCH   2  22
ATOM     22  C   UNL     1       5.969   0.011   1.728  0.00  0.00    +0.019 C 
BRANCH  22  23
ATOM     23  N   UNL     1       7.302  -0.419   1.283  0.00  0.00    +0.385 N 
ATOM     24  C   UNL     1       7.865  -1.355   2.263  0.00  0.00    -0.078 C 
ATOM     25  C   UNL     1       9.218  -1.868   1.764  0.00  0.00    -0.015 C 
ATOM     26  C   UNL     1      10.171  -0.683   1.581  0.00  0.00    -0.010 C 
ATOM     27  C   UNL     1       9.540   0.322   0.614  0.00  0.00    -0.015 C 
ATOM     28  C   UNL     1       8.175   0.754   1.155  0.00  0.00    -0.078 C 
ATOM     29  H   UNL     1       7.224  -0.878   0.388  0.00  0.00    -0.081 HD
BRANCH  26  30
ATOM     30  C   UNL     1      11.500  -1.179   1.008  0.00  0.00    +0.038 C 
BRANCH  30  31
ATOM     31  C   UNL     1      12.478  -0.035   0.942  0.00  0.00    -0.047 A 
ATOM     32  C   UNL     1      12.543   0.755  -0.190  0.00  0.00    +0.003 A 
ATOM     33  C   UNL     1      13.440   1.805  -0.250  0.00  0.00    +0.000 A 
ATOM     34  C   UNL     1      14.271   2.066   0.823  0.00  0.00    +0.000 A 
ATOM     35  C   UNL     1      14.205   1.277   1.956  0.00  0.00    +0.000 A 
ATOM     36  C   UNL     1      13.306   0.229   2.018  0.00  0.00    +0.003 A 
ENDBRANCH  30  31
ENDBRANCH  26  30
ENDBRANCH  22  23
ENDBRANCH   2  22
TORSDOF 9
