REMARK  Name = ZINC46580874
REMARK  8 active torsions:
REMARK  status: ('A' for Active; 'I' for Inactive)
REMARK    1  A    between atoms: C_1  and  C_2
REMARK    2  A    between atoms: C_2  and  C_4
REMARK    3  A    between atoms: C_2  and  S_17
REMARK    4  A    between atoms: N_6  and  C_7
REMARK    5  A    between atoms: S_17  and  C_18
REMARK    6  A    between atoms: N_22  and  C_23
REMARK    7  A    between atoms: C_27  and  N_29
REMARK    8  A    between atoms: C_30  and  C_32
REMARK                            x       y       z     vdW  Elec       q    Type
REMARK                         _______ _______ _______ _____ _____    ______ ____
ROOT
ATOM      1  S   UNL     1       0.679  -0.820   1.603  0.00  0.00    -0.072 S 
ENDROOT
BRANCH   1   2
ATOM      2  C   UNL     1       2.329  -0.368   1.179  0.00  0.00    +0.215 A 
ATOM      3  N   UNL     1       2.724   0.190   0.054  0.00  0.00    -0.101 NA
ATOM      4  N   UNL     1       3.992   0.387   0.071  0.00  0.00    -0.022 NA
ATOM      5  N   UNL     1       4.499  -0.020   1.184  0.00  0.00    -0.038 NA
ATOM      6  N   UNL     1       3.437  -0.523   1.956  0.00  0.00    -0.187 N 
BRANCH   6   7
ATOM      7  C   UNL     1       3.505  -1.070   3.245  0.00  0.00    +0.072 A 
ATOM      8  C   UNL     1       2.461  -0.871   4.140  0.00  0.00    +0.028 A 
ATOM      9  C   UNL     1       2.526  -1.409   5.410  0.00  0.00    +0.004 A 
ATOM     10  C   UNL     1       3.630  -2.145   5.796  0.00  0.00    +0.023 A 
ATOM     11  C   UNL     1       4.678  -2.347   4.906  0.00  0.00    +0.035 A 
ATOM     12  C   UNL     1       4.611  -1.813   3.627  0.00  0.00    +0.051 A 
BRANCH  11  13
ATOM     13  N   UNL     1       5.795  -3.092   5.297  0.00  0.00    -0.286 N 
ATOM     14  C   UNL     1       5.652  -4.123   6.153  0.00  0.00    +0.214 C 
ATOM     15  O   UNL     1       4.545  -4.466   6.510  0.00  0.00    -0.276 OA
ATOM     16  C   UNL     1       6.868  -4.850   6.667  0.00  0.00    +0.109 C 
ATOM     17  H   UNL     1       6.674  -2.866   4.952  0.00  0.00    +0.155 HD
ENDBRANCH  11  13
ENDBRANCH   6   7
ENDBRANCH   1   2
BRANCH   1  19
ATOM     18  C   UNL     1      -0.253   1.172  -0.024  0.00  0.00    +0.029 C 
ATOM     19  C   UNL     1      -0.293  -0.348   0.146  0.00  0.00    +0.137 C 
BRANCH  19  20
ATOM     20  C   UNL     1      -1.720  -0.796   0.328  0.00  0.00    +0.227 C 
ATOM     21  O   UNL     1      -2.170  -0.951   1.444  0.00  0.00    -0.275 OA
ATOM     22  N   UNL     1      -2.498  -1.025  -0.749  0.00  0.00    -0.309 N 
ATOM     23  H   UNL     1      -2.138  -0.902  -1.642  0.00  0.00    +0.149 HD
BRANCH  22  24
ATOM     24  C   UNL     1      -3.885  -1.461  -0.572  0.00  0.00    +0.035 C 
ATOM     25  C   UNL     1      -4.655  -0.402   0.220  0.00  0.00    +0.029 C 
ATOM     26  C   UNL     1      -6.104  -0.857   0.405  0.00  0.00    -0.008 C 
ATOM     27  C   UNL     1      -6.758  -1.044  -0.965  0.00  0.00    +0.007 C 
ATOM     28  C   UNL     1      -5.989  -2.103  -1.758  0.00  0.00    -0.008 C 
ATOM     29  C   UNL     1      -4.540  -1.648  -1.943  0.00  0.00    +0.029 C 
ATOM     30  C   UNL     1      -6.014  -3.429  -0.995  0.00  0.00    +0.007 C 
ATOM     31  C   UNL     1      -5.359  -3.241   0.375  0.00  0.00    -0.008 C 
ATOM     32  C   UNL     1      -6.129  -2.183   1.167  0.00  0.00    +0.007 C 
ATOM     33  C   UNL     1      -3.910  -2.787   0.190  0.00  0.00    +0.029 C 
ENDBRANCH  22  24
ENDBRANCH  19  20
ENDBRANCH   1  19
TORSDOF 6
