REMARK  Name = ZINC39037411
REMARK  7 active torsions:
REMARK  status: ('A' for Active; 'I' for Inactive)
REMARK    1  A    between atoms: C_1  and  C_2
REMARK    2  A    between atoms: C_5  and  N_8
REMARK    3  A    between atoms: C_15  and  C_18
REMARK    4  A    between atoms: C_21  and  O_26
REMARK    5  A    between atoms: C_22  and  O_24
REMARK    6  A    between atoms: O_24  and  C_25
REMARK    7  A    between atoms: O_26  and  C_27
REMARK                            x       y       z     vdW  Elec       q    Type
REMARK                         _______ _______ _______ _____ _____    ______ ____
ROOT
ATOM      1  N   UNL     1       0.059  -4.169  -0.021  0.00  0.00    -0.269 N 
ATOM      2  C   UNL     1       0.176  -4.848   1.138  0.00  0.00    +0.310 C 
ATOM      3  O   UNL     1       0.174  -4.248   2.197  0.00  0.00    -0.252 OA
ATOM      4  N   UNL     1       0.296  -6.186   1.123  0.00  0.00    -0.247 N 
ATOM      5  C   UNL     1       0.410  -6.851   2.258  0.00  0.00    +0.185 C 
ATOM      6  N   UNL     1       0.423  -6.372   3.550  0.00  0.00    -0.130 NA
ATOM      7  N   UNL     1       0.533  -7.062   4.538  0.00  0.00    -0.166 NA
ATOM      8  C   UNL     1       0.664  -8.527   4.364  0.00  0.00    +0.223 C 
ATOM      9  S   UNL     1       0.581  -8.615   2.524  0.00  0.00    -0.055 S 
ATOM     10  H   UNL     1      -0.016  -4.651  -0.860  0.00  0.00    +0.156 HD
ATOM     11  H   UNL     1       0.298  -6.664   0.279  0.00  0.00    +0.158 HD
ENDROOT
BRANCH   1  16
ATOM     12  C   UNL     1       0.009   1.503   0.008  0.00  0.00    +0.044 C 
ATOM     13  C   UNL     1       0.022  -0.004   0.001  0.00  0.00    -0.050 A 
ATOM     14  C   UNL     1      -0.722  -0.696  -0.938  0.00  0.00    +0.005 A 
ATOM     15  C   UNL     1      -0.711  -2.077  -0.948  0.00  0.00    +0.023 A 
ATOM     16  C   UNL     1       0.047  -2.771  -0.014  0.00  0.00    +0.035 A 
ATOM     17  C   UNL     1       0.793  -2.073   0.927  0.00  0.00    +0.023 A 
ATOM     18  C   UNL     1       0.783  -0.692   0.928  0.00  0.00    +0.005 A 
ENDBRANCH   1  16
BRANCH   8  19
ATOM     19  C   UNL     1      -0.488  -9.263   4.999  0.00  0.00    -0.007 A 
ATOM     20  C   UNL     1      -1.787  -8.929   4.666  0.00  0.00    +0.010 A 
ATOM     21  C   UNL     1      -2.847  -9.600   5.245  0.00  0.00    +0.050 A 
ATOM     22  C   UNL     1      -2.609 -10.611   6.163  0.00  0.00    +0.162 A 
ATOM     23  C   UNL     1      -1.301 -10.948   6.498  0.00  0.00    +0.162 A 
ATOM     24  C   UNL     1      -0.243 -10.274   5.910  0.00  0.00    +0.056 A 
BRANCH  23  25
ATOM     25  O   UNL     1      -1.062 -11.939   7.398  0.00  0.00    -0.491 OA
ATOM     26  C   UNL     1       0.306 -12.230   7.694  0.00  0.00    +0.277 C 
ENDBRANCH  23  25
BRANCH  22  27
ATOM     27  O   UNL     1      -3.651 -11.272   6.734  0.00  0.00    -0.491 OA
ATOM     28  C   UNL     1      -4.966 -10.873   6.343  0.00  0.00    +0.277 C 
ENDBRANCH  22  27
ENDBRANCH   8  19
TORSDOF 4
