REMARK  Name = ZINC63540920
REMARK  7 active torsions:
REMARK  status: ('A' for Active; 'I' for Inactive)
REMARK    1  A    between atoms: C_4  and  N_25
REMARK    2  A    between atoms: C_5  and  C_7
REMARK    3  A    between atoms: C_8  and  C_9
REMARK    4  A    between atoms: N_10  and  N_11
REMARK    5  A    between atoms: C_12  and  C_14
REMARK    6  A    between atoms: C_14  and  S_15
REMARK    7  A    between atoms: S_15  and  C_16
REMARK                            x       y       z     vdW  Elec       q    Type
REMARK                         _______ _______ _______ _____ _____    ______ ____
ROOT
ATOM      1  N   UNL     1      -3.204  -2.711   0.039  0.00  0.00    -0.206 N 
ATOM      2  C   UNL     1      -4.276  -3.527   0.026  0.00  0.00    +0.242 C 
ATOM      3  O   UNL     1      -4.130  -4.722   0.180  0.00  0.00    -0.273 OA
ATOM      4  H   UNL     1      -3.320  -1.756  -0.084  0.00  0.00    +0.177 HD
ENDROOT
BRANCH   1   6
ATOM      5  C   UNL     1      -0.886  -2.452   0.244  0.00  0.00    +0.130 C 
ATOM      6  N   UNL     1      -1.921  -3.241   0.231  0.00  0.00    -0.188 NA
BRANCH   5   8
ATOM      7  C   UNL     1       1.470  -2.163   0.579  0.00  0.00    +0.012 C 
ATOM      8  C   UNL     1       0.412  -2.989   0.438  0.00  0.00    +0.022 C 
BRANCH   7  13
ATOM      9  C   UNL     1       0.005   1.159   1.523  0.00  0.00    +0.001 A 
ATOM     10  C   UNL     1       0.865   2.026   0.871  0.00  0.00    +0.002 A 
ATOM     11  C   UNL     1       1.921   1.533   0.124  0.00  0.00    +0.033 A 
ATOM     12  C   UNL     1       2.124   0.173   0.025  0.00  0.00    +0.133 A 
ATOM     13  C   UNL     1       1.260  -0.710   0.680  0.00  0.00    +0.005 A 
ATOM     14  C   UNL     1       0.195  -0.204   1.433  0.00  0.00    +0.010 A 
BRANCH  12  15
ATOM     15  N   UNL     1       3.254  -0.352  -0.775  0.00  0.00    +0.057 N 
ATOM     16  O   UNL     1       4.056   0.410  -1.261  0.00  0.00    -0.126 OA
ATOM     17  O   UNL     1       3.374  -1.544  -0.942  0.00  0.00    -0.126 OA
ENDBRANCH  12  15
ENDBRANCH   7  13
ENDBRANCH   5   8
ENDBRANCH   1   6
BRANCH   2  18
ATOM     18  C   UNL     1      -5.655  -2.957  -0.180  0.00  0.00    +0.170 C 
BRANCH  18  19
ATOM     19  S   UNL     1      -6.876  -4.299  -0.147  0.00  0.00    -0.106 S 
BRANCH  19  20
ATOM     20  C   UNL     1      -8.461  -3.456  -0.406  0.00  0.00    +0.236 C 
ATOM     21  N   UNL     1      -8.428  -2.695  -1.661  0.00  0.00    -0.355 N 
ATOM     22  C   UNL     1      -8.616  -1.442  -1.363  0.00  0.00    +0.061 A 
ATOM     23  C   UNL     1      -8.686  -0.221  -2.177  0.00  0.00    +0.027 A 
ATOM     24  C   UNL     1      -8.897   0.968  -1.577  0.00  0.00    +0.002 A 
ATOM     25  C   UNL     1      -9.056   1.097  -0.185  0.00  0.00    +0.002 A 
ATOM     26  C   UNL     1      -9.010   0.042   0.652  0.00  0.00    +0.027 A 
ATOM     27  C   UNL     1      -8.784  -1.305   0.110  0.00  0.00    +0.061 A 
ATOM     28  N   UNL     1      -8.693  -2.479   0.665  0.00  0.00    -0.355 N 
ATOM     29  H   UNL     1      -8.292  -3.059  -2.550  0.00  0.00    +0.162 HD
ATOM     30  H   UNL     1      -8.766  -2.673   1.613  0.00  0.00    +0.162 HD
ENDBRANCH  19  20
ENDBRANCH  18  19
ENDBRANCH   2  18
TORSDOF 7
