REMARK  Name = ZINC39672669
REMARK  7 active torsions:
REMARK  status: ('A' for Active; 'I' for Inactive)
REMARK    1  A    between atoms: C_1  and  C_2
REMARK    2  A    between atoms: C_5  and  C_7
REMARK    3  A    between atoms: C_7  and  N_8
REMARK    4  A    between atoms: C_9  and  C_11
REMARK    5  A    between atoms: C_22  and  C_24
REMARK    6  A    between atoms: C_31  and  C_35
REMARK    7  A    between atoms: N_33  and  C_34
REMARK                            x       y       z     vdW  Elec       q    Type
REMARK                         _______ _______ _______ _____ _____    ______ ____
ROOT
ATOM      1  C   UNL     1      -2.965  -4.448   4.096  0.00  0.00    +0.100 C 
ATOM      2  C   UNL     1      -3.730  -5.077   2.909  0.00  0.00    +0.121 C 
ATOM      3  N   UNL     1      -3.585  -6.539   3.103  0.00  0.00    -0.296 N 
ATOM      4  C   UNL     1      -3.715  -6.731   4.568  0.00  0.00    +0.115 C 
ATOM      5  C   UNL     1      -2.961  -5.535   5.183  0.00  0.00    -0.004 C 
ATOM      6  C   UNL     1      -3.686  -5.038   6.430  0.00  0.00    -0.010 C 
ATOM      7  C   UNL     1      -3.618  -6.114   7.518  0.00  0.00    -0.082 C 
ATOM      8  N   UNL     1      -2.215  -6.410   7.829  0.00  0.00    +0.379 N 
ATOM      9  C   UNL     1      -1.548  -6.975   6.649  0.00  0.00    -0.082 C 
ATOM     10  C   UNL     1      -1.529  -5.935   5.525  0.00  0.00    -0.010 C 
ATOM     11  C   UNL     1      -3.383  -7.481   2.161  0.00  0.00    +0.250 C 
ATOM     12  O   UNL     1      -3.201  -7.155   1.004  0.00  0.00    -0.270 OA
ATOM     13  H   UNL     1      -1.746  -5.559   8.103  0.00  0.00    -0.086 HD
ATOM     14  H   UNL     1      -2.172  -7.074   8.588  0.00  0.00    -0.086 HD
ENDROOT
BRANCH  11  15
ATOM     15  C   UNL     1      -3.382  -8.909   2.534  0.00  0.00    +0.074 A 
ATOM     16  C   UNL     1      -4.237  -9.381   3.540  0.00  0.00    +0.127 A 
ATOM     17  N   UNL     1      -4.252 -10.646   3.887  0.00  0.00    -0.235 NA
ATOM     18  C   UNL     1      -3.461 -11.543   3.305  0.00  0.00    +0.160 A 
ATOM     19  C   UNL     1      -2.572 -11.149   2.284  0.00  0.00    +0.060 A 
ATOM     20  C   UNL     1      -2.533  -9.809   1.886  0.00  0.00    +0.067 A 
ATOM     21 CL   UNL     1      -1.459  -9.280   0.628  0.00  0.00    -0.082 Cl
ATOM     22  C   UNL     1      -1.862 -12.354   1.867  0.00  0.00    +0.071 A 
ATOM     23  N   UNL     1      -2.308 -13.343   2.587  0.00  0.00    -0.174 NA
ATOM     24  N   UNL     1      -3.286 -12.887   3.476  0.00  0.00    -0.249 N 
ATOM     25  C   UNL     1      -4.008 -13.720   4.441  0.00  0.00    +0.174 C 
ATOM     26  C   UNL     1      -0.805 -12.439   0.796  0.00  0.00    +0.068 C 
ENDBRANCH  11  15
BRANCH   1  28
ATOM     27  N   UNL     1      -0.921  -3.065   4.263  0.00  0.00    -0.309 N 
ATOM     28  C   UNL     1      -1.554  -4.107   3.689  0.00  0.00    +0.219 C 
ATOM     29  O   UNL     1      -0.989  -4.770   2.845  0.00  0.00    -0.275 OA
ATOM     30  H   UNL     1      -1.373  -2.535   4.938  0.00  0.00    +0.149 HD
BRANCH  27  31
ATOM     31  C   UNL     1       0.450  -2.734   3.868  0.00  0.00    +0.167 C 
BRANCH  31  36
ATOM     32  C   UNL     1       2.606  -0.347   7.702  0.00  0.00    +0.066 C 
ATOM     33  C   UNL     1       1.895  -0.378   6.374  0.00  0.00    +0.046 A 
ATOM     34  C   UNL     1       1.591   0.763   5.705  0.00  0.00    +0.070 A 
ATOM     35  S   UNL     1       0.788   0.093   4.258  0.00  0.00    -0.079 S 
ATOM     36  C   UNL     1       0.924  -1.538   4.653  0.00  0.00    +0.096 A 
ATOM     37  N   UNL     1       1.546  -1.515   5.806  0.00  0.00    -0.248 NA
ENDBRANCH  31  36
ENDBRANCH  27  31
ENDBRANCH   1  28
TORSDOF 4
