REMARK  Name = ZINC40369769
REMARK  6 active torsions:
REMARK  status: ('A' for Active; 'I' for Inactive)
REMARK    1  A    between atoms: C_3  and  O_22
REMARK    2  A    between atoms: C_6  and  C_7
REMARK    3  A    between atoms: N_9  and  C_10
REMARK    4  A    between atoms: C_10  and  C_12
REMARK    5  A    between atoms: C_10  and  C_18
REMARK    6  A    between atoms: N_19  and  O_20
REMARK                            x       y       z     vdW  Elec       q    Type
REMARK                         _______ _______ _______ _____ _____    ______ ____
ROOT
ATOM      1  C   UNL     1      -2.502  -2.861   0.012  0.00  0.00    +0.143 C 
ENDROOT
BRANCH   1   2
ATOM      2  C   UNL     1      -2.275  -4.241  -0.608  0.00  0.00    +0.017 C 
ATOM      3  C   UNL     1      -1.787  -4.080  -2.049  0.00  0.00    +0.006 C 
ATOM      4  C   UNL     1      -1.560  -5.460  -2.668  0.00  0.00    +0.000 C 
ATOM      5  C   UNL     1      -2.874  -6.245  -2.659  0.00  0.00    +0.000 C 
ATOM      6  C   UNL     1      -3.362  -6.407  -1.218  0.00  0.00    +0.000 C 
ATOM      7  C   UNL     1      -3.588  -5.026  -0.599  0.00  0.00    +0.006 C 
ENDBRANCH   1   2
BRANCH   1   8
ATOM      8  C   UNL     1      -2.983  -3.020   1.431  0.00  0.00    +0.152 C 
ATOM      9  N   UNL     1      -2.129  -3.172   2.389  0.00  0.00    -0.075 NA
ATOM     10  N   UNL     1      -4.332  -3.002   1.707  0.00  0.00    -0.342 N 
ATOM     11  H   UNL     1      -4.973  -2.888   0.988  0.00  0.00    +0.144 HD
ATOM     12  H   UNL     1      -4.641  -3.104   2.621  0.00  0.00    +0.144 HD
BRANCH   9  13
ATOM     13  O   UNL     1      -2.581  -3.322   3.722  0.00  0.00    -0.408 OA
ATOM     14  H   UNL     1      -1.870  -3.430   4.369  0.00  0.00    +0.328 HD
ENDBRANCH   9  13
ENDBRANCH   1   8
BRANCH   1  17
ATOM     15  C   UNL     1      -1.265  -0.761   0.011  0.00  0.00    +0.245 C 
ATOM     16  O   UNL     1      -2.327  -0.169   0.024  0.00  0.00    -0.270 OA
ATOM     17  N   UNL     1      -1.244  -2.109   0.003  0.00  0.00    -0.301 N 
ATOM     18  H   UNL     1      -0.397  -2.581  -0.008  0.00  0.00    +0.150 HD
BRANCH  15  24
ATOM     19  C   UNL     1      -0.017   1.393   0.010  0.00  0.00    +0.016 A 
ATOM     20  C   UNL     1       1.167   2.096   0.002  0.00  0.00    +0.046 A 
ATOM     21  C   UNL     1       2.380   1.417  -0.013  0.00  0.00    +0.117 A 
ATOM     22  C   UNL     1       2.403   0.028  -0.021  0.00  0.00    +0.046 A 
ATOM     23  C   UNL     1       1.224  -0.682  -0.013  0.00  0.00    +0.016 A 
ATOM     24  C   UNL     1       0.002  -0.004   0.002  0.00  0.00    +0.037 A 
BRANCH  21  25
ATOM     25  O   UNL     1       3.545   2.114  -0.021  0.00  0.00    -0.507 OA
ATOM     26  H   UNL     1       3.891   2.311   0.860  0.00  0.00    +0.292 HD
ENDBRANCH  21  25
ENDBRANCH  15  24
ENDBRANCH   1  17
TORSDOF 6
