REMARK  Name = ZINC38596647
REMARK  3 active torsions:
REMARK  status: ('A' for Active; 'I' for Inactive)
REMARK    1  A    between atoms: C_10  and  N_11
REMARK    2  A    between atoms: N_18  and  N_19
REMARK    3  A    between atoms: C_27  and  N_34
REMARK                            x       y       z     vdW  Elec       q    Type
REMARK                         _______ _______ _______ _____ _____    ______ ____
ROOT
ATOM      1  C   UNL     1      -0.017   1.397   0.010  0.00  0.00    +0.035 A 
ATOM      2  C   UNL     1       1.110   2.140   0.003  0.00  0.00    +0.028 A 
ATOM      3  C   UNL     1       2.386   1.515  -0.013  0.00  0.00    +0.043 A 
ATOM      4  N   UNL     1       3.603   2.011   0.005  0.00  0.00    -0.372 N 
ATOM      5  C   UNL     1       4.551   0.912  -0.131  0.00  0.00    +0.153 C 
ATOM      6  C   UNL     1       3.717  -0.355  -0.009  0.00  0.00    -0.033 C 
ATOM      7  C   UNL     1       2.435   0.031  -0.010  0.00  0.00    +0.002 A 
ATOM      8  C   UNL     1       1.161  -0.700  -0.007  0.00  0.00    +0.042 A 
ATOM      9  C   UNL     1       0.002  -0.004   0.002  0.00  0.00    +0.127 A 
ATOM     10  C   UNL     1       4.339  -1.714   0.181  0.00  0.00    +0.034 C 
ATOM     11  C   UNL     1       5.284  -1.613   1.389  0.00  0.00    +0.010 C 
ATOM     12  C   UNL     1       6.276  -0.465   1.202  0.00  0.00    +0.055 C 
ATOM     13  C   UNL     1       5.552   0.857   1.002  0.00  0.00    +0.067 C 
ATOM     14  N   UNL     1       5.770   1.877   1.766  0.00  0.00    -0.156 NA
ATOM     15  H   UNL     1       3.832   2.950   0.093  0.00  0.00    +0.161 HD
ENDROOT
BRANCH  14  16
ATOM     16  N   UNL     1       6.705   1.788   2.805  0.00  0.00    -0.156 NA
ATOM     17  C   UNL     1       6.923   2.808   3.569  0.00  0.00    +0.067 C 
ATOM     18  C   UNL     1       7.931   2.756   4.701  0.00  0.00    +0.055 C 
ATOM     19  C   UNL     1       7.270   3.113   6.031  0.00  0.00    +0.010 C 
ATOM     20  C   UNL     1       6.620   4.505   5.962  0.00  0.00    +0.034 C 
ATOM     21  C   UNL     1       5.694   4.499   4.773  0.00  0.00    -0.033 C 
ATOM     22  C   UNL     1       4.400   4.760   4.647  0.00  0.00    +0.002 A 
ATOM     23  C   UNL     1       3.412   5.304   5.592  0.00  0.00    +0.042 A 
ATOM     24  C   UNL     1       2.138   5.415   5.130  0.00  0.00    +0.127 A 
ATOM     25  C   UNL     1       1.753   5.044   3.837  0.00  0.00    +0.035 A 
ATOM     26  C   UNL     1       2.598   4.547   2.899  0.00  0.00    +0.028 A 
ATOM     27  C   UNL     1       3.967   4.396   3.263  0.00  0.00    +0.043 A 
ATOM     28  N   UNL     1       4.983   3.983   2.562  0.00  0.00    -0.372 N 
ATOM     29  C   UNL     1       6.190   4.116   3.375  0.00  0.00    +0.153 C 
ATOM     30  H   UNL     1       4.947   3.645   1.653  0.00  0.00    +0.161 HD
BRANCH  24  31
ATOM     31  N   UNL     1       1.106   5.957   6.041  0.00  0.00    +0.056 N 
ATOM     32  O   UNL     1       1.405   6.286   7.165  0.00  0.00    -0.126 OA
ATOM     33  O   UNL     1      -0.037   6.069   5.662  0.00  0.00    -0.126 OA
ENDBRANCH  24  31
ENDBRANCH  14  16
BRANCH   9  34
ATOM     34  N   UNL     1      -1.281  -0.742   0.005  0.00  0.00    +0.056 N 
ATOM     35  O   UNL     1      -2.327  -0.136   0.013  0.00  0.00    -0.126 OA
ATOM     36  O   UNL     1      -1.283  -1.951  -0.002  0.00  0.00    -0.126 OA
ENDBRANCH   9  34
TORSDOF 3
