REMARK  Name = ZINC43222858
REMARK  7 active torsions:
REMARK  status: ('A' for Active; 'I' for Inactive)
REMARK    1  A    between atoms: C_1  and  C_2
REMARK    2  A    between atoms: C_2  and  C_4
REMARK    3  A    between atoms: C_2  and  N_14
REMARK    4  A    between atoms: C_15  and  C_17
REMARK    5  A    between atoms: C_22  and  C_24
REMARK    6  A    between atoms: N_26  and  C_27
REMARK    7  A    between atoms: C_27  and  C_28
REMARK                            x       y       z     vdW  Elec       q    Type
REMARK                         _______ _______ _______ _____ _____    ______ ____
ROOT
ATOM      1  N   UNL     1       0.592  -0.609  -1.195  0.00  0.00    -0.309 N 
ATOM      2  C   UNL     1      -0.113  -0.654  -2.343  0.00  0.00    +0.215 C 
ATOM      3  O   UNL     1      -1.234  -0.195  -2.386  0.00  0.00    -0.276 OA
ATOM      4  H   UNL     1       1.489  -0.976  -1.161  0.00  0.00    +0.149 HD
ENDROOT
BRANCH   2   5
ATOM      5  C   UNL     1       0.493  -1.276  -3.575  0.00  0.00    +0.068 C 
ATOM      6  C   UNL     1       0.780  -2.774  -3.334  0.00  0.00    -0.069 C 
ATOM      7  N   UNL     1      -0.414  -3.475  -3.872  0.00  0.00    +0.380 N 
ATOM      8  C   UNL     1      -0.751  -2.725  -5.109  0.00  0.00    -0.069 C 
ATOM      9  C   UNL     1      -0.513  -1.242  -4.744  0.00  0.00    +0.068 C 
ATOM     10  H   UNL     1      -0.191  -4.434  -4.090  0.00  0.00    -0.086 HD
ATOM     11  H   UNL     1      -1.177  -3.429  -3.213  0.00  0.00    -0.086 HD
BRANCH   9  12
ATOM     12  C   UNL     1       0.073  -0.499  -5.917  0.00  0.00    +0.215 C 
ATOM     13  O   UNL     1       1.191  -0.034  -5.843  0.00  0.00    -0.276 OA
ATOM     14  N   UNL     1      -0.645  -0.352  -7.048  0.00  0.00    -0.315 N 
ATOM     15  H   UNL     1      -1.539  -0.724  -7.107  0.00  0.00    +0.149 HD
BRANCH  14  16
ATOM     16  C   UNL     1      -0.076   0.370  -8.188  0.00  0.00    +0.107 C 
BRANCH  16  17
ATOM     17  C   UNL     1      -1.089   0.392  -9.335  0.00  0.00    +0.006 C 
ATOM     18  C   UNL     1      -0.705  -0.326 -10.630  0.00  0.00    +0.005 C 
ATOM     19  C   UNL     1      -0.727   1.204 -10.581  0.00  0.00    +0.005 C 
ENDBRANCH  16  17
ENDBRANCH  14  16
ENDBRANCH   9  12
ENDBRANCH   2   5
BRANCH   1  21
ATOM     20  C   UNL     1       0.268   1.503  -0.004  0.00  0.00    +0.033 C 
ATOM     21  C   UNL     1       0.002  -0.004   0.002  0.00  0.00    +0.101 C 
BRANCH  21  22
ATOM     22  C   UNL     1       0.620  -0.619   1.231  0.00  0.00    -0.020 A 
ATOM     23  C   UNL     1       1.876  -1.141   1.178  0.00  0.00    +0.006 A 
ATOM     24  C   UNL     1       2.464  -1.713   2.304  0.00  0.00    +0.001 A 
ATOM     25  C   UNL     1       1.799  -1.768   3.490  0.00  0.00    +0.008 A 
ATOM     26  C   UNL     1       0.501  -1.239   3.584  0.00  0.00    -0.018 A 
ATOM     27  C   UNL     1      -0.095  -0.651   2.441  0.00  0.00    -0.013 A 
ATOM     28  C   UNL     1      -1.391  -0.117   2.536  0.00  0.00    +0.009 A 
ATOM     29  C   UNL     1      -2.054  -0.165   3.724  0.00  0.00    +0.001 A 
ATOM     30  C   UNL     1      -1.466  -0.738   4.851  0.00  0.00    +0.001 A 
ATOM     31  C   UNL     1      -0.217  -1.277   4.792  0.00  0.00    +0.008 A 
ENDBRANCH  21  22
ENDBRANCH   1  21
TORSDOF 6
