REMARK  Name = ZINC63383486
REMARK  12 active torsions:
REMARK  status: ('A' for Active; 'I' for Inactive)
REMARK    1  A    between atoms: C_1  and  C_2
REMARK    2  A    between atoms: C_2  and  C_3
REMARK    3  A    between atoms: C_3  and  C_5
REMARK    4  A    between atoms: C_3  and  C_6
REMARK    5  A    between atoms: C_6  and  C_8
REMARK    6  A    between atoms: C_6  and  N_16
REMARK    7  A    between atoms: N_10  and  C_11
REMARK    8  A    between atoms: C_11  and  C_12
REMARK    9  A    between atoms: C_12  and  C_13
REMARK   10  A    between atoms: C_13  and  C_14
REMARK   11  A    between atoms: C_13  and  C_15
REMARK   12  A    between atoms: C_17  and  C_19
REMARK                            x       y       z     vdW  Elec       q    Type
REMARK                         _______ _______ _______ _____ _____    ______ ____
ROOT
ATOM      1  C   UNL     1      -1.324   3.512   2.684  0.00  0.00    +0.167 C 
ATOM      2  C   UNL     1      -1.436   3.714   4.207  0.00  0.00    +0.065 C 
ATOM      3  C   UNL     1      -2.760   4.387   4.467  0.00  0.00    -0.034 C 
ATOM      4  C   UNL     1      -3.051   5.480   5.168  0.00  0.00    -0.001 A 
ATOM      5  C   UNL     1      -2.214   6.355   6.005  0.00  0.00    +0.010 A 
ATOM      6  C   UNL     1      -2.842   7.417   6.576  0.00  0.00    +0.001 A 
ATOM      7  C   UNL     1      -4.201   7.692   6.400  0.00  0.00    +0.002 A 
ATOM      8  C   UNL     1      -5.047   6.937   5.654  0.00  0.00    +0.026 A 
ATOM      9  C   UNL     1      -4.504   5.789   5.008  0.00  0.00    +0.043 A 
ATOM     10  N   UNL     1      -5.078   4.894   4.260  0.00  0.00    -0.375 N 
ATOM     11  C   UNL     1      -4.081   3.884   3.901  0.00  0.00    +0.131 C 
ATOM     12  C   UNL     1      -3.909   3.759   2.389  0.00  0.00    +0.134 C 
ATOM     13  N   UNL     1      -2.512   4.105   2.055  0.00  0.00    -0.276 N 
ATOM     14  C   UNL     1      -2.521   5.055   1.102  0.00  0.00    +0.248 C 
ATOM     15  O   UNL     1      -1.536   5.469   0.521  0.00  0.00    -0.270 OA
ATOM     16  C   UNL     1      -3.890   5.517   0.866  0.00  0.00    +0.042 A 
ATOM     17  C   UNL     1      -4.782   4.721   1.654  0.00  0.00    -0.013 A 
ATOM     18  C   UNL     1      -6.147   4.909   1.651  0.00  0.00    +0.006 A 
ATOM     19  C   UNL     1      -6.645   5.912   0.825  0.00  0.00    +0.000 A 
ATOM     20  C   UNL     1      -5.815   6.687   0.040  0.00  0.00    +0.001 A 
ATOM     21  C   UNL     1      -4.383   6.528   0.037  0.00  0.00    +0.013 A 
ATOM     22  H   UNL     1      -6.009   4.896   3.986  0.00  0.00    +0.160 HD
ENDROOT
BRANCH   1  24
ATOM     23  N   UNL     1      -0.257   1.287   2.858  0.00  0.00    -0.302 N 
ATOM     24  C   UNL     1      -1.263   2.040   2.369  0.00  0.00    +0.235 C 
ATOM     25  O   UNL     1      -2.120   1.532   1.677  0.00  0.00    -0.274 OA
ATOM     26  H   UNL     1       0.385   1.676   3.472  0.00  0.00    +0.150 HD
BRANCH  23  27
ATOM     27  C   UNL     1      -0.133  -0.117   2.460  0.00  0.00    +0.162 C 
BRANCH  27  28
ATOM     28  C   UNL     1       0.449  -0.912   3.600  0.00  0.00    +0.234 C 
ATOM     29  O   UNL     1       0.723  -0.362   4.645  0.00  0.00    -0.274 OA
ATOM     30  N   UNL     1       0.666  -2.235   3.457  0.00  0.00    -0.314 N 
ATOM     31  H   UNL     1       0.515  -2.661   2.599  0.00  0.00    +0.149 HD
BRANCH  30  32
ATOM     32  C   UNL     1       1.128  -3.029   4.599  0.00  0.00    +0.104 C 
BRANCH  32  33
ATOM     33  C   UNL     1       1.294  -4.488   4.171  0.00  0.00    +0.022 C 
BRANCH  33  34
ATOM     34  C   UNL     1       1.777  -5.317   5.363  0.00  0.00    -0.016 C 
ATOM     35  C   UNL     1       1.823  -6.795   4.971  0.00  0.00    +0.007 C 
ATOM     36  C   UNL     1       3.176  -4.854   5.773  0.00  0.00    +0.007 C 
ENDBRANCH  33  34
ENDBRANCH  32  33
ENDBRANCH  30  32
ENDBRANCH  27  28
BRANCH  27  37
ATOM     37  C   UNL     1       0.786  -0.223   1.242  0.00  0.00    +0.015 C 
ATOM     38  C   UNL     1       0.117   0.442   0.038  0.00  0.00    +0.010 C 
BRANCH  37  40
ATOM     39  C   UNL     1       2.880  -0.309   2.603  0.00  0.00    +0.004 C 
ATOM     40  C   UNL     1       2.112   0.480   1.541  0.00  0.00    +0.002 C 
ENDBRANCH  37  40
ENDBRANCH  27  37
ENDBRANCH  23  27
ENDBRANCH   1  24
TORSDOF 8
