REMARK  Name = ZINC04613953
REMARK  3 active torsions:
REMARK  status: ('A' for Active; 'I' for Inactive)
REMARK    1  A    between atoms: C_1  and  C_2
REMARK    2  A    between atoms: C_2  and  C_3
REMARK    3  A    between atoms: C_9  and  C_10
REMARK                            x       y       z     vdW  Elec       q    Type
REMARK                         _______ _______ _______ _____ _____    ______ ____
ROOT
ATOM      1  C   UNL     1      -5.641  -0.529  -2.273  0.00  0.00    +0.100 C 
ATOM      2  N   UNL     1      -4.656  -0.096  -1.540  0.00  0.00    -0.169 NA
ATOM      3  N   UNL     1      -4.702   1.144  -0.939  0.00  0.00    -0.152 N 
ATOM      4  C   UNL     1      -3.728   1.673  -0.070  0.00  0.00    +0.152 C 
ATOM      5  N   UNL     1      -2.874   0.930   0.581  0.00  0.00    -0.283 NA
ATOM      6  C   UNL     1      -3.767   3.159   0.036  0.00  0.00    +0.081 C 
ATOM      7  C   UNL     1      -2.626   3.902   0.237  0.00  0.00    +0.024 C 
ATOM      8  C   UNL     1      -5.102   3.795  -0.091  0.00  0.00    +0.273 C 
ATOM      9  O   UNL     1      -5.331   4.882   0.414  0.00  0.00    -0.268 OA
ATOM     10  N   UNL     1      -6.054   3.136  -0.780  0.00  0.00    -0.152 NA
ATOM     11  C   UNL     1      -5.816   1.915  -1.193  0.00  0.00    +0.181 C 
ATOM     12  S   UNL     1      -6.792   0.837  -2.207  0.00  0.00    -0.038 S 
ATOM     13  H   UNL     1      -2.893  -0.035   0.478  0.00  0.00    +0.188 HD
ENDROOT
BRANCH   7  14
ATOM     14  C   UNL     1      -1.312   3.257   0.180  0.00  0.00    -0.021 A 
ATOM     15  C   UNL     1      -1.093   2.183  -0.695  0.00  0.00    +0.012 A 
ATOM     16  C   UNL     1       0.141   1.577  -0.741  0.00  0.00    +0.050 A 
ATOM     17  C   UNL     1       1.176   2.030   0.068  0.00  0.00    +0.166 A 
ATOM     18  C   UNL     1       0.967   3.102   0.939  0.00  0.00    +0.167 A 
ATOM     19  C   UNL     1      -0.268   3.714   0.997  0.00  0.00    +0.057 A 
ATOM     20  O   UNL     1       2.129   3.347   1.613  0.00  0.00    -0.453 OA
ATOM     21  C   UNL     1       2.927   2.160   1.448  0.00  0.00    +0.466 C 
ATOM     22  O   UNL     1       2.466   1.609   0.200  0.00  0.00    -0.453 OA
ENDBRANCH   7  14
BRANCH   1  24
ATOM     23  C   UNL     1      -4.524  -2.691  -2.749  0.00  0.00    +0.011 C 
ATOM     24  C   UNL     1      -5.776  -1.846  -2.993  0.00  0.00    +0.061 C 
ENDBRANCH   1  24
TORSDOF 2
