REMARK  Name = ZINC47152300
REMARK  7 active torsions:
REMARK  status: ('A' for Active; 'I' for Inactive)
REMARK    1  A    between atoms: C_1  and  C_2
REMARK    2  A    between atoms: C_7  and  N_8
REMARK    3  A    between atoms: C_9  and  C_11
REMARK    4  A    between atoms: C_11  and  C_13
REMARK    5  A    between atoms: C_11  and  N_14
REMARK    6  A    between atoms: C_18  and  C_19
REMARK    7  A    between atoms: C_23  and  N_25
REMARK                            x       y       z     vdW  Elec       q    Type
REMARK                         _______ _______ _______ _____ _____    ______ ____
ROOT
ATOM      1  N   UNL     1       0.312  -1.309   5.650  0.00  0.00    -0.244 N 
ATOM      2  C   UNL     1       1.005  -1.094   6.756  0.00  0.00    +0.259 C 
ATOM      3  O   UNL     1       1.785  -0.166   6.853  0.00  0.00    -0.269 OA
ATOM      4  C   UNL     1       0.781  -2.040   7.871  0.00  0.00    +0.077 C 
ATOM      5  C   UNL     1       1.341  -2.069   9.106  0.00  0.00    +0.028 C 
ATOM      6  S   UNL     1      -0.430  -3.135   7.142  0.00  0.00    -0.061 S 
ATOM      7  C   UNL     1      -0.556  -2.335   5.551  0.00  0.00    +0.121 C 
ATOM      8  S   UNL     1      -1.540  -2.769   4.218  0.00  0.00    -0.027 S 
ENDROOT
BRANCH   5   9
ATOM      9  C   UNL     1       1.073  -3.199  10.007  0.00  0.00    -0.022 A 
ATOM     10  C   UNL     1       0.409  -4.336   9.533  0.00  0.00    +0.008 A 
ATOM     11  C   UNL     1       0.163  -5.391  10.385  0.00  0.00    +0.003 A 
ATOM     12  C   UNL     1       0.570  -5.328  11.706  0.00  0.00    +0.033 A 
ATOM     13  C   UNL     1       1.226  -4.207  12.184  0.00  0.00    +0.127 A 
ATOM     14  C   UNL     1       1.486  -3.146  11.343  0.00  0.00    +0.040 A 
BRANCH  13  15
ATOM     15  N   UNL     1       1.656  -4.151  13.599  0.00  0.00    +0.056 N 
ATOM     16  O   UNL     1       1.434  -5.083  14.336  0.00  0.00    -0.126 OA
ATOM     17  O   UNL     1       2.230  -3.172  14.018  0.00  0.00    -0.126 OA
ENDBRANCH  13  15
ENDBRANCH   5   9
BRANCH   1  18
ATOM     18  C   UNL     1       0.488  -0.407   4.510  0.00  0.00    +0.166 C 
ATOM     19  C   UNL     1      -0.849   0.257   4.173  0.00  0.00    +0.038 C 
BRANCH  18  21
ATOM     20  N   UNL     1       1.206  -0.566   2.148  0.00  0.00    -0.284 N 
ATOM     21  C   UNL     1       0.973  -1.192   3.318  0.00  0.00    +0.238 C 
ATOM     22  O   UNL     1       1.154  -2.388   3.413  0.00  0.00    -0.273 OA
ATOM     23  H   UNL     1       1.106   0.397   2.084  0.00  0.00    +0.155 HD
BRANCH  20  30
ATOM     24  C   UNL     1       0.543   0.455  -0.424  0.00  0.00    +0.045 C 
ATOM     25  C   UNL     1       1.289  -0.843  -0.250  0.00  0.00    -0.029 A 
ATOM     26  C   UNL     1       1.676  -1.572  -1.358  0.00  0.00    +0.005 A 
ATOM     27  C   UNL     1       2.360  -2.763  -1.199  0.00  0.00    +0.000 A 
ATOM     28  C   UNL     1       2.659  -3.228   0.069  0.00  0.00    +0.002 A 
ATOM     29  C   UNL     1       2.275  -2.504   1.180  0.00  0.00    +0.023 A 
ATOM     30  C   UNL     1       1.592  -1.305   1.024  0.00  0.00    +0.036 A 
ENDBRANCH  20  30
ENDBRANCH  18  21
ENDBRANCH   1  18
TORSDOF 5
