REMARK  Name = ZINC66059165
REMARK  6 active torsions:
REMARK  status: ('A' for Active; 'I' for Inactive)
REMARK    1  A    between atoms: C_1  and  C_2
REMARK    2  A    between atoms: C_2  and  C_3
REMARK    3  A    between atoms: C_2  and  C_4
REMARK    4  A    between atoms: C_13  and  O_15
REMARK    5  A    between atoms: O_15  and  C_16
REMARK    6  A    between atoms: C_16  and  C_17
REMARK                            x       y       z     vdW  Elec       q    Type
REMARK                         _______ _______ _______ _____ _____    ______ ____
ROOT
ATOM      1  C   UNL     1       0.640  -0.322   1.330  0.00  0.00    -0.027 A 
ATOM      2  C   UNL     1      -0.034  -1.024   2.277  0.00  0.00    +0.096 A 
ATOM      3  C   UNL     1       0.585  -1.309   3.512  0.00  0.00    +0.337 A 
ATOM      4  O   UNL     1      -0.030  -1.941   4.352  0.00  0.00    -0.245 OA
ATOM      5  O   UNL     1       1.835  -0.903   3.784  0.00  0.00    -0.422 OA
ATOM      6  C   UNL     1       2.559  -0.201   2.887  0.00  0.00    +0.143 A 
ATOM      7  C   UNL     1       2.005   0.113   1.632  0.00  0.00    +0.021 A 
ATOM      8  C   UNL     1       2.754   0.836   0.697  0.00  0.00    +0.015 A 
ATOM      9  C   UNL     1       4.025   1.230   1.004  0.00  0.00    +0.046 A 
ATOM     10  C   UNL     1       4.580   0.917   2.243  0.00  0.00    +0.125 A 
ATOM     11  C   UNL     1       3.849   0.211   3.184  0.00  0.00    +0.092 A 
ENDROOT
BRANCH   1  13
ATOM     12  C   UNL     1       0.570  -0.934  -1.072  0.00  0.00    +0.012 C 
ATOM     13  C   UNL     1       0.002  -0.004   0.002  0.00  0.00    +0.014 C 
ATOM     14  C   UNL     1      -1.511  -0.205   0.102  0.00  0.00    +0.012 C 
ENDBRANCH   1  13
BRANCH  10  15
ATOM     15  O   UNL     1       5.845   1.315   2.533  0.00  0.00    -0.483 OA
BRANCH  15  16
ATOM     16  C   UNL     1       6.542   2.049   1.524  0.00  0.00    +0.325 C 
BRANCH  16  17
ATOM     17  C   UNL     1       7.920   2.403   2.022  0.00  0.00    +0.258 C 
ATOM     18  O   UNL     1       8.270   2.061   3.131  0.00  0.00    -0.272 OA
ATOM     19  N   UNL     1       8.763   3.099   1.234  0.00  0.00    -0.238 N 
ATOM     20  C   UNL     1       9.995   3.416   1.679  0.00  0.00    +0.303 C 
ATOM     21  O   UNL     1      10.346   3.074   2.791  0.00  0.00    -0.253 OA
ATOM     22  N   UNL     1      10.837   4.113   0.891  0.00  0.00    -0.313 N 
ATOM     23  H   UNL     1       8.482   3.373   0.346  0.00  0.00    +0.159 HD
ATOM     24  H   UNL     1      10.557   4.386   0.003  0.00  0.00    +0.146 HD
ATOM     25  H   UNL     1      11.724   4.341   1.211  0.00  0.00    +0.146 HD
ENDBRANCH  16  17
ENDBRANCH  15  16
ENDBRANCH  10  15
TORSDOF 4
