REMARK  Name = ZINC29089392
REMARK  2 active torsions:
REMARK  status: ('A' for Active; 'I' for Inactive)
REMARK    1  A    between atoms: C_6  and  C_7
REMARK    2  A    between atoms: C_13  and  C_15
REMARK                            x       y       z     vdW  Elec       q    Type
REMARK                         _______ _______ _______ _____ _____    ______ ____
ROOT
ATOM      1  C   UNL     1      -1.639   4.333   0.039  0.00  0.00    +0.266 C 
ATOM      2  O   UNL     1      -1.175   5.458   0.040  0.00  0.00    -0.268 OA
ATOM      3  N   UNL     1      -2.974   4.154   0.051  0.00  0.00    -0.258 N 
ATOM      4  C   UNL     1      -3.823   5.255   0.064  0.00  0.00    +0.188 A 
ATOM      5  N   UNL     1      -3.540   6.550   0.067  0.00  0.00    -0.126 NA
ATOM      6  N   UNL     1      -4.444   7.429   0.080  0.00  0.00    -0.144 NA
ATOM      7  C   UNL     1      -5.725   7.117   0.090  0.00  0.00    +0.107 A 
ATOM      8  S   UNL     1      -5.612   5.330   0.073  0.00  0.00    -0.035 S 
ATOM      9  H   UNL     1      -3.393   3.137   0.050  0.00  0.00    +0.157 HD
ENDROOT
BRANCH   1  15
ATOM     10  C   UNL     1       0.635   3.206   0.013  0.00  0.00    +0.052 A 
ATOM     11  C   UNL     1       1.079   1.879   0.002  0.00  0.00    +0.059 A 
ATOM     12  C   UNL     1      -0.013   1.076   0.008  0.00  0.00    +0.103 A 
ATOM     13  N   UNL     1      -1.127   1.850   0.017  0.00  0.00    -0.356 N 
ATOM     14  H   UNL     1      -2.122   1.381   0.016  0.00  0.00    +0.166 HD
ATOM     15  C   UNL     1      -0.744   3.172   0.025  0.00  0.00    +0.104 A 
ATOM     16 CL   UNL     1       2.734   1.355  -0.015  0.00  0.00    -0.082 Cl
ENDBRANCH   1  15
BRANCH   7  17
ATOM     17  C   UNL     1      -6.939   8.010   0.105  0.00  0.00    +0.047 C 
ATOM     18  C   UNL     1      -6.934   8.899  -1.140  0.00  0.00    +0.010 C 
ATOM     19  C   UNL     1      -8.166   9.806  -1.125  0.00  0.00    +0.001 C 
ATOM     20  C   UNL     1      -8.138  10.683   0.128  0.00  0.00    +0.000 C 
ATOM     21  C   UNL     1      -8.143   9.795   1.373  0.00  0.00    +0.001 C 
ATOM     22  C   UNL     1      -6.911   8.888   1.358  0.00  0.00    +0.010 C 
ENDBRANCH   7  17
TORSDOF 2
