REMARK  Name = ZINC03067927
REMARK  8 active torsions:
REMARK  status: ('A' for Active; 'I' for Inactive)
REMARK    1  A    between atoms: C_1  and  C_2
REMARK    2  A    between atoms: C_2  and  N_3
REMARK    3  A    between atoms: N_3  and  N_4
REMARK    4  A    between atoms: C_5  and  C_7
REMARK    5  A    between atoms: C_7  and  C_8
REMARK    6  A    between atoms: C_11  and  N_14
REMARK    7  A    between atoms: C_17  and  C_18
REMARK    8  A    between atoms: N_20  and  C_21
REMARK                            x       y       z     vdW  Elec       q    Type
REMARK                         _______ _______ _______ _____ _____    ______ ____
ROOT
ATOM      1  N   UNL     1      -0.042   2.028  -2.314  0.00  0.00    -0.269 N 
ATOM      2  H   UNL     1       0.914   1.876  -2.382  0.00  0.00    +0.170 HD
ENDROOT
BRANCH   1   3
ATOM      3  N   UNL     1      -0.731   2.641  -3.368  0.00  0.00    -0.237 N 
ATOM      4  C   UNL     1      -0.088   2.927  -4.518  0.00  0.00    +0.233 C 
ATOM      5  O   UNL     1       1.088   2.653  -4.639  0.00  0.00    -0.274 OA
ATOM      6  H   UNL     1      -1.671   2.860  -3.271  0.00  0.00    +0.173 HD
BRANCH   4   7
ATOM      7  C   UNL     1      -0.829   3.586  -5.652  0.00  0.00    +0.132 C 
BRANCH   7   8
ATOM      8  C   UNL     1       0.111   3.795  -6.812  0.00  0.00    -0.038 A 
ATOM      9  C   UNL     1       0.841   4.965  -6.907  0.00  0.00    +0.006 A 
ATOM     10  C   UNL     1       1.703   5.157  -7.971  0.00  0.00    +0.033 A 
ATOM     11  C   UNL     1       1.835   4.178  -8.939  0.00  0.00    +0.126 A 
ATOM     12  C   UNL     1       1.105   3.008  -8.842  0.00  0.00    +0.033 A 
ATOM     13  C   UNL     1       0.246   2.815  -7.777  0.00  0.00    +0.006 A 
BRANCH  11  14
ATOM     14  N   UNL     1       2.757   4.384 -10.078  0.00  0.00    +0.056 N 
ATOM     15  O   UNL     1       3.395   5.407 -10.163  0.00  0.00    -0.126 OA
ATOM     16  O   UNL     1       2.872   3.528 -10.925  0.00  0.00    -0.126 OA
ENDBRANCH  11  14
ENDBRANCH   7   8
ENDBRANCH   4   7
ENDBRANCH   1   3
BRANCH   1  18
ATOM     17  C   UNL     1      -2.215   1.787  -1.123  0.00  0.00    +0.062 C 
ATOM     18  C   UNL     1      -0.717   1.642  -1.189  0.00  0.00    +0.024 C 
ATOM     19  C   UNL     1      -0.041   1.133  -0.138  0.00  0.00    +0.087 C 
BRANCH  19  20
ATOM     20  C   UNL     1       1.333   0.825  -0.264  0.00  0.00    +0.243 C 
ATOM     21  O   UNL     1       1.878   0.901  -1.351  0.00  0.00    -0.270 OA
ATOM     22  N   UNL     1       2.041   0.448   0.820  0.00  0.00    -0.282 N 
ATOM     23  H   UNL     1       1.593   0.317   1.670  0.00  0.00    +0.155 HD
BRANCH  22  24
ATOM     24  C   UNL     1       3.421   0.246   0.718  0.00  0.00    +0.034 A 
ATOM     25  C   UNL     1       4.179   1.039  -0.135  0.00  0.00    +0.023 A 
ATOM     26  C   UNL     1       5.542   0.837  -0.233  0.00  0.00    +0.002 A 
ATOM     27  C   UNL     1       6.152  -0.152   0.517  0.00  0.00    +0.000 A 
ATOM     28  C   UNL     1       5.400  -0.942   1.367  0.00  0.00    +0.002 A 
ATOM     29  C   UNL     1       4.038  -0.742   1.474  0.00  0.00    +0.023 A 
ENDBRANCH  22  24
ENDBRANCH  19  20
ENDBRANCH   1  18
TORSDOF 7
