REMARK  Name = ZINC16929707
REMARK  9 active torsions:
REMARK  status: ('A' for Active; 'I' for Inactive)
REMARK    1  A    between atoms: C_1  and  C_2
REMARK    2  A    between atoms: C_2  and  C_3
REMARK    3  A    between atoms: C_3  and  C_5
REMARK    4  A    between atoms: C_3  and  O_7
REMARK    5  A    between atoms: O_7  and  C_8
REMARK    6  A    between atoms: C_12  and  C_14
REMARK    7  A    between atoms: N_18  and  N_22
REMARK    8  A    between atoms: C_23  and  C_25
REMARK    9  A    between atoms: C_29  and  O_31
REMARK                            x       y       z     vdW  Elec       q    Type
REMARK                         _______ _______ _______ _____ _____    ______ ____
ROOT
ATOM      1  C   UNL     1      -5.245  -0.015  -2.068  0.00  0.00    +0.028 C 
ATOM      2  C   UNL     1      -4.183   0.042  -1.227  0.00  0.00    +0.079 C 
ATOM      3  C   UNL     1      -2.839   0.618  -1.443  0.00  0.00    +0.275 C 
ATOM      4  O   UNL     1      -2.531   1.145  -2.496  0.00  0.00    -0.267 OA
ATOM      5  N   UNL     1      -1.988   0.528  -0.435  0.00  0.00    -0.169 N 
ATOM      6  C   UNL     1      -2.335  -0.052   0.731  0.00  0.00    +0.138 C 
ATOM      7  S   UNL     1      -1.385  -0.257   2.141  0.00  0.00    -0.026 S 
ATOM      8  S   UNL     1      -4.026  -0.554   0.451  0.00  0.00    -0.059 S 
ENDROOT
BRANCH   1  13
ATOM      9  C   UNL     1      -8.701  -1.479  -2.132  0.00  0.00    +0.122 A 
ATOM     10  C   UNL     1      -8.661  -2.302  -1.013  0.00  0.00    +0.046 A 
ATOM     11  C   UNL     1      -7.515  -2.378  -0.243  0.00  0.00    +0.004 A 
ATOM     12  C   UNL     1      -6.399  -1.642  -0.583  0.00  0.00    +0.008 A 
ATOM     13  C   UNL     1      -6.430  -0.806  -1.704  0.00  0.00    -0.020 A 
ATOM     14  C   UNL     1      -7.591  -0.731  -2.482  0.00  0.00    +0.053 A 
BRANCH   9  15
ATOM     15  O   UNL     1      -9.830  -1.410  -2.884  0.00  0.00    -0.477 OA
BRANCH  15  16
ATOM     16  C   UNL     1      -9.843  -0.457  -3.949  0.00  0.00    +0.285 C 
BRANCH  16  17
ATOM     17  C   UNL     1      -9.292  -1.093  -5.199  0.00  0.00    +0.396 C 
ATOM     18  O   UNL     1      -9.011  -2.268  -5.205  0.00  0.00    -0.242 OA
ATOM     19  O   UNL     1      -9.114  -0.355  -6.306  0.00  0.00    -0.242 OA
ENDBRANCH  16  17
BRANCH  16  21
ATOM     20  C   UNL     1     -11.796   0.761  -2.977  0.00  0.00    +0.008 C 
ATOM     21  C   UNL     1     -11.280   0.005  -4.202  0.00  0.00    +0.053 C 
ENDBRANCH  16  21
ENDBRANCH  15  16
ENDBRANCH   9  15
ENDBRANCH   1  13
BRANCH   5  22
ATOM     22  N   UNL     1      -0.697   1.052  -0.581  0.00  0.00    -0.222 N 
ATOM     23  C   UNL     1       0.351   0.223  -0.757  0.00  0.00    +0.261 C 
ATOM     24  O   UNL     1       0.177  -0.979  -0.789  0.00  0.00    -0.269 OA
ATOM     25  H   UNL     1      -0.557   2.012  -0.555  0.00  0.00    +0.174 HD
BRANCH  23  26
ATOM     26  C   UNL     1       1.713   0.777  -0.917  0.00  0.00    +0.042 A 
ATOM     27  C   UNL     1       1.917   2.157  -0.880  0.00  0.00    +0.013 A 
ATOM     28  C   UNL     1       3.189   2.670  -1.029  0.00  0.00    +0.004 A 
ATOM     29  C   UNL     1       4.264   1.821  -1.215  0.00  0.00    +0.045 A 
ATOM     30  C   UNL     1       4.072   0.447  -1.252  0.00  0.00    +0.118 A 
ATOM     31  C   UNL     1       2.800  -0.079  -1.099  0.00  0.00    +0.058 A 
BRANCH  30  32
ATOM     32  O   UNL     1       5.132  -0.383  -1.435  0.00  0.00    -0.507 OA
ATOM     33  H   UNL     1       5.558  -0.663  -0.613  0.00  0.00    +0.292 HD
ENDBRANCH  30  32
ENDBRANCH  23  26
ENDBRANCH   5  22
TORSDOF 8
