REMARK  Name = ZINC35665427
REMARK  13 active torsions:
REMARK  status: ('A' for Active; 'I' for Inactive)
REMARK    1  A    between atoms: C_1  and  C_2
REMARK    2  A    between atoms: C_2  and  O_3
REMARK    3  A    between atoms: O_3  and  C_4
REMARK    4  A    between atoms: C_4  and  C_6
REMARK    5  A    between atoms: C_7  and  C_24
REMARK    6  A    between atoms: N_8  and  C_21
REMARK    7  A    between atoms: C_12  and  C_14
REMARK    8  A    between atoms: C_19  and  C_20
REMARK    9  A    between atoms: C_21  and  C_22
REMARK   10  A    between atoms: C_24  and  N_25
REMARK   11  A    between atoms: C_32  and  C_34
REMARK   12  A    between atoms: C_34  and  O_35
REMARK   13  A    between atoms: O_35  and  C_36
REMARK                            x       y       z     vdW  Elec       q    Type
REMARK                         _______ _______ _______ _____ _____    ______ ____
ROOT
ATOM      1  C   UNL     1      -2.909  -2.777   0.009  0.00  0.00    +0.076 C 
ATOM      2  C   UNL     1      -2.747  -4.112  -0.120  0.00  0.00    +0.011 C 
ATOM      3  N   UNL     1      -3.772  -4.908  -0.547  0.00  0.00    -0.257 N 
ATOM      4  C   UNL     1      -4.988  -4.446  -0.865  0.00  0.00    +0.307 C 
ATOM      5  O   UNL     1      -5.837  -5.233  -1.236  0.00  0.00    -0.252 OA
ATOM      6  N   UNL     1      -5.301  -3.138  -0.787  0.00  0.00    -0.288 N 
ATOM      7  C   UNL     1      -4.266  -2.195  -0.330  0.00  0.00    +0.144 C 
ATOM      8  H   UNL     1      -6.188  -2.825  -1.022  0.00  0.00    +0.151 HD
ENDROOT
BRANCH   7   9
ATOM      9  C   UNL     1      -4.072  -1.165  -1.413  0.00  0.00    -0.020 A 
ATOM     10  C   UNL     1      -3.757  -1.564  -2.699  0.00  0.00    +0.006 A 
ATOM     11  C   UNL     1      -3.580  -0.620  -3.692  0.00  0.00    +0.000 A 
ATOM     12  C   UNL     1      -3.717   0.725  -3.400  0.00  0.00    +0.000 A 
ATOM     13  C   UNL     1      -4.032   1.124  -2.114  0.00  0.00    +0.004 A 
ATOM     14  C   UNL     1      -4.214   0.179  -1.122  0.00  0.00    -0.045 A 
ATOM     15  C   UNL     1      -4.563   0.614   0.278  0.00  0.00    +0.044 C 
ENDBRANCH   7   9
BRANCH   1  16
ATOM     16  C   UNL     1      -1.849  -1.952   0.452  0.00  0.00    +0.339 C 
ATOM     17  O   UNL     1      -0.734  -2.418   0.596  0.00  0.00    -0.245 OA
BRANCH  16  18
ATOM     18  O   UNL     1      -2.073  -0.647   0.714  0.00  0.00    -0.462 OA
BRANCH  18  20
ATOM     19  C   UNL     1      -1.367   1.614   1.192  0.00  0.00    +0.048 C 
ATOM     20  C   UNL     1      -0.937   0.152   1.049  0.00  0.00    +0.229 C 
ENDBRANCH  18  20
ENDBRANCH  16  18
ENDBRANCH   1  16
BRANCH   3  21
ATOM     21  C   UNL     1      -3.526  -6.347  -0.664  0.00  0.00    +0.141 C 
BRANCH  21  22
ATOM     22  C   UNL     1      -3.960  -7.035   0.605  0.00  0.00    -0.015 C 
ATOM     23  C   UNL     1      -4.824  -8.019   0.553  0.00  0.00    +0.005 C 
ENDBRANCH  21  22
ENDBRANCH   3  21
BRANCH   2  24
ATOM     24  C   UNL     1      -1.415  -4.733   0.212  0.00  0.00    -0.026 C 
BRANCH  24  25
ATOM     25  N   UNL     1      -0.658  -4.959  -1.026  0.00  0.00    +0.384 N 
ATOM     26  C   UNL     1       0.489  -5.809  -0.717  0.00  0.00    -0.077 C 
ATOM     27  C   UNL     1       0.847  -6.629  -1.937  0.00  0.00    +0.000 C 
ATOM     28  C   UNL     1       1.931  -5.896  -2.748  0.00  0.00    +0.106 C 
ATOM     29  N   UNL     1       1.675  -4.441  -2.781  0.00  0.00    -0.301 N 
ATOM     30  C   UNL     1       0.347  -3.892  -2.962  0.00  0.00    +0.089 C 
ATOM     31  C   UNL     1      -0.335  -3.704  -1.587  0.00  0.00    -0.059 C 
ATOM     32  C   UNL     1       2.714  -3.595  -2.639  0.00  0.00    +0.241 C 
ATOM     33  O   UNL     1       2.529  -2.397  -2.663  0.00  0.00    -0.273 OA
ATOM     34  H   UNL     1      -1.252  -5.454  -1.675  0.00  0.00    -0.081 HD
BRANCH  32  35
ATOM     35  C   UNL     1       4.107  -4.138  -2.448  0.00  0.00    +0.255 C 
BRANCH  35  36
ATOM     36  O   UNL     1       5.028  -3.053  -2.322  0.00  0.00    -0.374 OA
ATOM     37  C   UNL     1       6.385  -3.461  -2.136  0.00  0.00    +0.194 C 
ENDBRANCH  35  36
ENDBRANCH  32  35
ENDBRANCH  24  25
ENDBRANCH   2  24
TORSDOF 10
