REMARK  Name = ZINC33812718
REMARK  11 active torsions:
REMARK  status: ('A' for Active; 'I' for Inactive)
REMARK    1  A    between atoms: C_1  and  C_2
REMARK    2  A    between atoms: C_2  and  C_3
REMARK    3  A    between atoms: C_3  and  C_4
REMARK    4  A    between atoms: C_4  and  N_5
REMARK    5  A    between atoms: C_6  and  N_30
REMARK    6  A    between atoms: C_7  and  C_15
REMARK    7  A    between atoms: C_8  and  C_14
REMARK    8  A    between atoms: C_9  and  C_12
REMARK    9  A    between atoms: N_19  and  C_23
REMARK   10  A    between atoms: C_23  and  C_24
REMARK   11  A    between atoms: N_33  and  C_36
REMARK                            x       y       z     vdW  Elec       q    Type
REMARK                         _______ _______ _______ _____ _____    ______ ____
ROOT
ATOM      1  N   UNL     1       1.294  -2.594   2.948  0.00  0.00    -0.295 N 
ATOM      2  C   UNL     1       2.622  -2.744   2.711  0.00  0.00    +0.112 A 
ATOM      3  C   UNL     1       3.419  -3.513   3.576  0.00  0.00    +0.019 A 
ATOM      4  C   UNL     1       2.830  -4.128   4.693  0.00  0.00    -0.017 A 
ATOM      5  C   UNL     1       1.466  -3.959   4.914  0.00  0.00    +0.120 A 
ATOM      6  C   UNL     1       0.707  -3.169   4.014  0.00  0.00    +0.270 A 
ATOM      7  O   UNL     1      -0.486  -3.013   4.204  0.00  0.00    -0.266 OA
ATOM      8  C   UNL     1       3.661  -4.959   5.637  0.00  0.00    +0.046 C 
ENDROOT
BRANCH   3   9
ATOM      9  C   UNL     1       4.851  -3.671   3.315  0.00  0.00    +0.032 C 
ATOM     10  C   UNL     1       5.762  -3.142   4.175  0.00  0.00    +0.077 C 
ATOM     11  C   UNL     1       5.556  -2.314   5.321  0.00  0.00    +0.258 C 
ATOM     12  O   UNL     1       4.435  -1.979   5.659  0.00  0.00    -0.269 OA
ATOM     13  N   UNL     1       6.618  -1.924   6.003  0.00  0.00    -0.253 N 
ATOM     14  C   UNL     1       7.862  -2.296   5.628  0.00  0.00    +0.121 C 
ATOM     15  S   UNL     1       9.363  -1.911   6.356  0.00  0.00    -0.027 S 
ATOM     16  S   UNL     1       7.543  -3.298   4.184  0.00  0.00    -0.061 S 
BRANCH  13  17
ATOM     17  C   UNL     1       6.445  -1.074   7.184  0.00  0.00    +0.146 C 
BRANCH  17  18
ATOM     18  C   UNL     1       6.283  -1.954   8.426  0.00  0.00    +0.136 C 
ATOM     19  C   UNL     1       5.980  -1.072   9.656  0.00  0.00    +0.035 C 
ATOM     20  C   UNL     1       6.804  -1.769  10.773  0.00  0.00    +0.031 C 
ATOM     21  C   UNL     1       8.030  -2.267   9.966  0.00  0.00    +0.160 C 
ATOM     22  O   UNL     1       7.504  -2.657   8.686  0.00  0.00    -0.375 OA
ENDBRANCH  17  18
ENDBRANCH  13  17
ENDBRANCH   3   9
BRANCH   2  23
ATOM     23  N   UNL     1       3.188  -2.143   1.625  0.00  0.00    -0.320 N 
ATOM     24  C   UNL     1       3.838  -0.829   1.740  0.00  0.00    +0.088 C 
ATOM     25  C   UNL     1       5.229  -0.917   1.105  0.00  0.00    -0.060 C 
ATOM     26  N   UNL     1       5.108  -1.415  -0.271  0.00  0.00    +0.380 N 
ATOM     27  C   UNL     1       4.590  -2.789  -0.262  0.00  0.00    -0.060 C 
ATOM     28  C   UNL     1       3.171  -2.795   0.306  0.00  0.00    +0.088 C 
ATOM     29  C   UNL     1       6.428  -1.395  -0.915  0.00  0.00    -0.096 C 
ATOM     30  H   UNL     1       4.476  -0.822  -0.787  0.00  0.00    -0.082 HD
ENDBRANCH   2  23
BRANCH   5  31
ATOM     31  C   UNL     1       0.836  -4.574   6.043  0.00  0.00    +0.105 C 
ATOM     32  N   UNL     1       0.335  -5.061   6.939  0.00  0.00    -0.191 NA
ENDBRANCH   5  31
BRANCH   1  33
ATOM     33  C   UNL     1       0.486  -1.787   2.030  0.00  0.00    +0.126 C 
BRANCH  33  34
ATOM     34  C   UNL     1       0.379  -0.358   2.566  0.00  0.00    +0.021 C 
BRANCH  34  36
ATOM     35  C   UNL     1      -0.571   1.913   2.144  0.00  0.00    +0.004 C 
ATOM     36  C   UNL     1      -0.465   0.484   1.608  0.00  0.00    -0.002 C 
ENDBRANCH  34  36
ENDBRANCH  33  34
ENDBRANCH   1  33
TORSDOF 8
