REMARK  Name = ZINC08928016
REMARK  9 active torsions:
REMARK  status: ('A' for Active; 'I' for Inactive)
REMARK    1  A    between atoms: C_1  and  C_2
REMARK    2  A    between atoms: C_2  and  N_55
REMARK    3  A    between atoms: C_10  and  O_31
REMARK    4  A    between atoms: C_12  and  C_15
REMARK    5  A    between atoms: C_18  and  O_23
REMARK    6  A    between atoms: C_19  and  O_21
REMARK    7  A    between atoms: O_21  and  C_22
REMARK    8  A    between atoms: O_23  and  C_24
REMARK    9  A    between atoms: C_24  and  C_26
REMARK                            x       y       z     vdW  Elec       q    Type
REMARK                         _______ _______ _______ _____ _____    ______ ____
ROOT
ATOM      1  C   UNL     1       3.385  -2.640   6.511  0.00  0.00    -0.074 C 
ATOM      2  C   UNL     1       3.947  -2.395   5.109  0.00  0.00    +0.018 C 
ATOM      3  C   UNL     1       3.228  -3.326   4.138  0.00  0.00    -0.027 A 
ATOM      4  C   UNL     1       2.549  -4.400   4.609  0.00  0.00    -0.021 A 
ATOM      5  S   UNL     1       1.882  -5.184   3.167  0.00  0.00    -0.080 S 
ATOM      6  C   UNL     1       2.493  -4.116   1.977  0.00  0.00    +0.080 A 
ATOM      7  C   UNL     1       3.206  -3.150   2.699  0.00  0.00    +0.067 A 
ATOM      8  C   UNL     1       3.855  -2.063   1.921  0.00  0.00    +0.220 C 
ATOM      9  N   UNL     1       3.557  -1.960   0.657  0.00  0.00    -0.223 NA
ATOM     10  C   UNL     1       2.560  -2.769  -0.033  0.00  0.00    +0.224 C 
ATOM     11  N   UNL     1       2.391  -4.086   0.607  0.00  0.00    -0.313 N 
ATOM     12  C   UNL     1       2.414  -4.809   6.042  0.00  0.00    -0.035 C 
ATOM     13  H   UNL     1       2.217  -4.888   0.089  0.00  0.00    +0.149 HD
ATOM     14  N   UNL     1       3.446  -4.083   6.821  0.00  0.00    +0.383 N 
ATOM     15  H   UNL     1       4.373  -4.441   6.562  0.00  0.00    -0.081 HD
ENDROOT
BRANCH  10  16
ATOM     16  C   UNL     1       1.240  -2.041  -0.017  0.00  0.00    -0.002 A 
ATOM     17  C   UNL     1       0.058  -2.758  -0.038  0.00  0.00    +0.011 A 
ATOM     18  C   UNL     1      -1.155  -2.095  -0.024  0.00  0.00    +0.050 A 
ATOM     19  C   UNL     1      -1.188  -0.710   0.011  0.00  0.00    +0.173 A 
ATOM     20  C   UNL     1       0.002   0.011   0.033  0.00  0.00    +0.163 A 
ATOM     21  C   UNL     1       1.215  -0.660   0.013  0.00  0.00    +0.056 A 
BRANCH  20  22
ATOM     22  O   UNL     1      -0.025   1.370   0.067  0.00  0.00    -0.491 OA
ATOM     23  C   UNL     1       1.235   2.043   0.087  0.00  0.00    +0.277 C 
ENDBRANCH  20  22
BRANCH  19  24
ATOM     24  O   UNL     1      -2.381  -0.057   0.025  0.00  0.00    -0.416 OA
BRANCH  24  25
ATOM     25  C   UNL     1      -2.827   0.429  -1.151  0.00  0.00    +0.380 C 
ATOM     26  O   UNL     1      -2.219   0.191  -2.177  0.00  0.00    -0.241 OA
BRANCH  25  27
ATOM     27  C   UNL     1      -4.043   1.245  -1.192  0.00  0.00    +0.212 A 
ATOM     28  C   UNL     1      -4.601   1.798  -2.310  0.00  0.00    +0.056 A 
ATOM     29  C   UNL     1      -5.746   2.491  -1.889  0.00  0.00    +0.042 A 
ATOM     30  C   UNL     1      -5.836   2.334  -0.549  0.00  0.00    +0.196 A 
ATOM     31  O   UNL     1      -4.810   1.579  -0.134  0.00  0.00    -0.456 OA
ENDBRANCH  25  27
ENDBRANCH  24  25
ENDBRANCH  19  24
ENDBRANCH  10  16
BRANCH  14  33
ATOM     32  C   UNL     1       3.515  -5.769   8.595  0.00  0.00    -0.017 C 
ATOM     33  C   UNL     1       3.234  -4.301   8.268  0.00  0.00    -0.082 C 
ENDBRANCH  14  33
BRANCH   8  34
ATOM     34  O   UNL     1       4.725  -1.208   2.507  0.00  0.00    -0.492 OA
ATOM     35  H   UNL     1       5.085  -0.541   1.907  0.00  0.00    +0.294 HD
ENDBRANCH   8  34
TORSDOF 7
