REMARK  Name = ZINC39948135
REMARK  3 active torsions:
REMARK  status: ('A' for Active; 'I' for Inactive)
REMARK    1  A    between atoms: C_8  and  C_13
REMARK    2  A    between atoms: N_14  and  N_15
REMARK    3  A    between atoms: C_16  and  C_18
REMARK                            x       y       z     vdW  Elec       q    Type
REMARK                         _______ _______ _______ _____ _____    ______ ____
ROOT
ATOM      1  C   UNL     1      -0.016   1.354   0.009  0.00  0.00    +0.001 A 
ATOM      2  C   UNL     1       1.165   2.097   0.002  0.00  0.00    +0.002 A 
ATOM      3  C   UNL     1       2.394   1.518  -0.013  0.00  0.00    +0.024 A 
ATOM      4  C   UNL     1       2.524   0.117  -0.021  0.00  0.00    +0.040 A 
ATOM      5  N   UNL     1       3.736  -0.439  -0.035  0.00  0.00    -0.284 N 
ATOM      6  C   UNL     1       3.929  -1.747  -0.045  0.00  0.00    +0.229 C 
ATOM      7  O   UNL     1       5.060  -2.197  -0.058  0.00  0.00    -0.274 OA
ATOM      8  C   UNL     1       2.741  -2.681  -0.039  0.00  0.00    +0.141 C 
ATOM      9  C   UNL     1       1.361  -2.054  -0.022  0.00  0.00    +0.001 C 
ATOM     10  C   UNL     1       1.294  -0.692  -0.014  0.00  0.00    -0.007 A 
ATOM     11  C   UNL     1       0.002  -0.004   0.002  0.00  0.00    +0.009 A 
ATOM     12  H   UNL     1       4.511   0.143  -0.039  0.00  0.00    +0.155 HD
ENDROOT
BRANCH   8  13
ATOM     13  C   UNL     1       2.835  -3.557  -1.262  0.00  0.00    +0.120 C 
ATOM     14  N   UNL     1       2.914  -4.828  -1.135  0.00  0.00    -0.192 NA
BRANCH  14  15
ATOM     15  N   UNL     1       3.002  -5.642  -2.272  0.00  0.00    -0.207 N 
ATOM     16  C   UNL     1       3.085  -6.981  -2.137  0.00  0.00    +0.235 C 
ATOM     17  O   UNL     1       3.084  -7.481  -1.032  0.00  0.00    -0.274 OA
ATOM     18  H   UNL     1       3.002  -5.242  -3.155  0.00  0.00    +0.177 HD
BRANCH  16  19
ATOM     19  C   UNL     1       3.179  -7.856  -3.360  0.00  0.00    +0.077 C 
ATOM     20  C   UNL     1       1.940  -7.649  -4.233  0.00  0.00    +0.013 C 
ATOM     21  C   UNL     1       2.035  -8.537  -5.474  0.00  0.00    +0.001 C 
ATOM     22  C   UNL     1       2.118 -10.004  -5.047  0.00  0.00    +0.000 C 
ATOM     23  C   UNL     1       3.358 -10.211  -4.174  0.00  0.00    +0.001 C 
ATOM     24  C   UNL     1       3.262  -9.323  -2.933  0.00  0.00    +0.013 C 
ENDBRANCH  16  19
ENDBRANCH  14  15
ENDBRANCH   8  13
TORSDOF 3
