REMARK  Name = ZINC01129103
REMARK  7 active torsions:
REMARK  status: ('A' for Active; 'I' for Inactive)
REMARK    1  A    between atoms: C_1  and  C_2
REMARK    2  A    between atoms: C_7  and  N_8
REMARK    3  A    between atoms: C_11  and  C_17
REMARK    4  A    between atoms: C_11  and  C_25
REMARK    5  A    between atoms: C_17  and  C_18
REMARK    6  A    between atoms: C_18  and  C_19
REMARK    7  A    between atoms: C_25  and  C_26
REMARK                            x       y       z     vdW  Elec       q    Type
REMARK                         _______ _______ _______ _____ _____    ______ ____
ROOT
ATOM      1  N   UNL     1       1.443   1.394   2.676  0.00  0.00    -0.193 N 
ATOM      2  C   UNL     1       2.386   2.347   2.521  0.00  0.00    +0.243 C 
ATOM      3  O   UNL     1       2.092   3.523   2.484  0.00  0.00    -0.274 OA
ATOM      4  C   UNL     1       3.828   1.893   2.399  0.00  0.00    +0.128 C 
ATOM      5  C   UNL     1       4.066   0.396   2.454  0.00  0.00    +0.236 C 
ATOM      6  O   UNL     1       5.183  -0.067   2.360  0.00  0.00    -0.274 OA
ATOM      7  N   UNL     1       2.989  -0.402   2.610  0.00  0.00    -0.239 N 
ATOM      8  C   UNL     1       1.750   0.093   2.713  0.00  0.00    +0.319 C 
ATOM      9  O   UNL     1       0.838  -0.698   2.852  0.00  0.00    -0.251 OA
ATOM     10  H   UNL     1       3.116  -1.363   2.648  0.00  0.00    +0.159 HD
ENDROOT
BRANCH   1  17
ATOM     11  C   UNL     1      -0.170   1.404   0.331  0.00  0.00    +0.045 C 
ATOM     12  C   UNL     1      -0.721   1.798   1.678  0.00  0.00    -0.029 A 
ATOM     13  C   UNL     1      -2.042   2.183   1.798  0.00  0.00    +0.005 A 
ATOM     14  C   UNL     1      -2.550   2.539   3.034  0.00  0.00    +0.000 A 
ATOM     15  C   UNL     1      -1.734   2.522   4.151  0.00  0.00    +0.002 A 
ATOM     16  C   UNL     1      -0.411   2.143   4.035  0.00  0.00    +0.024 A 
ATOM     17  C   UNL     1       0.100   1.780   2.797  0.00  0.00    +0.048 A 
ENDBRANCH   1  17
BRANCH   4  18
ATOM     18  C   UNL     1       4.376   2.414   1.069  0.00  0.00    +0.030 C 
BRANCH  18  19
ATOM     19  C   UNL     1       3.718   1.655  -0.086  0.00  0.00    +0.037 C 
BRANCH  19  20
ATOM     20  C   UNL     1       4.276   2.151  -1.395  0.00  0.00    -0.044 A 
ATOM     21  C   UNL     1       3.677   3.205  -2.068  0.00  0.00    +0.023 A 
ATOM     22  C   UNL     1       4.219   3.635  -3.264  0.00  0.00    +0.111 A 
ATOM     23  N   UNL     1       5.286   3.049  -3.771  0.00  0.00    -0.263 NA
ATOM     24  C   UNL     1       5.879   2.041  -3.161  0.00  0.00    +0.111 A 
ATOM     25  C   UNL     1       5.396   1.560  -1.959  0.00  0.00    +0.023 A 
ENDBRANCH  19  20
ENDBRANCH  18  19
ENDBRANCH   4  18
BRANCH   4  26
ATOM     26  C   UNL     1       4.634   2.545   3.524  0.00  0.00    +0.060 C 
BRANCH  26  27
ATOM     27  C   UNL     1       4.179   1.995   4.851  0.00  0.00    -0.042 A 
ATOM     28  C   UNL     1       4.788   0.871   5.378  0.00  0.00    +0.007 A 
ATOM     29  C   UNL     1       4.375   0.364   6.596  0.00  0.00    +0.050 A 
ATOM     30  C   UNL     1       3.347   0.981   7.291  0.00  0.00    +0.166 A 
ATOM     31  C   UNL     1       2.734   2.113   6.761  0.00  0.00    +0.166 A 
ATOM     32  C   UNL     1       3.157   2.619   5.542  0.00  0.00    +0.053 A 
ATOM     33  O   UNL     1       1.763   2.529   7.625  0.00  0.00    -0.453 OA
ATOM     34  C   UNL     1       1.514   1.406   8.492  0.00  0.00    +0.466 C 
ATOM     35  O   UNL     1       2.761   0.688   8.489  0.00  0.00    -0.453 OA
ENDBRANCH  26  27
ENDBRANCH   4  26
TORSDOF 6
