REMARK  Name = ZINC09586375
REMARK  8 active torsions:
REMARK  status: ('A' for Active; 'I' for Inactive)
REMARK    1  A    between atoms: C_4  and  N_7
REMARK    2  A    between atoms: C_9  and  C_14
REMARK    3  A    between atoms: N_16  and  C_17
REMARK    4  A    between atoms: C_17  and  C_18
REMARK    5  A    between atoms: C_18  and  N_65
REMARK    6  A    between atoms: C_24  and  C_26
REMARK    7  A    between atoms: C_27  and  C_28
REMARK    8  A    between atoms: C_31  and  N_34
REMARK                            x       y       z     vdW  Elec       q    Type
REMARK                         _______ _______ _______ _____ _____    ______ ____
ROOT
ATOM      1  C   UNL     1       2.486   5.320   0.843  0.00  0.00    -0.059 C 
ATOM      2  C   UNL     1       2.496   4.217  -0.221  0.00  0.00    +0.089 C 
ATOM      3  N   UNL     1       1.244   3.453  -0.114  0.00  0.00    -0.302 N 
ATOM      4  C   UNL     1      -0.026   4.196  -0.112  0.00  0.00    +0.089 C 
ATOM      5  C   UNL     1       0.064   5.300   0.954  0.00  0.00    -0.059 C 
ATOM      6  C   UNL     1       1.259   2.108  -0.026  0.00  0.00    +0.239 C 
ATOM      7  O   UNL     1       2.318   1.516   0.065  0.00  0.00    -0.271 OA
ATOM      8  N   UNL     1       1.258   6.128   0.677  0.00  0.00    +0.383 N 
ATOM      9  H   UNL     1       1.211   6.468  -0.290  0.00  0.00    -0.082 HD
ENDROOT
BRANCH   6  10
ATOM     10  C   UNL     1       0.000   1.360  -0.039  0.00  0.00    +0.068 C 
ATOM     11  C   UNL     1       0.018   0.012  -0.052  0.00  0.00    +0.013 C 
BRANCH  11  12
ATOM     12  C   UNL     1      -1.247  -0.741  -0.065  0.00  0.00    -0.025 A 
ATOM     13  C   UNL     1      -2.469  -0.061  -0.059  0.00  0.00    +0.010 A 
ATOM     14  C   UNL     1      -3.650  -0.773  -0.077  0.00  0.00    +0.033 A 
ATOM     15  C   UNL     1      -3.627  -2.157  -0.091  0.00  0.00    +0.126 A 
ATOM     16  C   UNL     1      -2.422  -2.837  -0.091  0.00  0.00    +0.033 A 
ATOM     17  C   UNL     1      -1.233  -2.139  -0.078  0.00  0.00    +0.010 A 
BRANCH  15  18
ATOM     18  N   UNL     1      -4.899  -2.914  -0.104  0.00  0.00    +0.056 N 
ATOM     19  O   UNL     1      -4.883  -4.132  -0.116  0.00  0.00    -0.126 OA
ATOM     20  O   UNL     1      -5.962  -2.319  -0.104  0.00  0.00    -0.126 OA
ENDBRANCH  15  18
ENDBRANCH  11  12
ENDBRANCH   6  10
BRANCH   8  21
ATOM     21  C   UNL     1       1.291   7.288   1.592  0.00  0.00    -0.060 C 
BRANCH  21  22
ATOM     22  C   UNL     1       0.127   8.219   1.247  0.00  0.00    +0.085 C 
BRANCH  22  25
ATOM     23  C   UNL     1      -0.778  10.349   2.010  0.00  0.00    +0.218 C 
ATOM     24  O   UNL     1      -1.646  10.248   1.169  0.00  0.00    -0.275 OA
ATOM     25  N   UNL     1       0.158   9.387   2.131  0.00  0.00    -0.317 N 
ATOM     26  H   UNL     1       0.852   9.468   2.804  0.00  0.00    +0.149 HD
BRANCH  23  29
ATOM     27  N   UNL     1      -2.337  13.055   3.897  0.00  0.00    -0.271 N 
ATOM     28  C   UNL     1      -1.909  12.516   2.601  0.00  0.00    +0.127 C 
ATOM     29  C   UNL     1      -0.746  11.550   2.919  0.00  0.00    +0.101 C 
ATOM     30  C   UNL     1      -1.062  11.148   4.379  0.00  0.00    +0.110 C 
ATOM     31  C   UNL     1      -1.880  12.303   4.913  0.00  0.00    +0.221 C 
ATOM     32  O   UNL     1      -2.093  12.518   6.088  0.00  0.00    -0.275 OA
BRANCH  27  36
ATOM     33  C   UNL     1      -4.670  16.475   4.367  0.00  0.00    +0.000 A 
ATOM     34  C   UNL     1      -4.413  15.983   3.100  0.00  0.00    +0.002 A 
ATOM     35  C   UNL     1      -3.640  14.850   2.941  0.00  0.00    +0.023 A 
ATOM     36  C   UNL     1      -3.121  14.203   4.055  0.00  0.00    +0.036 A 
ATOM     37  C   UNL     1      -3.385  14.696   5.326  0.00  0.00    +0.023 A 
ATOM     38  C   UNL     1      -4.154  15.833   5.478  0.00  0.00    +0.002 A 
ENDBRANCH  27  36
ENDBRANCH  23  29
ENDBRANCH  22  25
ENDBRANCH  21  22
ENDBRANCH   8  21
TORSDOF 8
