REMARK  Name = ZINC03561531
REMARK  10 active torsions:
REMARK  status: ('A' for Active; 'I' for Inactive)
REMARK    1  A    between atoms: C_1  and  C_2
REMARK    2  A    between atoms: C_2  and  C_3
REMARK    3  A    between atoms: C_2  and  C_4
REMARK    4  A    between atoms: C_2  and  O_26
REMARK    5  A    between atoms: N_6  and  C_7
REMARK    6  A    between atoms: C_7  and  C_8
REMARK    7  A    between atoms: C_8  and  N_9
REMARK    8  A    between atoms: C_13  and  C_14
REMARK    9  A    between atoms: C_17  and  N_20
REMARK   10  A    between atoms: O_26  and  C_27
REMARK                            x       y       z     vdW  Elec       q    Type
REMARK                         _______ _______ _______ _____ _____    ______ ____
ROOT
ATOM      1  C   UNL     1       4.863   8.350  -0.317  0.00  0.00    +0.136 C 
ENDROOT
BRANCH   1   2
ATOM      2  N   UNL     1       4.721   6.953  -0.734  0.00  0.00    -0.227 N 
ATOM      3  C   UNL     1       3.514   6.473  -0.982  0.00  0.00    +0.260 C 
ATOM      4  O   UNL     1       2.516   7.161  -0.872  0.00  0.00    -0.269 OA
ATOM      5  C   UNL     1       3.438   5.056  -1.398  0.00  0.00    +0.080 C 
ATOM      6  C   UNL     1       2.355   4.304  -1.713  0.00  0.00    +0.028 C 
ATOM      7  S   UNL     1       5.168   4.606  -1.366  0.00  0.00    -0.026 S 
ATOM      8  C   UNL     1       5.823   6.187  -0.857  0.00  0.00    +0.286 C 
ATOM      9  O   UNL     1       6.983   6.496  -0.663  0.00  0.00    -0.262 OA
BRANCH   6  10
ATOM     10  C   UNL     1       2.533   2.954  -2.266  0.00  0.00    -0.024 A 
ATOM     11  C   UNL     1       1.464   2.051  -2.275  0.00  0.00    +0.010 A 
ATOM     12  C   UNL     1       1.639   0.786  -2.796  0.00  0.00    +0.033 A 
ATOM     13  C   UNL     1       2.869   0.409  -3.309  0.00  0.00    +0.126 A 
ATOM     14  C   UNL     1       3.931   1.297  -3.305  0.00  0.00    +0.033 A 
ATOM     15  C   UNL     1       3.772   2.565  -2.787  0.00  0.00    +0.010 A 
BRANCH  13  16
ATOM     16  N   UNL     1       3.048  -0.950  -3.867  0.00  0.00    +0.056 N 
ATOM     17  O   UNL     1       2.115  -1.734  -3.873  0.00  0.00    -0.126 OA
ATOM     18  O   UNL     1       4.128  -1.285  -4.319  0.00  0.00    -0.126 OA
ENDBRANCH  13  16
ENDBRANCH   6  10
ENDBRANCH   1   2
BRANCH   1  19
ATOM     19  C   UNL     1       4.788   8.437   1.209  0.00  0.00    +0.124 C 
BRANCH  19  22
ATOM     20  C   UNL     1       4.896  10.154   2.934  0.00  0.00    +0.256 C 
ATOM     21  O   UNL     1       4.746   9.285   3.767  0.00  0.00    -0.271 OA
ATOM     22  N   UNL     1       4.931   9.835   1.625  0.00  0.00    -0.311 N 
ATOM     23  H   UNL     1       5.050  10.530   0.960  0.00  0.00    +0.149 HD
BRANCH  20  25
ATOM     24  C   UNL     1       6.392  12.131   2.887  0.00  0.00    +0.065 C 
ATOM     25  C   UNL     1       5.042  11.591   3.363  0.00  0.00    +0.180 C 
ATOM     26  C   UNL     1       3.915  12.424   2.749  0.00  0.00    +0.065 C 
BRANCH  25  27
ATOM     27  O   UNL     1       4.972  11.673   4.788  0.00  0.00    -0.477 OA
BRANCH  27  28
ATOM     28  C   UNL     1       5.955  11.050   5.491  0.00  0.00    +0.122 A 
ATOM     29  C   UNL     1       6.871  10.240   4.835  0.00  0.00    +0.047 A 
ATOM     30  C   UNL     1       7.872   9.612   5.550  0.00  0.00    +0.023 A 
ATOM     31  C   UNL     1       7.956   9.782   6.921  0.00  0.00    +0.041 A 
ATOM     32  C   UNL     1       7.040  10.586   7.577  0.00  0.00    +0.023 A 
ATOM     33  C   UNL     1       6.041  11.220   6.865  0.00  0.00    +0.047 A 
ATOM     34 CL   UNL     1       9.211   8.987   7.818  0.00  0.00    -0.084 Cl
ENDBRANCH  27  28
ENDBRANCH  25  27
ENDBRANCH  20  25
ENDBRANCH  19  22
ENDBRANCH   1  19
TORSDOF 8
