REMARK  Name = ZINC16632313
REMARK  7 active torsions:
REMARK  status: ('A' for Active; 'I' for Inactive)
REMARK    1  A    between atoms: C_1  and  N_41
REMARK    2  A    between atoms: C_2  and  C_3
REMARK    3  A    between atoms: C_2  and  N_41
REMARK    4  A    between atoms: C_11  and  C_12
REMARK    5  A    between atoms: C_11  and  N_41
REMARK    6  A    between atoms: N_14  and  N_15
REMARK    7  A    between atoms: C_16  and  C_18
REMARK                            x       y       z     vdW  Elec       q    Type
REMARK                         _______ _______ _______ _____ _____    ______ ____
ROOT
ATOM      1  C   UNL     1       1.396   1.986  -0.001  0.00  0.00    +0.213 C 
ATOM      2  O   UNL     1       2.328   1.211  -0.014  0.00  0.00    -0.276 OA
ATOM      3  N   UNL     1       1.624   3.315   0.004  0.00  0.00    -0.236 N 
ATOM      4  H   UNL     1       0.878   3.935   0.015  0.00  0.00    +0.173 HD
ENDROOT
BRANCH   3   5
ATOM      5  N   UNL     1       2.939   3.800  -0.006  0.00  0.00    -0.230 N 
ATOM      6  C   UNL     1       3.167   5.128  -0.001  0.00  0.00    +0.261 C 
ATOM      7  O   UNL     1       2.232   5.905   0.013  0.00  0.00    -0.269 OA
ATOM      8  H   UNL     1       3.684   3.179  -0.016  0.00  0.00    +0.173 HD
BRANCH   6   9
ATOM      9  C   UNL     1       4.553   5.639  -0.011  0.00  0.00    +0.052 A 
ATOM     10  C   UNL     1       5.629   4.750  -0.020  0.00  0.00    +0.014 A 
ATOM     11  C   UNL     1       6.920   5.233  -0.035  0.00  0.00    +0.001 A 
ATOM     12  C   UNL     1       7.152   6.598  -0.030  0.00  0.00    +0.001 A 
ATOM     13  C   UNL     1       6.092   7.486  -0.016  0.00  0.00    +0.016 A 
ATOM     14  C   UNL     1       4.794   7.015  -0.006  0.00  0.00    +0.030 A 
ATOM     15 BR   UNL     1       3.345   8.230   0.015  0.00  0.00    -0.050 Br
ENDBRANCH   6   9
ENDBRANCH   3   5
BRANCH   1  16
ATOM     16  C   UNL     1      -0.018   1.465   0.010  0.00  0.00    +0.020 C 
BRANCH  16  18
ATOM     17  C   UNL     1       0.578  -0.530   1.247  0.00  0.00    -0.095 C 
ATOM     18  N   UNL     1       0.019  -0.013  -0.020  0.00  0.00    +0.386 N 
ATOM     19  H   UNL     1       0.618  -0.316  -0.797  0.00  0.00    -0.081 HD
BRANCH  18  20
ATOM     20  C   UNL     1      -1.343  -0.548  -0.226  0.00  0.00    -0.043 C 
BRANCH  20  21
ATOM     21  C   UNL     1      -1.251  -2.031  -0.472  0.00  0.00    -0.062 A 
ATOM     22  C   UNL     1      -1.096  -2.510  -1.760  0.00  0.00    +0.003 A 
ATOM     23  C   UNL     1      -1.006  -3.870  -1.987  0.00  0.00    +0.021 A 
ATOM     24  C   UNL     1      -1.081  -4.755  -0.926  0.00  0.00    +0.059 A 
ATOM     25  C   UNL     1      -1.241  -4.276   0.363  0.00  0.00    +0.059 A 
ATOM     26  C   UNL     1      -1.326  -2.914   0.589  0.00  0.00    +0.023 A 
ATOM     27 CL   UNL     1      -1.334  -5.384   1.696  0.00  0.00    -0.082 Cl
ATOM     28 CL   UNL     1      -0.973  -6.464  -1.211  0.00  0.00    -0.082 Cl
ENDBRANCH  20  21
ENDBRANCH  18  20
ENDBRANCH  16  18
ENDBRANCH   1  16
TORSDOF 6
