REMARK  Name = ZINC51730350
REMARK  4 active torsions:
REMARK  status: ('A' for Active; 'I' for Inactive)
REMARK    1  A    between atoms: C_1  and  C_2
REMARK    2  A    between atoms: N_6  and  C_11
REMARK    3  A    between atoms: C_7  and  C_10
REMARK    4  A    between atoms: C_16  and  N_17
REMARK                            x       y       z     vdW  Elec       q    Type
REMARK                         _______ _______ _______ _____ _____    ______ ____
ROOT
ATOM      1  C   UNL     1      -1.080  -3.496   1.983  0.00  0.00    +0.053 A 
ATOM      2  C   UNL     1      -0.920  -4.849   1.736  0.00  0.00    +0.048 A 
ATOM      3  C   UNL     1      -1.418  -5.789   2.635  0.00  0.00    +0.039 A 
ATOM      4  C   UNL     1      -2.075  -5.350   3.778  0.00  0.00    -0.016 A 
ATOM      5  C   UNL     1      -2.236  -4.004   4.029  0.00  0.00    +0.030 A 
ATOM      6  C   UNL     1      -1.736  -3.067   3.137  0.00  0.00    +0.046 A 
ATOM      7  C   UNL     1      -2.488  -6.591   4.535  0.00  0.00    +0.133 C 
ATOM      8  C   UNL     1      -1.984  -7.732   3.677  0.00  0.00    +0.222 C 
ATOM      9  O   UNL     1      -2.102  -8.916   3.911  0.00  0.00    -0.275 OA
ATOM     10  N   UNL     1      -1.383  -7.186   2.606  0.00  0.00    -0.285 N 
ATOM     11  H   UNL     1      -0.971  -7.702   1.896  0.00  0.00    +0.155 HD
ENDROOT
BRANCH   1  16
ATOM     12  C   UNL     1      -0.019   1.526   0.010  0.00  0.00    +0.007 C 
ATOM     13  C   UNL     1       0.002  -0.004   0.002  0.00  0.00    -0.011 C 
ATOM     14  C   UNL     1      -1.434  -0.533   0.012  0.00  0.00    +0.022 C 
ATOM     15  C   UNL     1      -1.409  -2.065  -0.031  0.00  0.00    +0.106 C 
ATOM     16  N   UNL     1      -0.577  -2.556   1.075  0.00  0.00    -0.326 N 
ATOM     17  C   UNL     1       0.792  -2.042   1.212  0.00  0.00    +0.071 C 
ATOM     18  C   UNL     1       0.743  -0.511   1.242  0.00  0.00    +0.025 C 
ATOM     19  C   UNL     1       1.409  -2.563   2.511  0.00  0.00    +0.028 C 
ENDBRANCH   1  16
BRANCH   6  20
ATOM     20  N   UNL     1      -1.893  -1.697   3.391  0.00  0.00    -0.357 N 
ATOM     21  H   UNL     1      -1.545  -1.045   2.763  0.00  0.00    +0.142 HD
ATOM     22  H   UNL     1      -2.349  -1.402   4.194  0.00  0.00    +0.142 HD
ENDBRANCH   6  20
TORSDOF 2
