REMARK  Name = ZINC64230988
REMARK  8 active torsions:
REMARK  status: ('A' for Active; 'I' for Inactive)
REMARK    1  A    between atoms: C_1  and  C_2
REMARK    2  A    between atoms: C_2  and  C_4
REMARK    3  A    between atoms: C_2  and  O_7
REMARK    4  A    between atoms: O_7  and  C_8
REMARK    5  A    between atoms: C_8  and  C_10
REMARK    6  A    between atoms: C_13  and  N_16
REMARK    7  A    between atoms: N_16  and  S_17
REMARK    8  A    between atoms: S_17  and  C_20
REMARK                            x       y       z     vdW  Elec       q    Type
REMARK                         _______ _______ _______ _____ _____    ______ ____
ROOT
ATOM      1  N   UNL     1       4.996  -2.522   5.454  0.00  0.00    -0.216 N 
ATOM      2  H   UNL     1       4.883  -2.111   6.325  0.00  0.00    +0.174 HD
ENDROOT
BRANCH   1   6
ATOM      3  C   UNL     1       2.870  -1.082   2.185  0.00  0.00    +0.059 A 
ATOM      4  C   UNL     1       2.218  -1.304   3.402  0.00  0.00    +0.017 A 
ATOM      5  C   UNL     1       2.922  -1.780   4.478  0.00  0.00    +0.025 A 
ATOM      6  C   UNL     1       4.285  -2.041   4.361  0.00  0.00    +0.048 A 
ATOM      7  C   UNL     1       4.937  -1.821   3.150  0.00  0.00    +0.025 A 
ATOM      8  C   UNL     1       4.238  -1.351   2.068  0.00  0.00    +0.017 A 
BRANCH   3   9
ATOM      9  C   UNL     1       2.117  -0.572   1.026  0.00  0.00    +0.340 C 
ATOM     10  O   UNL     1       2.683  -0.384  -0.033  0.00  0.00    -0.245 OA
BRANCH   9  11
ATOM     11  O   UNL     1       0.799  -0.313   1.140  0.00  0.00    -0.449 OA
BRANCH  11  13
ATOM     12  C   UNL     1       0.194   1.708  -0.038  0.00  0.00    +0.062 C 
ATOM     13  C   UNL     1       0.132   0.179  -0.024  0.00  0.00    +0.259 C 
BRANCH  13  14
ATOM     14  C   UNL     1      -1.308  -0.265  -0.003  0.00  0.00    +0.251 C 
ATOM     15  O   UNL     1      -1.746  -0.859   0.959  0.00  0.00    -0.272 OA
ATOM     16  N   UNL     1      -2.110  -0.002  -1.054  0.00  0.00    -0.326 N 
ATOM     17  H   UNL     1      -1.760   0.473  -1.824  0.00  0.00    +0.145 HD
ATOM     18  H   UNL     1      -3.037  -0.288  -1.041  0.00  0.00    +0.145 HD
ENDBRANCH  13  14
ENDBRANCH  11  13
ENDBRANCH   9  11
ENDBRANCH   3   9
ENDBRANCH   1   6
BRANCH   1  19
ATOM     19  S   UNL     1       6.036  -3.797   5.269  0.00  0.00    +0.072 S 
ATOM     20  O   UNL     1       6.902  -3.462   4.194  0.00  0.00    -0.150 OA
ATOM     21  O   UNL     1       6.521  -4.117   6.566  0.00  0.00    -0.150 OA
BRANCH  19  22
ATOM     22  C   UNL     1       5.079  -5.177   4.735  0.00  0.00    +0.110 A 
ATOM     23  C   UNL     1       4.402  -5.997   5.733  0.00  0.00    +0.031 A 
ATOM     24  C   UNL     1       3.653  -7.067   5.391  0.00  0.00    +0.027 A 
ATOM     25  C   UNL     1       3.509  -7.426   3.982  0.00  0.00    +0.056 A 
ATOM     26  N   UNL     1       2.878  -8.369   3.329  0.00  0.00    -0.268 N 
ATOM     27  C   UNL     1       3.113  -8.199   1.985  0.00  0.00    +0.308 C 
ATOM     28  O   UNL     1       2.672  -8.906   1.105  0.00  0.00    -0.252 OA
ATOM     29  N   UNL     1       3.923  -7.105   1.789  0.00  0.00    -0.267 N 
ATOM     30  C   UNL     1       4.204  -6.584   2.957  0.00  0.00    +0.058 A 
ATOM     31  C   UNL     1       4.991  -5.440   3.413  0.00  0.00    +0.054 A 
ATOM     32  H   UNL     1       4.233  -6.775   0.931  0.00  0.00    +0.156 HD
ATOM     33  H   UNL     1       2.337  -9.070   3.726  0.00  0.00    +0.156 HD
ENDBRANCH  19  22
ENDBRANCH   1  19
TORSDOF 7
