REMARK  Name = ZINC33450747
REMARK  10 active torsions:
REMARK  status: ('A' for Active; 'I' for Inactive)
REMARK    1  A    between atoms: C_1  and  C_2
REMARK    2  A    between atoms: C_2  and  C_3
REMARK    3  A    between atoms: C_3  and  C_5
REMARK    4  A    between atoms: C_3  and  N_6
REMARK    5  A    between atoms: C_10  and  C_11
REMARK    6  A    between atoms: C_12  and  C_33
REMARK    7  A    between atoms: C_13  and  C_31
REMARK    8  A    between atoms: N_16  and  C_30
REMARK    9  A    between atoms: C_17  and  N_18
REMARK   10  A    between atoms: N_21  and  C_24
REMARK                            x       y       z     vdW  Elec       q    Type
REMARK                         _______ _______ _______ _____ _____    ______ ____
ROOT
ATOM      1  C   UNL     1       0.054   4.072   0.150  0.00  0.00    +0.019 A 
ATOM      2  C   UNL     1       1.337   3.552  -0.089  0.00  0.00    -0.017 A 
ATOM      3  C   UNL     1       1.495   2.173  -0.197  0.00  0.00    +0.120 A 
ATOM      4  C   UNL     1       0.362   1.329  -0.063  0.00  0.00    +0.270 A 
ATOM      5  O   UNL     1       0.493   0.122  -0.156  0.00  0.00    -0.266 OA
ATOM      6  N   UNL     1      -0.856   1.853   0.161  0.00  0.00    -0.298 N 
ATOM      7  C   UNL     1      -1.035   3.194   0.276  0.00  0.00    +0.112 A 
ATOM      8  C   UNL     1      -2.011   0.960   0.290  0.00  0.00    +0.154 C 
ATOM      9  C   UNL     1       2.523   4.471  -0.228  0.00  0.00    +0.046 C 
ENDROOT
BRANCH   1  14
ATOM     10  N   UNL     1       0.911   8.002   2.743  0.00  0.00    -0.252 N 
ATOM     11  C   UNL     1       0.314   7.585   1.639  0.00  0.00    +0.259 C 
ATOM     12  O   UNL     1      -0.277   8.364   0.913  0.00  0.00    -0.269 OA
ATOM     13  C   UNL     1       0.380   6.193   1.327  0.00  0.00    +0.077 C 
ATOM     14  C   UNL     1      -0.145   5.518   0.268  0.00  0.00    +0.032 C 
ATOM     15  S   UNL     1       1.347   5.581   2.700  0.00  0.00    -0.061 S 
ATOM     16  C   UNL     1       1.573   7.139   3.544  0.00  0.00    +0.121 C 
ATOM     17  S   UNL     1       2.414   7.457   5.001  0.00  0.00    -0.027 S 
BRANCH  10  18
ATOM     18  C   UNL     1       0.859   9.422   3.098  0.00  0.00    +0.080 C 
ATOM     19  C   UNL     1       0.184   9.582   4.462  0.00  0.00    +0.028 C 
BRANCH  18  21
ATOM     20  C   UNL     1       2.913   9.938   1.771  0.00  0.00    +0.006 C 
ATOM     21  C   UNL     1       2.281   9.983   3.164  0.00  0.00    +0.019 C 
ENDBRANCH  18  21
ENDBRANCH  10  18
ENDBRANCH   1  14
BRANCH   7  22
ATOM     22  N   UNL     1      -2.283   3.693   0.508  0.00  0.00    -0.313 N 
ATOM     23  C   UNL     1      -2.750   4.495  -0.632  0.00  0.00    +0.125 C 
ATOM     24  C   UNL     1      -4.181   4.970  -0.366  0.00  0.00    +0.124 C 
ATOM     25  N   UNL     1      -4.211   5.756   0.875  0.00  0.00    -0.327 N 
ATOM     26  C   UNL     1      -3.744   4.954   2.015  0.00  0.00    +0.124 C 
ATOM     27  C   UNL     1      -2.313   4.480   1.749  0.00  0.00    +0.125 C 
BRANCH  25  28
ATOM     28  C   UNL     1      -5.489   6.267   1.113  0.00  0.00    +0.030 A 
ATOM     29  C   UNL     1      -6.141   5.983   2.306  0.00  0.00    +0.023 A 
ATOM     30  C   UNL     1      -7.403   6.494   2.540  0.00  0.00    +0.002 A 
ATOM     31  C   UNL     1      -8.021   7.279   1.584  0.00  0.00    +0.000 A 
ATOM     32  C   UNL     1      -7.377   7.559   0.393  0.00  0.00    +0.002 A 
ATOM     33  C   UNL     1      -6.113   7.055   0.155  0.00  0.00    +0.023 A 
ENDBRANCH  25  28
ENDBRANCH   7  22
BRANCH   3  34
ATOM     34  C   UNL     1       2.789   1.610  -0.441  0.00  0.00    +0.105 C 
ATOM     35  N   UNL     1       3.816   1.164  -0.634  0.00  0.00    -0.191 NA
ENDBRANCH   3  34
TORSDOF 6
