REMARK  Name = ZINC52099072
REMARK  5 active torsions:
REMARK  status: ('A' for Active; 'I' for Inactive)
REMARK    1  A    between atoms: C_1  and  C_2
REMARK    2  A    between atoms: C_3  and  C_9
REMARK    3  A    between atoms: C_7  and  N_8
REMARK    4  A    between atoms: C_9  and  N_10
REMARK    5  A    between atoms: C_18  and  C_21
REMARK                            x       y       z     vdW  Elec       q    Type
REMARK                         _______ _______ _______ _____ _____    ______ ____
ROOT
ATOM      1  N   UNL     1       1.405   0.162  -3.005  0.00  0.00    -0.301 N 
ATOM      2  C   UNL     1       2.038   1.314  -2.586  0.00  0.00    +0.071 A 
ATOM      3  C   UNL     1       1.373   2.226  -1.772  0.00  0.00    +0.028 A 
ATOM      4  C   UNL     1       2.015   3.373  -1.360  0.00  0.00    +0.002 A 
ATOM      5  C   UNL     1       3.323   3.628  -1.751  0.00  0.00    +0.002 A 
ATOM      6  C   UNL     1       3.995   2.748  -2.549  0.00  0.00    +0.030 A 
ATOM      7  C   UNL     1       3.364   1.572  -2.982  0.00  0.00    +0.088 A 
ATOM      8  N   UNL     1       4.025   0.702  -3.769  0.00  0.00    -0.245 NA
ATOM      9  C   UNL     1       3.457  -0.395  -4.183  0.00  0.00    +0.103 A 
ATOM     10  C   UNL     1       2.079  -0.707  -3.789  0.00  0.00    +0.273 A 
ATOM     11  O   UNL     1       1.548  -1.735  -4.170  0.00  0.00    -0.266 OA
ATOM     12  C   UNL     1       4.222  -1.350  -5.063  0.00  0.00    +0.071 C 
ENDROOT
BRANCH   1  13
ATOM     13  C   UNL     1       0.025  -0.118  -2.600  0.00  0.00    +0.161 C 
BRANCH  13  16
ATOM     14  C   UNL     1      -2.473  -0.677  -1.261  0.00  0.00    +0.046 C 
ATOM     15  C   UNL     1      -1.169  -1.096  -0.631  0.00  0.00    -0.025 A 
ATOM     16  C   UNL     1       0.025  -0.829  -1.272  0.00  0.00    -0.023 A 
ATOM     17  C   UNL     1       1.222  -1.214  -0.695  0.00  0.00    +0.006 A 
ATOM     18  C   UNL     1       1.226  -1.867   0.524  0.00  0.00    +0.002 A 
ATOM     19  C   UNL     1       0.036  -2.137   1.170  0.00  0.00    +0.023 A 
ATOM     20  C   UNL     1      -1.167  -1.747   0.596  0.00  0.00    +0.028 A 
BRANCH  20  21
ATOM     21  N   UNL     1      -2.373  -2.013   1.248  0.00  0.00    -0.358 N 
ATOM     22  H   UNL     1      -3.213  -1.744   0.845  0.00  0.00    +0.142 HD
ATOM     23  H   UNL     1      -2.371  -2.467   2.106  0.00  0.00    +0.142 HD
ENDBRANCH  20  21
ENDBRANCH  13  16
ENDBRANCH   1  13
TORSDOF 3
