REMARK  Name = ZINC39327573
REMARK  8 active torsions:
REMARK  status: ('A' for Active; 'I' for Inactive)
REMARK    1  A    between atoms: C_1  and  C_2
REMARK    2  A    between atoms: C_4  and  C_16
REMARK    3  A    between atoms: C_6  and  C_14
REMARK    4  A    between atoms: C_7  and  N_13
REMARK    5  A    between atoms: C_19  and  O_24
REMARK    6  A    between atoms: C_20  and  O_22
REMARK    7  A    between atoms: O_22  and  C_23
REMARK    8  A    between atoms: O_24  and  C_25
REMARK                            x       y       z     vdW  Elec       q    Type
REMARK                         _______ _______ _______ _____ _____    ______ ____
ROOT
ATOM      1  C   UNL     1       0.063   1.248   0.513  0.00  0.00    +0.067 C 
ATOM      2  C   UNL     1      -0.045  -0.254   0.466  0.00  0.00    +0.066 C 
ATOM      3  C   UNL     1      -1.158  -0.919   0.268  0.00  0.00    +0.030 C 
ATOM      4  C   UNL     1      -2.604  -0.515   0.171  0.00  0.00    +0.098 C 
ATOM      5  C   UNL     1      -3.372  -1.559   0.960  0.00  0.00    +0.097 C 
ATOM      6  C   UNL     1      -2.777  -2.679   1.422  0.00  0.00    +0.195 C 
ATOM      7  O   UNL     1      -1.481  -3.014   1.288  0.00  0.00    -0.448 OA
ATOM      8  C   UNL     1      -0.743  -2.390   0.234  0.00  0.00    +0.343 C 
ATOM      9  N   UNL     1       0.691  -2.309   0.534  0.00  0.00    -0.138 NA
ATOM     10  N   UNL     1       0.996  -1.113   0.617  0.00  0.00    -0.155 NA
ENDROOT
BRANCH   4  11
ATOM     11  C   UNL     1      -2.805   0.851   0.775  0.00  0.00    -0.031 A 
ATOM     12  C   UNL     1      -2.491   1.070   2.103  0.00  0.00    +0.008 A 
ATOM     13  C   UNL     1      -2.673   2.321   2.662  0.00  0.00    +0.050 A 
ATOM     14  C   UNL     1      -3.171   3.359   1.891  0.00  0.00    +0.162 A 
ATOM     15  C   UNL     1      -3.487   3.138   0.553  0.00  0.00    +0.162 A 
ATOM     16  C   UNL     1      -3.297   1.883  -0.002  0.00  0.00    +0.054 A 
BRANCH  15  17
ATOM     17  O   UNL     1      -3.976   4.153  -0.208  0.00  0.00    -0.491 OA
ATOM     18  C   UNL     1      -4.278   3.853  -1.572  0.00  0.00    +0.277 C 
ENDBRANCH  15  17
BRANCH  14  19
ATOM     19  O   UNL     1      -3.352   4.590   2.439  0.00  0.00    -0.485 OA
BRANCH  19  20
ATOM     20  C   UNL     1      -2.894   4.777   3.780  0.00  0.00    +0.174 C 
ATOM     21  C   UNL     1      -3.996   4.361   4.777  0.00  0.00    +0.044 C 
ATOM     22  C   UNL     1      -3.872   5.388   5.929  0.00  0.00    +0.004 C 
ATOM     23  C   UNL     1      -3.546   6.704   5.181  0.00  0.00    +0.004 C 
ATOM     24  C   UNL     1      -2.608   6.267   4.037  0.00  0.00    +0.044 C 
ENDBRANCH  19  20
ENDBRANCH  14  19
ENDBRANCH   4  11
BRANCH   6  25
ATOM     25  N   UNL     1      -3.576  -3.567   2.097  0.00  0.00    -0.329 N 
ATOM     26  H   UNL     1      -4.518  -3.374   2.221  0.00  0.00    +0.145 HD
ATOM     27  H   UNL     1      -3.199  -4.388   2.449  0.00  0.00    +0.145 HD
ENDBRANCH   6  25
BRANCH   5  28
ATOM     28  C   UNL     1      -4.764  -1.350   1.222  0.00  0.00    +0.101 C 
ATOM     29  N   UNL     1      -5.869  -1.185   1.430  0.00  0.00    -0.191 NA
ENDBRANCH   5  28
TORSDOF 6
