REMARK  Name = ZINC22561083
REMARK  7 active torsions:
REMARK  status: ('A' for Active; 'I' for Inactive)
REMARK    1  A    between atoms: C_1  and  C_2
REMARK    2  A    between atoms: N_10  and  C_13
REMARK    3  A    between atoms: C_13  and  C_14
REMARK    4  A    between atoms: C_14  and  C_15
REMARK    5  A    between atoms: C_15  and  C_16
REMARK    6  A    between atoms: N_18  and  C_19
REMARK    7  A    between atoms: C_22  and  N_25
REMARK                            x       y       z     vdW  Elec       q    Type
REMARK                         _______ _______ _______ _____ _____    ______ ____
ROOT
ATOM      1  C   UNL     1       3.871  -4.723  -0.376  0.00  0.00    +0.029 C 
ENDROOT
BRANCH   1   2
ATOM      2  C   UNL     1       3.886  -6.248  -0.499  0.00  0.00    +0.117 C 
BRANCH   2  12
ATOM      3  C   UNL     1      10.912  -8.704   0.366  0.00  0.00    +0.044 C 
ATOM      4  C   UNL     1       9.636  -8.227  -0.278  0.00  0.00    -0.050 A 
ATOM      5  C   UNL     1       9.561  -8.117  -1.653  0.00  0.00    +0.004 A 
ATOM      6  C   UNL     1       8.393  -7.681  -2.261  0.00  0.00    +0.014 A 
ATOM      7  C   UNL     1       7.295  -7.354  -1.482  0.00  0.00    +0.049 A 
ATOM      8  C   UNL     1       7.371  -7.466  -0.079  0.00  0.00    +0.050 A 
ATOM      9  C   UNL     1       8.545  -7.904   0.514  0.00  0.00    +0.017 A 
ATOM     10  C   UNL     1       6.050  -7.046   0.433  0.00  0.00    +0.254 C 
ATOM     11  O   UNL     1       5.723  -7.005   1.602  0.00  0.00    -0.270 OA
ATOM     12  N   UNL     1       5.271  -6.715  -0.612  0.00  0.00    -0.234 N 
ATOM     13  C   UNL     1       5.928  -6.874  -1.775  0.00  0.00    +0.254 C 
ATOM     14  O   UNL     1       5.474  -6.658  -2.881  0.00  0.00    -0.270 OA
ENDBRANCH   2  12
ENDBRANCH   1   2
BRANCH   1  15
ATOM     15  C   UNL     1       2.425  -4.236  -0.258  0.00  0.00    +0.097 C 
BRANCH  15  16
ATOM     16  C   UNL     1       2.410  -2.734  -0.137  0.00  0.00    +0.217 C 
ATOM     17  O   UNL     1       3.452  -2.114  -0.144  0.00  0.00    -0.275 OA
ATOM     18  N   UNL     1       1.237  -2.079  -0.021  0.00  0.00    -0.285 N 
ATOM     19  H   UNL     1       0.298  -2.645   0.073  0.00  0.00    +0.155 HD
BRANCH  18  20
ATOM     20  C   UNL     1       1.214  -0.680  -0.019  0.00  0.00    +0.034 A 
ATOM     21  C   UNL     1       2.137   0.031  -0.774  0.00  0.00    +0.025 A 
ATOM     22  C   UNL     1       2.111   1.412  -0.771  0.00  0.00    +0.034 A 
ATOM     23  C   UNL     1       1.168   2.086  -0.017  0.00  0.00    +0.126 A 
ATOM     24  C   UNL     1       0.248   1.380   0.736  0.00  0.00    +0.034 A 
ATOM     25  C   UNL     1       0.268  -0.001   0.737  0.00  0.00    +0.025 A 
BRANCH  23  26
ATOM     26  N   UNL     1       1.144   3.566  -0.015  0.00  0.00    +0.056 N 
ATOM     27  O   UNL     1       1.954   4.189  -0.678  0.00  0.00    -0.126 OA
ATOM     28  O   UNL     1       0.314   4.161   0.649  0.00  0.00    -0.126 OA
ENDBRANCH  23  26
ENDBRANCH  18  20
ENDBRANCH  15  16
ENDBRANCH   1  15
TORSDOF 6
