REMARK  Name = ZINC46583320
REMARK  11 active torsions:
REMARK  status: ('A' for Active; 'I' for Inactive)
REMARK    1  A    between atoms: C_1  and  C_2
REMARK    2  A    between atoms: C_2  and  C_4
REMARK    3  A    between atoms: C_2  and  N_11
REMARK    4  A    between atoms: N_11  and  C_12
REMARK    5  A    between atoms: N_11  and  C_13
REMARK    6  A    between atoms: C_13  and  C_14
REMARK    7  A    between atoms: C_14  and  C_16
REMARK    8  A    between atoms: C_17  and  N_32
REMARK    9  A    between atoms: N_18  and  C_25
REMARK   10  A    between atoms: N_21  and  C_24
REMARK   11  A    between atoms: C_25  and  C_26
REMARK                            x       y       z     vdW  Elec       q    Type
REMARK                         _______ _______ _______ _____ _____    ______ ____
ROOT
ATOM      1  C   UNL     1      -4.418  -0.102  -2.150  0.00  0.00    +0.118 A 
ATOM      2  C   UNL     1      -5.750  -0.552  -2.148  0.00  0.00    +0.116 A 
ATOM      3  N   UNL     1      -6.577  -0.172  -3.167  0.00  0.00    -0.277 N 
ATOM      4  C   UNL     1      -6.142   0.617  -4.161  0.00  0.00    +0.333 A 
ATOM      5  O   UNL     1      -6.917   0.927  -5.044  0.00  0.00    -0.246 OA
ATOM      6  N   UNL     1      -4.881   1.078  -4.216  0.00  0.00    -0.263 N 
ATOM      7  C   UNL     1      -3.988   0.765  -3.255  0.00  0.00    +0.269 A 
ATOM      8  O   UNL     1      -2.848   1.188  -3.304  0.00  0.00    -0.267 OA
ATOM      9  C   UNL     1      -4.473   1.936  -5.331  0.00  0.00    +0.157 C 
ENDROOT
BRANCH   2  10
ATOM     10  N   UNL     1      -6.207  -1.354  -1.149  0.00  0.00    -0.344 N 
ATOM     11  H   UNL     1      -5.639  -1.552  -0.388  0.00  0.00    +0.144 HD
ATOM     12  H   UNL     1      -7.102  -1.726  -1.197  0.00  0.00    +0.144 HD
ENDBRANCH   2  10
BRANCH   1  13
ATOM     13  C   UNL     1      -3.525  -0.467  -1.120  0.00  0.00    +0.155 C 
ATOM     14  O   UNL     1      -3.928  -1.090  -0.159  0.00  0.00    -0.294 OA
BRANCH  13  15
ATOM     15  C   UNL     1      -2.071  -0.083  -1.213  0.00  0.00    +0.003 C 
BRANCH  15  16
ATOM     16  N   UNL     1      -1.357  -0.575  -0.027  0.00  0.00    +0.387 N 
ATOM     17  C   UNL     1      -1.372  -2.044  -0.021  0.00  0.00    -0.095 C 
ATOM     18  H   UNL     1      -1.812  -0.231   0.806  0.00  0.00    -0.081 HD
BRANCH  16  20
ATOM     19  C   UNL     1       0.047   1.431  -0.064  0.00  0.00    -0.008 C 
ATOM     20  C   UNL     1       0.032  -0.099  -0.058  0.00  0.00    -0.041 C 
BRANCH  20  21
ATOM     21  C   UNL     1       0.764  -0.604   1.159  0.00  0.00    -0.061 A 
ATOM     22  C   UNL     1       0.127  -0.632   2.385  0.00  0.00    +0.003 A 
ATOM     23  C   UNL     1       0.797  -1.095   3.502  0.00  0.00    +0.020 A 
ATOM     24  C   UNL     1       2.106  -1.530   3.392  0.00  0.00    +0.041 A 
ATOM     25  C   UNL     1       2.743  -1.502   2.164  0.00  0.00    +0.020 A 
ATOM     26  C   UNL     1       2.069  -1.044   1.047  0.00  0.00    +0.003 A 
ATOM     27 CL   UNL     1       2.949  -2.111   4.794  0.00  0.00    -0.084 Cl
ENDBRANCH  20  21
ENDBRANCH  16  20
ENDBRANCH  15  16
ENDBRANCH  13  15
ENDBRANCH   1  13
BRANCH   3  28
ATOM     28  C   UNL     1      -7.966  -0.636  -3.174  0.00  0.00    +0.163 C 
BRANCH  28  29
ATOM     29  C   UNL     1      -8.830   0.353  -2.434  0.00  0.00    -0.028 A 
ATOM     30  C   UNL     1      -9.028   0.215  -1.073  0.00  0.00    +0.005 A 
ATOM     31  C   UNL     1      -9.820   1.122  -0.394  0.00  0.00    +0.000 A 
ATOM     32  C   UNL     1     -10.414   2.167  -1.076  0.00  0.00    +0.000 A 
ATOM     33  C   UNL     1     -10.215   2.306  -2.437  0.00  0.00    +0.000 A 
ATOM     34  C   UNL     1      -9.419   1.402  -3.115  0.00  0.00    +0.005 A 
ENDBRANCH  28  29
ENDBRANCH   3  28
TORSDOF 8
