REMARK  Name = ZINC20207908
REMARK  11 active torsions:
REMARK  status: ('A' for Active; 'I' for Inactive)
REMARK    1  A    between atoms: C_1  and  O_2
REMARK    2  A    between atoms: O_2  and  C_3
REMARK    3  A    between atoms: C_7  and  O_9
REMARK    4  A    between atoms: O_9  and  C_10
REMARK    5  A    between atoms: C_10  and  C_11
REMARK    6  A    between atoms: C_11  and  C_12
REMARK    7  A    between atoms: C_12  and  O_13
REMARK    8  A    between atoms: O_13  and  C_14
REMARK    9  A    between atoms: C_17  and  C_20
REMARK   10  A    between atoms: C_30  and  S_32
REMARK   11  A    between atoms: S_32  and  C_35
REMARK                            x       y       z     vdW  Elec       q    Type
REMARK                         _______ _______ _______ _____ _____    ______ ____
ROOT
ATOM      1  C   UNL     1       3.361  -9.069   5.280  0.00  0.00    +0.121 A 
ATOM      2  C   UNL     1       4.164  -8.389   6.191  0.00  0.00    +0.046 A 
ATOM      3  C   UNL     1       4.719  -9.056   7.246  0.00  0.00    +0.011 A 
ATOM      4  C   UNL     1       4.479 -10.428   7.410  0.00  0.00    -0.024 A 
ATOM      5  C   UNL     1       3.668 -11.107   6.489  0.00  0.00    +0.011 A 
ATOM      6  C   UNL     1       3.114 -10.428   5.441  0.00  0.00    +0.046 A 
ENDROOT
BRANCH   4   7
ATOM      7  C   UNL     1       5.072 -11.148   8.539  0.00  0.00    +0.024 C 
ATOM      8  C   UNL     1       5.263 -10.506   9.742  0.00  0.00    +0.081 C 
ATOM      9  C   UNL     1       4.718  -9.143   9.999  0.00  0.00    +0.153 C 
ATOM     10  N   UNL     1       3.597  -8.710   9.488  0.00  0.00    -0.283 NA
ATOM     11  N   UNL     1       5.533  -8.365  10.850  0.00  0.00    -0.150 N 
ATOM     12  C   UNL     1       6.386  -9.035  11.700  0.00  0.00    +0.182 C 
ATOM     13  N   UNL     1       6.610 -10.324  11.754  0.00  0.00    -0.152 NA
ATOM     14  C   UNL     1       6.017 -11.136  10.854  0.00  0.00    +0.273 C 
ATOM     15  O   UNL     1       6.100 -12.350  10.948  0.00  0.00    -0.268 OA
ATOM     16  S   UNL     1       7.086  -7.708  12.646  0.00  0.00    -0.015 S 
ATOM     17  C   UNL     1       6.282  -6.361  11.789  0.00  0.00    +0.235 C 
ATOM     18  N   UNL     1       5.545  -6.989  10.918  0.00  0.00    -0.145 NA
ATOM     19  H   UNL     1       3.287  -7.813   9.688  0.00  0.00    +0.188 HD
BRANCH  17  20
ATOM     20  S   UNL     1       6.446  -4.627  12.054  0.00  0.00    +0.019 S 
ATOM     21  O   UNL     1       7.780  -4.454  12.511  0.00  0.00    -0.168 OA
ATOM     22  O   UNL     1       6.013  -4.031  10.839  0.00  0.00    -0.168 OA
ATOM     23  C   UNL     1       5.276  -4.247  13.388  0.00  0.00    +0.202 C 
ENDBRANCH  17  20
ENDBRANCH   4   7
BRANCH   1  24
ATOM     24  O   UNL     1       2.812  -8.402   4.234  0.00  0.00    -0.492 OA
BRANCH  24  25
ATOM     25  C   UNL     1       3.106  -7.007   4.128  0.00  0.00    +0.232 C 
BRANCH  25  26
ATOM     26  C   UNL     1       2.405  -6.431   2.896  0.00  0.00    +0.082 C 
BRANCH  26  27
ATOM     27  C   UNL     1       2.720  -4.938   2.782  0.00  0.00    +0.232 C 
BRANCH  27  28
ATOM     28  O   UNL     1       2.065  -4.399   1.632  0.00  0.00    -0.492 OA
BRANCH  28  33
ATOM     29  C   UNL     1       1.820  -1.136   0.034  0.00  0.00    +0.124 A 
ATOM     30  C   UNL     1       2.610  -0.375   0.885  0.00  0.00    +0.046 A 
ATOM     31  C   UNL     1       3.212  -0.963   1.980  0.00  0.00    +0.007 A 
ATOM     32  C   UNL     1       3.031  -2.310   2.231  0.00  0.00    +0.046 A 
ATOM     33  C   UNL     1       2.243  -3.075   1.384  0.00  0.00    +0.124 A 
ATOM     34  C   UNL     1       1.632  -2.486   0.288  0.00  0.00    +0.091 A 
BRANCH  29  36
ATOM     35  C   UNL     1       1.465   0.838  -1.242  0.00  0.00    +0.277 C 
ATOM     36  O   UNL     1       1.227  -0.557  -1.043  0.00  0.00    -0.495 OA
ENDBRANCH  29  36
ENDBRANCH  28  33
ENDBRANCH  27  28
ENDBRANCH  26  27
ENDBRANCH  25  26
ENDBRANCH  24  25
ENDBRANCH   1  24
TORSDOF 9
