REMARK  Name = ZINC04569032
REMARK  12 active torsions:
REMARK  status: ('A' for Active; 'I' for Inactive)
REMARK    1  A    between atoms: C_1  and  C_2
REMARK    2  A    between atoms: C_2  and  C_3
REMARK    3  A    between atoms: C_3  and  C_5
REMARK    4  A    between atoms: C_3  and  C_6
REMARK    5  A    between atoms: C_9  and  O_12
REMARK    6  A    between atoms: O_12  and  C_13
REMARK    7  A    between atoms: C_15  and  N_28
REMARK    8  A    between atoms: C_17  and  O_27
REMARK    9  A    between atoms: C_19  and  O_26
REMARK   10  A    between atoms: C_21  and  C_24
REMARK   11  A    between atoms: C_24  and  O_25
REMARK   12  A    between atoms: C_29  and  C_31
REMARK                            x       y       z     vdW  Elec       q    Type
REMARK                         _______ _______ _______ _____ _____    ______ ____
ROOT
ATOM      1  C   UNL     1       2.736   0.729  -1.443  0.00  0.00    +0.331 C 
ATOM      2  C   UNL     1       2.422   1.183  -0.015  0.00  0.00    +0.173 C 
ATOM      3  C   UNL     1       3.536   2.115   0.473  0.00  0.00    +0.172 C 
ATOM      4  C   UNL     1       3.662   3.293  -0.497  0.00  0.00    +0.176 C 
ATOM      5  C   UNL     1       3.929   2.758  -1.906  0.00  0.00    +0.179 C 
ATOM      6  O   UNL     1       2.872   1.875  -2.286  0.00  0.00    -0.332 OA
ENDROOT
BRANCH   2   7
ATOM      7  N   UNL     1       1.143   1.898   0.001  0.00  0.00    -0.304 N 
ATOM      8  C   UNL     1       0.383   1.894   1.114  0.00  0.00    +0.210 C 
ATOM      9  O   UNL     1       0.757   1.299   2.102  0.00  0.00    -0.276 OA
ATOM     10  C   UNL     1      -0.935   2.625   1.129  0.00  0.00    +0.109 C 
ATOM     11  H   UNL     1       0.844   2.375  -0.789  0.00  0.00    +0.149 HD
ENDBRANCH   2   7
BRANCH   4  12
ATOM     12  O   UNL     1       2.449   4.048  -0.493  0.00  0.00    -0.387 OA
ATOM     13  H   UNL     1       2.458   4.811  -1.086  0.00  0.00    +0.210 HD
ENDBRANCH   4  12
BRANCH   3  14
ATOM     14  O   UNL     1       3.215   2.600   1.779  0.00  0.00    -0.387 OA
ATOM     15  H   UNL     1       3.879   3.197   2.150  0.00  0.00    +0.210 HD
ENDBRANCH   3  14
BRANCH   1  16
ATOM     16  O   UNL     1       1.674  -0.095  -1.925  0.00  0.00    -0.462 OA
BRANCH  16  20
ATOM     17  C   UNL     1       2.318  -2.092  -5.477  0.00  0.00    -0.044 A 
ATOM     18  C   UNL     1       1.115  -2.239  -4.812  0.00  0.00    +0.007 A 
ATOM     19  C   UNL     1       0.897  -1.571  -3.622  0.00  0.00    +0.046 A 
ATOM     20  C   UNL     1       1.886  -0.753  -3.095  0.00  0.00    +0.124 A 
ATOM     21  C   UNL     1       3.090  -0.604  -3.768  0.00  0.00    +0.046 A 
ATOM     22  C   UNL     1       3.306  -1.278  -4.955  0.00  0.00    +0.007 A 
BRANCH  17  23
ATOM     23  C   UNL     1       2.554  -2.822  -6.775  0.00  0.00    +0.016 C 
ATOM     24  C   UNL     1       2.826  -1.808  -7.888  0.00  0.00    +0.012 C 
BRANCH  23  26
ATOM     25  C   UNL     1       3.924  -4.583  -7.899  0.00  0.00    +0.004 C 
ATOM     26  C   UNL     1       3.760  -3.751  -6.626  0.00  0.00    +0.004 C 
ENDBRANCH  23  26
ENDBRANCH  17  23
ENDBRANCH  16  20
ENDBRANCH   1  16
BRANCH   5  27
ATOM     27  C   UNL     1       3.997   3.926  -2.891  0.00  0.00    +0.190 C 
BRANCH  27  28
ATOM     28  O   UNL     1       4.360   3.438  -4.184  0.00  0.00    -0.392 OA
ATOM     29  H   UNL     1       4.423   4.126  -4.861  0.00  0.00    +0.210 HD
ENDBRANCH  27  28
ENDBRANCH   5  27
TORSDOF 9
