REMARK  Name = ZINC44452612
REMARK  5 active torsions:
REMARK  status: ('A' for Active; 'I' for Inactive)
REMARK    1  A    between atoms: C_6  and  O_7
REMARK    2  A    between atoms: O_7  and  C_8
REMARK    3  A    between atoms: C_8  and  C_9
REMARK    4  A    between atoms: N_11  and  C_12
REMARK    5  A    between atoms: C_13  and  C_20
REMARK                            x       y       z     vdW  Elec       q    Type
REMARK                         _______ _______ _______ _____ _____    ______ ____
ROOT
ATOM      1  C   UNL     1      -3.885  -4.609   0.016  0.00  0.00    +0.085 A 
ATOM      2  C   UNL     1      -4.235  -5.947   0.018  0.00  0.00    +0.069 A 
ATOM      3  C   UNL     1      -5.662  -6.266   0.029  0.00  0.00    -0.023 A 
ATOM      4  C   UNL     1      -6.465  -5.187   0.034  0.00  0.00    -0.004 A 
ATOM      5  S   UNL     1      -5.355  -3.802   0.035  0.00  0.00    -0.077 S 
ATOM      6  C   UNL     1      -7.920  -5.571   0.041  0.00  0.00    +0.043 C 
ATOM      7  C   UNL     1      -7.935  -7.053  -0.394  0.00  0.00    +0.010 C 
ATOM      8  C   UNL     1      -6.530  -7.522   0.039  0.00  0.00    +0.037 C 
ENDROOT
BRANCH   2   9
ATOM      9  C   UNL     1      -3.218  -7.002   0.009  0.00  0.00    +0.254 C 
ATOM     10  O   UNL     1      -2.787  -7.441   1.059  0.00  0.00    -0.270 OA
ATOM     11  N   UNL     1      -2.759  -7.486  -1.163  0.00  0.00    -0.236 N 
ATOM     12  C   UNL     1      -1.824  -8.456  -1.171  0.00  0.00    +0.304 C 
ATOM     13  O   UNL     1      -1.393  -8.894  -0.122  0.00  0.00    -0.253 OA
ATOM     14  N   UNL     1      -1.365  -8.939  -2.342  0.00  0.00    -0.313 N 
ATOM     15  H   UNL     1      -3.103  -7.136  -2.000  0.00  0.00    +0.159 HD
ATOM     16  H   UNL     1      -1.708  -8.589  -3.179  0.00  0.00    +0.146 HD
ATOM     17  H   UNL     1      -0.692  -9.638  -2.348  0.00  0.00    +0.146 HD
ENDBRANCH   2   9
BRANCH   1  20
ATOM     18  C   UNL     1      -2.454  -2.722   0.012  0.00  0.00    +0.255 C 
ATOM     19  O   UNL     1      -3.426  -1.997   0.025  0.00  0.00    -0.272 OA
ATOM     20  N   UNL     1      -2.611  -4.061   0.006  0.00  0.00    -0.277 N 
ATOM     21  H   UNL     1      -1.834  -4.641  -0.005  0.00  0.00    +0.155 HD
BRANCH  18  22
ATOM     22  C   UNL     1      -1.070  -2.126   0.001  0.00  0.00    +0.324 C 
BRANCH  22  23
ATOM     23  O   UNL     1      -1.165  -0.701   0.010  0.00  0.00    -0.483 OA
BRANCH  23  29
ATOM     24  C   UNL     1      -0.017   1.383   0.010  0.00  0.00    +0.047 A 
ATOM     25  C   UNL     1       1.171   2.089   0.002  0.00  0.00    +0.023 A 
ATOM     26  C   UNL     1       2.378   1.414  -0.013  0.00  0.00    +0.041 A 
ATOM     27  C   UNL     1       2.399   0.030  -0.021  0.00  0.00    +0.023 A 
ATOM     28  C   UNL     1       1.214  -0.679  -0.014  0.00  0.00    +0.047 A 
ATOM     29  C   UNL     1       0.002  -0.004   0.002  0.00  0.00    +0.121 A 
ATOM     30 CL   UNL     1       3.869   2.303  -0.024  0.00  0.00    -0.084 Cl
ENDBRANCH  23  29
ENDBRANCH  22  23
ENDBRANCH  18  22
ENDBRANCH   1  20
TORSDOF 5
