REMARK  Name = ZINC16530660
REMARK  8 active torsions:
REMARK  status: ('A' for Active; 'I' for Inactive)
REMARK    1  A    between atoms: C_1  and  C_2
REMARK    2  A    between atoms: C_7  and  C_8
REMARK    3  A    between atoms: C_18  and  C_20
REMARK    4  A    between atoms: C_20  and  N_21
REMARK    5  A    between atoms: N_21  and  C_22
REMARK    6  A    between atoms: C_22  and  C_23
REMARK    7  A    between atoms: C_25  and  C_27
REMARK    8  A    between atoms: C_31  and  N_33
REMARK                            x       y       z     vdW  Elec       q    Type
REMARK                         _______ _______ _______ _____ _____    ______ ____
ROOT
ATOM      1  C   UNL     1      -1.191   4.499  -0.716  0.00  0.00    +0.138 C 
ATOM      2  C   UNL     1      -2.156   4.882  -1.836  0.00  0.00    -0.012 A 
ATOM      3  C   UNL     1      -1.738   5.226  -3.120  0.00  0.00    +0.013 A 
ATOM      4  C   UNL     1      -2.650   5.551  -4.065  0.00  0.00    +0.046 A 
ATOM      5  S   UNL     1      -4.185   5.384  -3.166  0.00  0.00    -0.101 S 
ATOM      6  C   UNL     1      -3.497   4.897  -1.606  0.00  0.00    -0.003 A 
ATOM      7  C   UNL     1      -4.214   4.581  -0.334  0.00  0.00    +0.062 C 
ATOM      8  C   UNL     1      -3.250   3.836   0.603  0.00  0.00    +0.114 C 
ATOM      9  N   UNL     1      -1.942   4.505   0.546  0.00  0.00    -0.289 N 
ATOM     10  C   UNL     1      -1.440   5.116   1.638  0.00  0.00    +0.234 C 
ATOM     11  O   UNL     1      -0.361   5.666   1.582  0.00  0.00    -0.274 OA
ENDROOT
BRANCH   1  18
ATOM     12  C   UNL     1       1.668   4.080  -0.737  0.00  0.00    +0.044 C 
ATOM     13  C   UNL     1       0.735   2.922  -0.982  0.00  0.00    -0.045 A 
ATOM     14  C   UNL     1       1.246   1.659  -1.216  0.00  0.00    +0.004 A 
ATOM     15  C   UNL     1       0.390   0.597  -1.440  0.00  0.00    +0.000 A 
ATOM     16  C   UNL     1      -0.978   0.798  -1.429  0.00  0.00    +0.000 A 
ATOM     17  C   UNL     1      -1.489   2.060  -1.195  0.00  0.00    +0.006 A 
ATOM     18  C   UNL     1      -0.633   3.123  -0.971  0.00  0.00    -0.020 A 
ENDBRANCH   1  18
BRANCH  10  19
ATOM     19  C   UNL     1      -2.220   5.116   2.927  0.00  0.00    +0.204 C 
BRANCH  19  20
ATOM     20  N   UNL     1      -1.466   5.839   3.954  0.00  0.00    -0.285 N 
ATOM     21  C   UNL     1      -0.859   5.160   4.947  0.00  0.00    +0.247 C 
ATOM     22  O   UNL     1      -0.285   5.763   5.833  0.00  0.00    -0.270 OA
BRANCH  21  23
ATOM     23  C   UNL     1      -0.890   3.682   4.959  0.00  0.00    +0.039 A 
ATOM     24  C   UNL     1      -1.023   2.974   3.764  0.00  0.00    +0.013 A 
ATOM     25  C   UNL     1      -1.047   1.595   3.781  0.00  0.00    +0.003 A 
ATOM     26  C   UNL     1      -0.949   0.914   4.982  0.00  0.00    +0.033 A 
ATOM     27  C   UNL     1      -0.822   1.610   6.171  0.00  0.00    +0.127 A 
ATOM     28  C   UNL     1      -0.792   2.989   6.167  0.00  0.00    +0.045 A 
BRANCH  27  29
ATOM     29  N   UNL     1      -0.720   0.873   7.450  0.00  0.00    +0.056 N 
ATOM     30  O   UNL     1      -0.609   1.484   8.498  0.00  0.00    -0.126 OA
ATOM     31  O   UNL     1      -0.746  -0.345   7.456  0.00  0.00    -0.126 OA
ENDBRANCH  27  29
ENDBRANCH  21  23
BRANCH  20  32
ATOM     32  C   UNL     1      -1.373   7.300   3.902  0.00  0.00    +0.135 C 
BRANCH  32  33
ATOM     33  C   UNL     1      -2.579   7.905   4.572  0.00  0.00    -0.016 C 
ATOM     34  C   UNL     1      -2.424   8.757   5.555  0.00  0.00    +0.005 C 
ENDBRANCH  32  33
ENDBRANCH  20  32
ENDBRANCH  19  20
ENDBRANCH  10  19
TORSDOF 7
