REMARK  Name = ZINC41084145
REMARK  7 active torsions:
REMARK  status: ('A' for Active; 'I' for Inactive)
REMARK    1  A    between atoms: C_1  and  C_2
REMARK    2  A    between atoms: C_2  and  S_3
REMARK    3  A    between atoms: S_3  and  C_6
REMARK    4  A    between atoms: C_12  and  C_13
REMARK    5  A    between atoms: C_16  and  O_19
REMARK    6  A    between atoms: O_19  and  C_20
REMARK    7  A    between atoms: C_20  and  C_22
REMARK                            x       y       z     vdW  Elec       q    Type
REMARK                         _______ _______ _______ _____ _____    ______ ____
ROOT
ATOM      1  C   UNL     1       2.314  -3.684  -2.962  0.00  0.00    +0.235 C 
ATOM      2  N   UNL     1       1.064  -4.023  -2.831  0.00  0.00    -0.145 NA
ATOM      3  N   UNL     1       0.679  -5.347  -2.819  0.00  0.00    -0.150 N 
ATOM      4  C   UNL     1      -0.651  -5.819  -2.772  0.00  0.00    +0.153 C 
ATOM      5  N   UNL     1      -1.679  -5.107  -3.150  0.00  0.00    -0.283 NA
ATOM      6  C   UNL     1      -0.766  -7.210  -2.250  0.00  0.00    +0.081 C 
ATOM      7  C   UNL     1      -1.855  -7.622  -1.518  0.00  0.00    +0.024 C 
ATOM      8  C   UNL     1       0.358  -8.128  -2.563  0.00  0.00    +0.273 C 
ATOM      9  O   UNL     1       0.191  -9.336  -2.600  0.00  0.00    -0.268 OA
ATOM     10  N   UNL     1       1.568  -7.588  -2.807  0.00  0.00    -0.152 NA
ATOM     11  C   UNL     1       1.685  -6.286  -2.886  0.00  0.00    +0.182 C 
ATOM     12  S   UNL     1       3.126  -5.272  -3.087  0.00  0.00    -0.015 S 
ATOM     13  H   UNL     1      -1.548  -4.206  -3.484  0.00  0.00    +0.188 HD
ENDROOT
BRANCH   7  14
ATOM     14  C   UNL     1      -1.846  -8.934  -0.864  0.00  0.00    -0.024 A 
ATOM     15  C   UNL     1      -0.692  -9.384  -0.207  0.00  0.00    +0.011 A 
ATOM     16  C   UNL     1      -0.689 -10.612   0.403  0.00  0.00    +0.047 A 
ATOM     17  C   UNL     1      -1.827 -11.410   0.371  0.00  0.00    +0.132 A 
ATOM     18  C   UNL     1      -2.975 -10.969  -0.280  0.00  0.00    +0.047 A 
ATOM     19  C   UNL     1      -2.992  -9.741  -0.888  0.00  0.00    +0.011 A 
BRANCH  17  20
ATOM     20  O   UNL     1      -1.818 -12.625   0.976  0.00  0.00    -0.422 OA
BRANCH  20  21
ATOM     21  C   UNL     1      -1.936 -12.665   2.318  0.00  0.00    +0.344 C 
ATOM     22  O   UNL     1      -1.957 -11.631   2.956  0.00  0.00    -0.245 OA
BRANCH  21  23
ATOM     23  C   UNL     1      -2.040 -13.964   3.012  0.00  0.00    +0.059 A 
ATOM     24  C   UNL     1      -2.011 -15.153   2.281  0.00  0.00    +0.016 A 
ATOM     25  C   UNL     1      -2.108 -16.363   2.935  0.00  0.00    +0.021 A 
ATOM     26  C   UNL     1      -2.235 -16.401   4.314  0.00  0.00    +0.041 A 
ATOM     27  C   UNL     1      -2.266 -15.224   5.044  0.00  0.00    +0.021 A 
ATOM     28  C   UNL     1      -2.163 -14.008   4.402  0.00  0.00    +0.016 A 
ATOM     29 CL   UNL     1      -2.358 -17.928   5.130  0.00  0.00    -0.084 Cl
ENDBRANCH  21  23
ENDBRANCH  20  21
ENDBRANCH  17  20
ENDBRANCH   7  14
BRANCH   1  30
ATOM     30  S   UNL     1       3.024  -2.072  -3.012  0.00  0.00    +0.022 S 
ATOM     31  O   UNL     1       1.949  -1.214  -3.369  0.00  0.00    -0.167 OA
ATOM     32  O   UNL     1       4.159  -2.202  -3.857  0.00  0.00    -0.167 OA
BRANCH  30  34
ATOM     33  C   UNL     1       4.187  -0.353  -1.231  0.00  0.00    +0.028 C 
ATOM     34  C   UNL     1       3.549  -1.742  -1.308  0.00  0.00    +0.171 C 
ENDBRANCH  30  34
ENDBRANCH   1  30
TORSDOF 6
