REMARK  Name = ZINC39686234
REMARK  8 active torsions:
REMARK  status: ('A' for Active; 'I' for Inactive)
REMARK    1  A    between atoms: C_1  and  C_2
REMARK    2  A    between atoms: C_2  and  C_3
REMARK    3  A    between atoms: C_2  and  C_4
REMARK    4  A    between atoms: C_4  and  C_5
REMARK    5  A    between atoms: C_10  and  N_13
REMARK    6  A    between atoms: C_14  and  C_16
REMARK    7  A    between atoms: C_27  and  C_29
REMARK    8  A    between atoms: C_29  and  C_35
REMARK                            x       y       z     vdW  Elec       q    Type
REMARK                         _______ _______ _______ _____ _____    ______ ____
ROOT
ATOM      1  C   UNL     1       6.337   1.238  -7.682  0.00  0.00    +0.100 C 
ATOM      2  C   UNL     1       5.591   0.607  -8.879  0.00  0.00    +0.121 C 
ATOM      3  N   UNL     1       6.568   0.649  -9.993  0.00  0.00    -0.300 N 
ATOM      4  C   UNL     1       7.866   0.316  -9.358  0.00  0.00    +0.115 C 
ATOM      5  C   UNL     1       7.830   1.044  -8.000  0.00  0.00    -0.004 C 
ATOM      6  C   UNL     1       8.492   0.188  -6.925  0.00  0.00    -0.010 C 
ATOM      7  C   UNL     1       9.986   0.058  -7.231  0.00  0.00    -0.082 C 
ATOM      8  N   UNL     1      10.598   1.391  -7.268  0.00  0.00    +0.379 N 
ATOM      9  C   UNL     1      10.021   2.177  -8.365  0.00  0.00    -0.082 C 
ATOM     10  C   UNL     1       8.527   2.397  -8.107  0.00  0.00    -0.010 C 
ATOM     11  C   UNL     1       6.331   0.927 -11.290  0.00  0.00    +0.222 C 
ATOM     12  O   UNL     1       7.227   0.840 -12.103  0.00  0.00    -0.275 OA
ATOM     13  H   UNL     1      10.427   1.863  -6.392  0.00  0.00    -0.086 HD
ATOM     14  H   UNL     1      11.593   1.300  -7.409  0.00  0.00    -0.086 HD
ENDROOT
BRANCH  11  15
ATOM     15  C   UNL     1       4.952   1.346 -11.731  0.00  0.00    +0.044 C 
ATOM     16  C   UNL     1       3.935   0.289 -11.298  0.00  0.00    +0.016 C 
ATOM     17  C   UNL     1       4.289  -1.053 -11.941  0.00  0.00    +0.001 C 
ATOM     18  C   UNL     1       4.262  -0.912 -13.464  0.00  0.00    +0.000 C 
ATOM     19  C   UNL     1       5.279   0.145 -13.897  0.00  0.00    +0.001 C 
ATOM     20  C   UNL     1       4.924   1.488 -13.254  0.00  0.00    +0.016 C 
ATOM     21  C   UNL     1       4.597   2.689 -11.088  0.00  0.00    +0.021 C 
ENDBRANCH  11  15
BRANCH   1  23
ATOM     22  N   UNL     1       6.162   1.137  -5.217  0.00  0.00    -0.312 N 
ATOM     23  C   UNL     1       5.976   0.526  -6.404  0.00  0.00    +0.218 C 
ATOM     24  O   UNL     1       5.517  -0.596  -6.444  0.00  0.00    -0.275 OA
ATOM     25  H   UNL     1       6.528   2.034  -5.185  0.00  0.00    +0.149 HD
BRANCH  22  31
ATOM     26  C   UNL     1       6.735  -0.198  -0.024  0.00  0.00    +0.216 C 
ATOM     27  O   UNL     1       7.608  -0.994   0.249  0.00  0.00    -0.276 OA
ATOM     28  N   UNL     1       6.168  -0.213  -1.247  0.00  0.00    -0.301 N 
ATOM     29  C   UNL     1       5.113   0.748  -1.595  0.00  0.00    +0.109 C 
ATOM     30  C   UNL     1       5.514   1.475  -2.883  0.00  0.00    +0.041 C 
ATOM     31  C   UNL     1       5.810   0.444  -3.975  0.00  0.00    +0.076 C 
ATOM     32  C   UNL     1       6.978  -0.443  -3.538  0.00  0.00    +0.041 C 
ATOM     33  C   UNL     1       6.598  -1.188  -2.259  0.00  0.00    +0.109 C 
BRANCH  26  34
ATOM     34  C   UNL     1       6.283   0.807   1.003  0.00  0.00    +0.099 C 
BRANCH  34  36
ATOM     35  C   UNL     1       8.554   0.929   2.037  0.00  0.00    +0.008 C 
ATOM     36  C   UNL     1       7.080   0.611   2.294  0.00  0.00    -0.008 C 
ATOM     37  C   UNL     1       6.537   1.546   3.376  0.00  0.00    +0.008 C 
ENDBRANCH  34  36
ENDBRANCH  26  34
ENDBRANCH  22  31
ENDBRANCH   1  23
TORSDOF 5
