REMARK  Name = ZINC48365728
REMARK  9 active torsions:
REMARK  status: ('A' for Active; 'I' for Inactive)
REMARK    1  A    between atoms: C_1  and  C_2
REMARK    2  A    between atoms: C_2  and  C_3
REMARK    3  A    between atoms: C_2  and  C_4
REMARK    4  A    between atoms: C_2  and  C_5
REMARK    5  A    between atoms: C_5  and  C_7
REMARK    6  A    between atoms: C_5  and  N_12
REMARK    7  A    between atoms: N_12  and  C_13
REMARK    8  A    between atoms: C_13  and  N_14
REMARK    9  A    between atoms: C_21  and  N_25
REMARK                            x       y       z     vdW  Elec       q    Type
REMARK                         _______ _______ _______ _____ _____    ______ ____
ROOT
ATOM      1  N   UNL     1      -0.305  -2.783  -3.260  0.00  0.00    -0.221 N 
ATOM      2  C   UNL     1      -0.531  -1.897  -4.247  0.00  0.00    +0.255 C 
ATOM      3  O   UNL     1      -0.926  -0.758  -4.099  0.00  0.00    -0.269 OA
ATOM      4  C   UNL     1      -0.219  -2.541  -5.540  0.00  0.00    +0.052 A 
ATOM      5  C   UNL     1      -0.262  -2.128  -6.862  0.00  0.00    +0.014 A 
ATOM      6  C   UNL     1       0.108  -3.007  -7.868  0.00  0.00    +0.003 A 
ATOM      7  C   UNL     1       0.517  -4.291  -7.562  0.00  0.00    +0.033 A 
ATOM      8  C   UNL     1       0.565  -4.718  -6.244  0.00  0.00    +0.139 A 
ATOM      9  C   UNL     1       0.199  -3.850  -5.228  0.00  0.00    +0.080 A 
ATOM     10  C   UNL     1       0.132  -3.956  -3.755  0.00  0.00    +0.257 C 
ATOM     11  O   UNL     1       0.421  -4.937  -3.100  0.00  0.00    -0.269 OA
ENDROOT
BRANCH   8  12
ATOM     12  N   UNL     1       1.005  -6.094  -5.924  0.00  0.00    +0.057 N 
ATOM     13  O   UNL     1       1.325  -6.849  -6.813  0.00  0.00    -0.126 OA
ATOM     14  O   UNL     1       1.046  -6.464  -4.774  0.00  0.00    -0.126 OA
ENDBRANCH   8  12
BRANCH   1  15
ATOM     15  C   UNL     1      -0.503  -2.506  -1.835  0.00  0.00    +0.201 C 
BRANCH  15  16
ATOM     16  N   UNL     1       0.738  -1.966  -1.265  0.00  0.00    -0.293 NA
ATOM     17  H   UNL     1       1.545  -2.314  -1.760  0.00  0.00    +0.124 HD
BRANCH  16  18
ATOM     18  C   UNL     1       0.718  -0.497  -1.257  0.00  0.00    +0.097 C 
BRANCH  18  19
ATOM     19  C   UNL     1       2.132   0.024  -1.268  0.00  0.00    +0.007 A 
ATOM     20  C   UNL     1       2.646   1.083  -1.939  0.00  0.00    +0.013 A 
ATOM     21  C   UNL     1       3.988   1.380  -1.796  0.00  0.00    +0.008 A 
ATOM     22  C   UNL     1       4.751   0.604  -0.988  0.00  0.00    +0.045 A 
ATOM     23  S   UNL     1       3.563  -0.588  -0.393  0.00  0.00    -0.100 S 
ENDBRANCH  18  19
BRANCH  18  25
ATOM     24  C   UNL     1      -0.019   1.526   0.010  0.00  0.00    +0.012 C 
ATOM     25  C   UNL     1       0.002  -0.004   0.002  0.00  0.00    -0.018 C 
ATOM     26  C   UNL     1       0.742  -0.511   1.242  0.00  0.00    +0.012 C 
ATOM     27  C   UNL     1      -1.433  -0.534   0.013  0.00  0.00    +0.012 C 
ENDBRANCH  18  25
ENDBRANCH  16  18
ENDBRANCH  15  16
ENDBRANCH   1  15
TORSDOF 6
