REMARK  Name = ZINC37769920
REMARK  9 active torsions:
REMARK  status: ('A' for Active; 'I' for Inactive)
REMARK    1  A    between atoms: C_1  and  C_2
REMARK    2  A    between atoms: C_2  and  C_3
REMARK    3  A    between atoms: C_3  and  C_4
REMARK    4  A    between atoms: C_4  and  C_6
REMARK    5  A    between atoms: C_4  and  N_21
REMARK    6  A    between atoms: N_8  and  C_9
REMARK    7  A    between atoms: C_10  and  C_17
REMARK    8  A    between atoms: C_17  and  O_19
REMARK    9  A    between atoms: O_19  and  C_20
REMARK                            x       y       z     vdW  Elec       q    Type
REMARK                         _______ _______ _______ _____ _____    ______ ____
ROOT
ATOM      1  C   UNL     1       0.994  -3.052   2.439  0.00  0.00    +0.203 C 
ATOM      2  O   UNL     1       1.846  -3.909   2.345  0.00  0.00    -0.277 OA
ATOM      3  N   UNL     1       0.650  -2.573   3.651  0.00  0.00    -0.285 N 
ATOM      4  H   UNL     1       0.027  -1.832   3.721  0.00  0.00    +0.155 HD
ENDROOT
BRANCH   3   5
ATOM      5  C   UNL     1       1.188  -3.142   4.803  0.00  0.00    +0.062 A 
ATOM      6  C   UNL     1       0.343  -3.595   5.827  0.00  0.00    +0.082 A 
ATOM      7  C   UNL     1       0.895  -4.164   6.977  0.00  0.00    +0.032 A 
ATOM      8  C   UNL     1       2.264  -4.276   7.100  0.00  0.00    +0.020 A 
ATOM      9  C   UNL     1       3.097  -3.826   6.087  0.00  0.00    +0.032 A 
ATOM     10  C   UNL     1       2.564  -3.267   4.941  0.00  0.00    +0.041 A 
ATOM     11 BR   UNL     1       3.711  -2.666   3.563  0.00  0.00    -0.048 Br
ATOM     12 BR   UNL     1       3.010  -5.045   8.658  0.00  0.00    -0.050 Br
BRANCH   6  13
ATOM     13  C   UNL     1      -1.119  -3.473   5.689  0.00  0.00    +0.341 C 
ATOM     14  O   UNL     1      -1.601  -3.070   4.649  0.00  0.00    -0.245 OA
BRANCH  13  15
ATOM     15  O   UNL     1      -1.923  -3.807   6.718  0.00  0.00    -0.464 OA
ATOM     16  C   UNL     1      -3.330  -3.663   6.516  0.00  0.00    +0.280 C 
ENDBRANCH  13  15
ENDBRANCH   6  13
ENDBRANCH   3   5
BRANCH   1  17
ATOM     17  C   UNL     1       0.319  -2.521   1.200  0.00  0.00    +0.013 C 
BRANCH  17  18
ATOM     18  N   UNL     1       0.487  -3.482   0.102  0.00  0.00    +0.386 N 
ATOM     19  H   UNL     1       0.035  -3.127  -0.728  0.00  0.00    -0.089 HD
ATOM     20  H   UNL     1       1.470  -3.615  -0.082  0.00  0.00    -0.089 HD
ATOM     21  H   UNL     1       0.071  -4.364   0.360  0.00  0.00    -0.089 HD
ENDBRANCH  17  18
BRANCH  17  22
ATOM     22  C   UNL     1       0.950  -1.184   0.808  0.00  0.00    -0.007 C 
BRANCH  22  24
ATOM     23  C   UNL     1       0.815   0.752  -0.765  0.00  0.00    +0.004 C 
ATOM     24  C   UNL     1       0.184  -0.585  -0.374  0.00  0.00    -0.005 C 
ENDBRANCH  22  24
ENDBRANCH  17  22
ENDBRANCH   1  17
TORSDOF 7
