REMARK  Name = ZINC49601564
REMARK  17 active torsions:
REMARK  status: ('A' for Active; 'I' for Inactive)
REMARK    1  A    between atoms: C_1  and  C_2
REMARK    2  A    between atoms: C_3  and  O_33
REMARK    3  A    between atoms: C_4  and  C_32
REMARK    4  A    between atoms: C_8  and  C_9
REMARK    5  A    between atoms: C_9  and  C_10
REMARK    6  A    between atoms: C_9  and  C_11
REMARK    7  A    between atoms: C_9  and  O_31
REMARK    8  A    between atoms: C_12  and  C_13
REMARK    9  A    between atoms: C_12  and  C_14
REMARK   10  A    between atoms: C_14  and  C_16
REMARK   11  A    between atoms: C_14  and  O_30
REMARK   12  A    between atoms: C_16  and  C_29
REMARK   13  A    between atoms: C_17  and  C_18
REMARK   14  A    between atoms: C_18  and  C_28
REMARK   15  A    between atoms: C_21  and  C_27
REMARK   16  A    between atoms: C_23  and  C_26
REMARK   17  A    between atoms: O_33  and  C_34
REMARK                            x       y       z     vdW  Elec       q    Type
REMARK                         _______ _______ _______ _____ _____    ______ ____
ROOT
ATOM      1  C   UNL     1       2.168   0.682   3.323  0.00  0.00    +0.016 C 
ATOM      2  C   UNL     1       2.067   0.892   4.612  0.00  0.00    -0.041 C 
ATOM      3  C   UNL     1       0.813   0.488   5.344  0.00  0.00    +0.042 C 
ENDROOT
BRANCH   1   4
ATOM      4  C   UNL     1       1.029   0.043   2.571  0.00  0.00    +0.139 C 
ATOM      5  C   UNL     1       0.055   1.127   2.104  0.00  0.00    +0.054 C 
BRANCH   4  13
ATOM      6  C   UNL     1      -0.764  -1.311   0.831  0.00  0.00    +0.051 C 
ATOM      7  C   UNL     1       0.717  -1.336   0.552  0.00  0.00    +0.033 A 
ATOM      8  C   UNL     1       1.214  -2.027  -0.575  0.00  0.00    +0.136 A 
ATOM      9  C   UNL     1       2.579  -2.031  -0.803  0.00  0.00    +0.076 A 
ATOM     10  C   UNL     1       3.415  -1.352   0.091  0.00  0.00    +0.343 A 
ATOM     11  O   UNL     1       4.621  -1.342  -0.091  0.00  0.00    -0.245 OA
ATOM     12  O   UNL     1       2.891  -0.710   1.150  0.00  0.00    -0.423 OA
ATOM     13  C   UNL     1       1.569  -0.696   1.374  0.00  0.00    +0.150 A 
ATOM     14  C   UNL     1       3.155  -2.755  -1.992  0.00  0.00    +0.055 C 
BRANCH   8  15
ATOM     15  O   UNL     1       0.372  -2.672  -1.416  0.00  0.00    -0.494 OA
ATOM     16  C   UNL     1      -0.530  -1.866  -2.176  0.00  0.00    +0.277 C 
ENDBRANCH   8  15
ENDBRANCH   4  13
BRANCH   4  17
ATOM     17  O   UNL     1       0.347  -0.873   3.429  0.00  0.00    -0.377 OA
ATOM     18  H   UNL     1       0.896  -1.608   3.736  0.00  0.00    +0.211 HD
ENDBRANCH   4  17
ENDBRANCH   1   4
BRANCH   2  19
ATOM     19  C   UNL     1       3.203   1.538   5.362  0.00  0.00    +0.166 C 
BRANCH  19  20
ATOM     20  C   UNL     1       2.856   2.974   5.660  0.00  0.00    -0.042 C 
ATOM     21  C   UNL     1       3.446   3.941   5.002  0.00  0.00    +0.012 C 
ATOM     22  C   UNL     1       1.830   3.298   6.715  0.00  0.00    +0.042 C 
BRANCH  21  23
ATOM     23  C   UNL     1       3.249   5.373   5.429  0.00  0.00    +0.114 C 
ATOM     24  C   UNL     1       4.561   6.171   5.255  0.00  0.00    +0.189 C 
ATOM     25  C   UNL     1       4.582   7.128   6.468  0.00  0.00    +0.122 C 
ATOM     26  O   UNL     1       4.467   7.586   5.082  0.00  0.00    -0.359 OA
ATOM     27  C   UNL     1       3.281   6.795   7.232  0.00  0.00    +0.151 C 
ATOM     28  O   UNL     1       2.961   5.441   6.843  0.00  0.00    -0.361 OA
ATOM     29  C   UNL     1       3.513   6.877   8.742  0.00  0.00    +0.041 C 
ATOM     30  C   UNL     1       5.848   7.419   7.276  0.00  0.00    +0.047 C 
ATOM     31  C   UNL     1       2.120   6.017   4.623  0.00  0.00    +0.049 C 
ENDBRANCH  21  23
ENDBRANCH  19  20
BRANCH  19  32
ATOM     32  O   UNL     1       3.424   0.837   6.588  0.00  0.00    -0.383 OA
ATOM     33  H   UNL     1       2.659   0.829   7.179  0.00  0.00    +0.211 HD
ENDBRANCH  19  32
ENDBRANCH   2  19
TORSDOF 8
