REMARK  Name = ZINC18059248
REMARK  4 active torsions:
REMARK  status: ('A' for Active; 'I' for Inactive)
REMARK    1  A    between atoms: C_6  and  N_7
REMARK    2  A    between atoms: C_8  and  C_13
REMARK    3  A    between atoms: C_16  and  O_20
REMARK    4  A    between atoms: C_18  and  O_19
REMARK                            x       y       z     vdW  Elec       q    Type
REMARK                         _______ _______ _______ _____ _____    ______ ____
ROOT
ATOM      1  N   UNL     1      -1.208  -0.717  -0.063  0.00  0.00    -0.271 N 
ATOM      2  C   UNL     1      -2.469  -0.178   0.113  0.00  0.00    +0.171 A 
ATOM      3  N   UNL     1      -3.335  -1.154   0.148  0.00  0.00    -0.153 NA
ATOM      4  N   UNL     1      -2.637  -2.359  -0.006  0.00  0.00    -0.254 N 
ATOM      5  C   UNL     1      -1.329  -2.057  -0.139  0.00  0.00    +0.180 A 
ATOM      6  S   UNL     1      -0.052  -3.175  -0.362  0.00  0.00    -0.011 S 
ATOM      7  H   UNL     1      -3.024  -3.248  -0.019  0.00  0.00    +0.191 HD
ENDROOT
BRANCH   1  13
ATOM      8  C   UNL     1       0.463   0.705   0.950  0.00  0.00    +0.030 A 
ATOM      9  C   UNL     1       1.642   1.420   0.862  0.00  0.00    +0.051 A 
ATOM     10  C   UNL     1       2.356   1.442  -0.327  0.00  0.00    +0.162 A 
ATOM     11  C   UNL     1       1.886   0.741  -1.432  0.00  0.00    +0.164 A 
ATOM     12  C   UNL     1       0.702   0.026  -1.343  0.00  0.00    +0.075 A 
ATOM     13  C   UNL     1      -0.011   0.007  -0.152  0.00  0.00    +0.054 A 
ATOM     14  O   UNL     1       2.577   0.745  -2.604  0.00  0.00    -0.485 OA
ATOM     15  C   UNL     1       3.560   1.772  -2.769  0.00  0.00    +0.270 C 
ATOM     16  C   UNL     1       4.394   1.850  -1.483  0.00  0.00    +0.270 C 
ATOM     17  O   UNL     1       3.514   2.155  -0.396  0.00  0.00    -0.485 OA
ENDBRANCH   1  13
BRANCH   2  18
ATOM     18  C   UNL     1      -2.783   1.260   0.239  0.00  0.00    +0.061 A 
ATOM     19  C   UNL     1      -3.469   1.732   1.359  0.00  0.00    +0.019 A 
ATOM     20  C   UNL     1      -3.760   3.074   1.474  0.00  0.00    +0.046 A 
ATOM     21  C   UNL     1      -3.373   3.961   0.477  0.00  0.00    +0.120 A 
ATOM     22  C   UNL     1      -2.692   3.502  -0.640  0.00  0.00    +0.091 A 
ATOM     23  C   UNL     1      -2.389   2.156  -0.762  0.00  0.00    +0.131 A 
BRANCH  23  24
ATOM     24  O   UNL     1      -1.716   1.706  -1.853  0.00  0.00    -0.506 OA
ATOM     25  H   UNL     1      -2.288   1.445  -2.587  0.00  0.00    +0.292 HD
ENDBRANCH  23  24
BRANCH  21  26
ATOM     26  O   UNL     1      -3.664   5.282   0.597  0.00  0.00    -0.507 OA
ATOM     27  H   UNL     1      -2.980   5.797   1.047  0.00  0.00    +0.292 HD
ENDBRANCH  21  26
ENDBRANCH   2  18
TORSDOF 4
