REMARK  Name = ZINC64566868
REMARK  7 active torsions:
REMARK  status: ('A' for Active; 'I' for Inactive)
REMARK    1  A    between atoms: C_1  and  N_2
REMARK    2  A    between atoms: C_5  and  C_7
REMARK    3  A    between atoms: C_7  and  N_8
REMARK    4  A    between atoms: N_8  and  C_9
REMARK    5  A    between atoms: C_15  and  C_17
REMARK    6  A    between atoms: N_24  and  S_27
REMARK    7  A    between atoms: S_27  and  C_30
REMARK                            x       y       z     vdW  Elec       q    Type
REMARK                         _______ _______ _______ _____ _____    ______ ____
ROOT
ATOM      1  C   UNL     1      -0.991  -2.927   6.509  0.00  0.00    +0.172 C 
ATOM      2  N   UNL     1      -0.951  -3.507   5.164  0.00  0.00    -0.271 N 
ATOM      3  C   UNL     1      -1.865  -3.324   4.196  0.00  0.00    +0.045 A 
ATOM      4  C   UNL     1      -1.458  -4.025   3.107  0.00  0.00    +0.014 A 
ATOM      5  C   UNL     1      -0.260  -4.660   3.422  0.00  0.00    +0.085 A 
ATOM      6  N   UNL     1       0.052  -4.347   4.657  0.00  0.00    -0.174 NA
ATOM      7  C   UNL     1      -2.217  -4.067   1.802  0.00  0.00    +0.148 C 
ATOM      8  N   UNL     1      -3.541  -3.466   2.047  0.00  0.00    -0.172 NA
ATOM      9  C   UNL     1      -3.610  -2.224   2.831  0.00  0.00    +0.116 C 
ATOM     10  C   UNL     1      -3.128  -2.503   4.260  0.00  0.00    +0.072 C 
ENDROOT
BRANCH   8  11
ATOM     11  S   UNL     1      -4.916  -4.173   1.454  0.00  0.00    +0.061 S 
ATOM     12  O   UNL     1      -5.851  -3.125   1.240  0.00  0.00    -0.153 OA
ATOM     13  O   UNL     1      -4.505  -5.051   0.415  0.00  0.00    -0.153 OA
BRANCH  11  14
ATOM     14  C   UNL     1      -5.577  -5.183   2.737  0.00  0.00    +0.106 A 
ATOM     15  C   UNL     1      -5.186  -6.505   2.848  0.00  0.00    +0.029 A 
ATOM     16  C   UNL     1      -5.705  -7.295   3.854  0.00  0.00    +0.006 A 
ATOM     17  C   UNL     1      -6.618  -6.768   4.753  0.00  0.00    -0.044 A 
ATOM     18  C   UNL     1      -7.009  -5.447   4.642  0.00  0.00    -0.042 A 
ATOM     19  C   UNL     1      -6.482  -4.655   3.636  0.00  0.00    +0.032 A 
ATOM     20  C   UNL     1      -8.005  -5.115   5.732  0.00  0.00    +0.036 C 
ATOM     21  C   UNL     1      -8.509  -6.480   6.248  0.00  0.00    +0.009 C 
ATOM     22  C   UNL     1      -7.324  -7.414   5.926  0.00  0.00    +0.036 C 
ENDBRANCH  11  14
ENDBRANCH   8  11
BRANCH   5  23
ATOM     23  C   UNL     1       0.541  -5.547   2.504  0.00  0.00    +0.171 C 
BRANCH  23  24
ATOM     24  N   UNL     1       1.751  -4.840   2.077  0.00  0.00    -0.262 N 
ATOM     25  C   UNL     1       1.993  -4.651   0.765  0.00  0.00    +0.251 C 
ATOM     26  O   UNL     1       2.939  -3.974   0.413  0.00  0.00    -0.270 OA
BRANCH  24  27
ATOM     27  C   UNL     1       2.656  -4.363   3.031  0.00  0.00    +0.037 A 
ATOM     28  C   UNL     1       2.518  -4.727   4.364  0.00  0.00    +0.023 A 
ATOM     29  C   UNL     1       3.413  -4.254   5.303  0.00  0.00    +0.002 A 
ATOM     30  C   UNL     1       4.445  -3.417   4.918  0.00  0.00    +0.000 A 
ATOM     31  C   UNL     1       4.584  -3.053   3.591  0.00  0.00    +0.002 A 
ATOM     32  C   UNL     1       3.697  -3.528   2.646  0.00  0.00    +0.023 A 
ENDBRANCH  24  27
BRANCH  25  33
ATOM     33  C   UNL     1       1.108  -5.267  -0.246  0.00  0.00    +0.037 A 
ATOM     34  C   UNL     1      -0.206  -4.820  -0.394  0.00  0.00    +0.013 A 
ATOM     35  C   UNL     1      -1.026  -5.400  -1.339  0.00  0.00    +0.001 A 
ATOM     36  C   UNL     1      -0.550  -6.422  -2.140  0.00  0.00    +0.000 A 
ATOM     37  C   UNL     1       0.752  -6.870  -2.000  0.00  0.00    +0.001 A 
ATOM     38  C   UNL     1       1.585  -6.295  -1.062  0.00  0.00    +0.013 A 
ENDBRANCH  25  33
ENDBRANCH  23  24
ENDBRANCH   5  23
TORSDOF 6
