REMARK  Name = ZINC00780201
REMARK  8 active torsions:
REMARK  status: ('A' for Active; 'I' for Inactive)
REMARK    1  A    between atoms: C_1  and  C_2
REMARK    2  A    between atoms: C_5  and  S_8
REMARK    3  A    between atoms: S_8  and  N_11
REMARK    4  A    between atoms: C_17  and  C_18
REMARK    5  A    between atoms: C_17  and  N_50
REMARK    6  A    between atoms: C_18  and  O_19
REMARK    7  A    between atoms: O_19  and  C_20
REMARK    8  A    between atoms: C_20  and  C_22
REMARK                            x       y       z     vdW  Elec       q    Type
REMARK                         _______ _______ _______ _____ _____    ______ ____
ROOT
ATOM      1  N   UNL     1      -5.860  -0.656  -3.704  0.00  0.00    -0.098 NA
ATOM      2  C   UNL     1      -4.870  -1.242  -3.092  0.00  0.00    +0.197 C 
ATOM      3  N   UNL     1      -4.884  -2.599  -2.796  0.00  0.00    -0.333 N 
ATOM      4  C   UNL     1      -4.357  -3.002  -1.482  0.00  0.00    +0.031 C 
ATOM      5  C   UNL     1      -3.172  -0.889  -1.376  0.00  0.00    +0.031 C 
ATOM      6  N   UNL     1      -3.735  -0.549  -2.693  0.00  0.00    -0.333 N 
ATOM      7  H   UNL     1      -5.226  -3.251  -3.427  0.00  0.00    +0.146 HD
ATOM      8  H   UNL     1      -3.331   0.129  -3.258  0.00  0.00    +0.146 HD
ATOM      9  N   UNL     1      -3.035  -2.361  -1.297  0.00  0.00    +0.402 N 
ATOM     10  H   UNL     1      -2.404  -2.678  -2.042  0.00  0.00    -0.077 HD
ENDROOT
BRANCH   1  11
ATOM     11  S   UNL     1      -5.788   0.966  -4.031  0.00  0.00    +0.102 S 
ATOM     12  O   UNL     1      -5.808   1.634  -2.776  0.00  0.00    -0.146 OA
ATOM     13  O   UNL     1      -4.740   1.144  -4.973  0.00  0.00    -0.146 OA
BRANCH  11  18
ATOM     14  C   UNL     1     -10.912   2.447  -6.853  0.00  0.00    +0.044 C 
ATOM     15  C   UNL     1      -9.632   2.077  -6.148  0.00  0.00    -0.050 A 
ATOM     16  C   UNL     1      -9.559   2.142  -4.769  0.00  0.00    +0.005 A 
ATOM     17  C   UNL     1      -8.385   1.803  -4.122  0.00  0.00    +0.029 A 
ATOM     18  C   UNL     1      -7.285   1.398  -4.855  0.00  0.00    +0.113 A 
ATOM     19  C   UNL     1      -7.356   1.338  -6.234  0.00  0.00    +0.029 A 
ATOM     20  C   UNL     1      -8.531   1.673  -6.880  0.00  0.00    +0.005 A 
ENDBRANCH  11  18
ENDBRANCH   1  11
BRANCH   9  21
ATOM     21  C   UNL     1      -2.465  -2.746   0.011  0.00  0.00    -0.033 C 
BRANCH  21  22
ATOM     22  C   UNL     1      -1.908  -4.167  -0.096  0.00  0.00    +0.214 C 
BRANCH  22  23
ATOM     23  O   UNL     1      -0.806  -4.184  -1.042  0.00  0.00    -0.463 OA
BRANCH  23  24
ATOM     24  C   UNL     1      -0.200  -5.369  -1.253  0.00  0.00    +0.339 C 
ATOM     25  O   UNL     1      -0.582  -6.360  -0.663  0.00  0.00    -0.245 OA
BRANCH  24  26
ATOM     26  C   UNL     1       0.929  -5.463  -2.201  0.00  0.00    +0.059 A 
ATOM     27  C   UNL     1       1.367  -4.326  -2.885  0.00  0.00    +0.015 A 
ATOM     28  C   UNL     1       2.425  -4.420  -3.764  0.00  0.00    +0.001 A 
ATOM     29  C   UNL     1       3.045  -5.638  -3.979  0.00  0.00    +0.000 A 
ATOM     30  C   UNL     1       2.613  -6.769  -3.309  0.00  0.00    +0.001 A 
ATOM     31  C   UNL     1       1.559  -6.689  -2.422  0.00  0.00    +0.015 A 
ENDBRANCH  24  26
ENDBRANCH  23  24
ENDBRANCH  22  23
ENDBRANCH  21  22
ENDBRANCH   9  21
TORSDOF 7
