REMARK  Name = ZINC08951692
REMARK  8 active torsions:
REMARK  status: ('A' for Active; 'I' for Inactive)
REMARK    1  A    between atoms: C_1  and  C_2
REMARK    2  A    between atoms: C_2  and  C_4
REMARK    3  A    between atoms: C_2  and  N_10
REMARK    4  A    between atoms: C_11  and  C_13
REMARK    5  A    between atoms: C_13  and  C_36
REMARK    6  A    between atoms: N_15  and  C_30
REMARK    7  A    between atoms: C_19  and  C_20
REMARK    8  A    between atoms: C_23  and  N_26
REMARK                            x       y       z     vdW  Elec       q    Type
REMARK                         _______ _______ _______ _____ _____    ______ ____
ROOT
ATOM      1  C   UNL     1      -1.141   1.934   1.742  0.00  0.00    +0.144 C 
ATOM      2  C   UNL     1      -0.064   1.421   1.012  0.00  0.00    +0.111 A 
ATOM      3  N   UNL     1       1.135   2.024   0.723  0.00  0.00    -0.269 N 
ATOM      4  C   UNL     1       2.054   1.397   0.009  0.00  0.00    +0.270 A 
ATOM      5  O   UNL     1       3.121   1.917  -0.255  0.00  0.00    -0.266 OA
ATOM      6  C   UNL     1       1.724   0.034  -0.454  0.00  0.00    +0.079 A 
ATOM      7  C   UNL     1       2.467  -0.829  -1.192  0.00  0.00    +0.028 C 
ATOM      8  S   UNL     1       0.082  -0.173   0.221  0.00  0.00    -0.064 S 
ENDROOT
BRANCH   7   9
ATOM      9  C   UNL     1       3.734  -0.384  -1.788  0.00  0.00    -0.024 A 
ATOM     10  C   UNL     1       3.830   0.884  -2.373  0.00  0.00    +0.010 A 
ATOM     11  C   UNL     1       5.024   1.296  -2.924  0.00  0.00    +0.033 A 
ATOM     12  C   UNL     1       6.124   0.456  -2.910  0.00  0.00    +0.126 A 
ATOM     13  C   UNL     1       6.036  -0.802  -2.339  0.00  0.00    +0.033 A 
ATOM     14  C   UNL     1       4.851  -1.228  -1.778  0.00  0.00    +0.010 A 
BRANCH  12  15
ATOM     15  N   UNL     1       7.401   0.905  -3.509  0.00  0.00    +0.056 N 
ATOM     16  O   UNL     1       8.371   0.168  -3.499  0.00  0.00    -0.126 OA
ATOM     17  O   UNL     1       7.482   2.011  -4.013  0.00  0.00    -0.126 OA
ENDBRANCH  12  15
ENDBRANCH   7   9
BRANCH   3  18
ATOM     18  C   UNL     1       1.388   3.320   1.191  0.00  0.00    +0.051 A 
ATOM     19  C   UNL     1       1.053   4.419   0.411  0.00  0.00    +0.026 A 
ATOM     20  C   UNL     1       1.298   5.696   0.878  0.00  0.00    +0.002 A 
ATOM     21  C   UNL     1       1.888   5.880   2.115  0.00  0.00    +0.000 A 
ATOM     22  C   UNL     1       2.229   4.787   2.891  0.00  0.00    +0.002 A 
ATOM     23  C   UNL     1       1.980   3.509   2.433  0.00  0.00    +0.026 A 
ENDBRANCH   3  18
BRANCH   1  25
ATOM     24  N   UNL     1      -3.412   1.653   2.570  0.00  0.00    -0.304 N 
ATOM     25  C   UNL     1      -2.374   1.159   1.866  0.00  0.00    +0.257 C 
ATOM     26  O   UNL     1      -2.464   0.067   1.334  0.00  0.00    -0.269 OA
ATOM     27  H   UNL     1      -3.341   2.522   2.994  0.00  0.00    +0.150 HD
BRANCH  24  29
ATOM     28  C   UNL     1      -5.539   1.136   1.478  0.00  0.00    +0.033 C 
ATOM     29  C   UNL     1      -4.648   0.876   2.695  0.00  0.00    +0.100 C 
BRANCH  29  30
ATOM     30  C   UNL     1      -5.376   1.289   3.948  0.00  0.00    -0.027 A 
ATOM     31  C   UNL     1      -5.420   2.621   4.315  0.00  0.00    +0.005 A 
ATOM     32  C   UNL     1      -6.091   3.000   5.462  0.00  0.00    +0.000 A 
ATOM     33  C   UNL     1      -6.711   2.046   6.248  0.00  0.00    +0.000 A 
ATOM     34  C   UNL     1      -6.663   0.713   5.883  0.00  0.00    +0.000 A 
ATOM     35  C   UNL     1      -5.995   0.335   4.734  0.00  0.00    +0.005 A 
ENDBRANCH  29  30
ENDBRANCH  24  29
ENDBRANCH   1  25
BRANCH   1  36
ATOM     36  C   UNL     1      -1.035   3.217   2.367  0.00  0.00    +0.107 C 
ATOM     37  N   UNL     1      -0.952   4.236   2.864  0.00  0.00    -0.191 NA
ENDBRANCH   1  36
TORSDOF 7
