REMARK  Name = ZINC13204346
REMARK  8 active torsions:
REMARK  status: ('A' for Active; 'I' for Inactive)
REMARK    1  A    between atoms: C_6  and  C_7
REMARK    2  A    between atoms: C_10  and  S_15
REMARK    3  A    between atoms: N_11  and  C_12
REMARK    4  A    between atoms: C_12  and  C_13
REMARK    5  A    between atoms: S_15  and  C_16
REMARK    6  A    between atoms: C_16  and  C_17
REMARK    7  A    between atoms: N_19  and  C_20
REMARK    8  A    between atoms: C_20  and  C_25
REMARK                            x       y       z     vdW  Elec       q    Type
REMARK                         _______ _______ _______ _____ _____    ______ ____
ROOT
ATOM      1  C   UNL     1       0.047   1.479   0.081  0.00  0.00    +0.165 A 
ATOM      2  N   UNL     1       1.045   2.329   0.026  0.00  0.00    -0.128 NA
ATOM      3  N   UNL     1       0.594   3.531  -0.041  0.00  0.00    -0.122 NA
ATOM      4  C   UNL     1      -0.720   3.521  -0.032  0.00  0.00    +0.193 A 
ATOM      5  N   UNL     1      -1.114   2.216   0.041  0.00  0.00    -0.291 N 
ENDROOT
BRANCH   1  11
ATOM      6  C   UNL     1      -0.936  -0.748   0.611  0.00  0.00    +0.013 A 
ATOM      7  C   UNL     1      -0.834  -2.122   0.684  0.00  0.00    +0.021 A 
ATOM      8  C   UNL     1       0.345  -2.752   0.324  0.00  0.00    +0.041 A 
ATOM      9  C   UNL     1       1.428  -2.008  -0.114  0.00  0.00    +0.021 A 
ATOM     10  C   UNL     1       1.337  -0.634  -0.195  0.00  0.00    +0.013 A 
ATOM     11  C   UNL     1       0.150   0.006   0.166  0.00  0.00    +0.019 A 
ATOM     12 CL   UNL     1       0.467  -4.481   0.424  0.00  0.00    -0.084 Cl
ENDBRANCH   1  11
BRANCH   5  13
ATOM     13  C   UNL     1      -2.488   1.706   0.071  0.00  0.00    +0.250 C 
BRANCH  13  14
ATOM     14  C   UNL     1      -2.969   1.643   1.498  0.00  0.00    +0.375 C 
ATOM     15  O   UNL     1      -2.239   1.988   2.397  0.00  0.00    -0.244 OA
ATOM     16  O   UNL     1      -4.207   1.204   1.770  0.00  0.00    -0.244 OA
ENDBRANCH  13  14
ENDBRANCH   5  13
BRANCH   4  17
ATOM     17  S   UNL     1      -1.776   4.929  -0.108  0.00  0.00    -0.077 S 
BRANCH  17  18
ATOM     18  C   UNL     1      -0.538   6.247  -0.192  0.00  0.00    +0.173 C 
BRANCH  18  19
ATOM     19  C   UNL     1      -1.230   7.583  -0.265  0.00  0.00    +0.224 C 
ATOM     20  O   UNL     1      -2.442   7.640  -0.261  0.00  0.00    -0.275 OA
ATOM     21  N   UNL     1      -0.503   8.716  -0.336  0.00  0.00    -0.297 N 
ATOM     22  H   UNL     1       0.466   8.671  -0.339  0.00  0.00    +0.150 HD
BRANCH  21  23
ATOM     23  C   UNL     1      -1.176  10.015  -0.407  0.00  0.00    +0.121 C 
ATOM     24  C   UNL     1      -2.029  10.098  -1.690  0.00  0.00    +0.041 C 
ATOM     25  C   UNL     1      -1.874  11.569  -2.154  0.00  0.00    +0.003 C 
ATOM     26  C   UNL     1      -0.390  11.875  -1.831  0.00  0.00    +0.003 C 
ATOM     27  C   UNL     1      -0.135  11.144  -0.497  0.00  0.00    +0.041 C 
BRANCH  23  28
ATOM     28  C   UNL     1      -2.028  10.207   0.778  0.00  0.00    +0.088 C 
ATOM     29  N   UNL     1      -2.685  10.356   1.693  0.00  0.00    -0.194 NA
ENDBRANCH  23  28
ENDBRANCH  21  23
ENDBRANCH  18  19
ENDBRANCH  17  18
ENDBRANCH   4  17
TORSDOF 8
