REMARK  Name = ZINC01305413
REMARK  4 active torsions:
REMARK  status: ('A' for Active; 'I' for Inactive)
REMARK    1  A    between atoms: C_4  and  C_7
REMARK    2  A    between atoms: N_13  and  N_14
REMARK    3  A    between atoms: C_15  and  C_16
REMARK    4  A    between atoms: C_19  and  O_22
REMARK                            x       y       z     vdW  Elec       q    Type
REMARK                         _______ _______ _______ _____ _____    ______ ____
ROOT
ATOM      1  C   UNL     1       3.712  -0.703   0.184  0.00  0.00    +0.184 A 
ATOM      2  N   UNL     1       4.888  -0.144   0.114  0.00  0.00    -0.152 NA
ATOM      3  N   UNL     1       5.828  -1.144  -0.167  0.00  0.00    -0.253 N 
ATOM      4  H   UNL     1       6.784  -1.019  -0.274  0.00  0.00    +0.191 HD
ATOM      5  C   UNL     1       5.162  -2.313  -0.259  0.00  0.00    +0.197 A 
ATOM      6  S   UNL     1       5.851  -3.846  -0.588  0.00  0.00    -0.010 S 
ATOM      7  N   UNL     1       3.857  -2.059  -0.040  0.00  0.00    -0.188 N 
ENDROOT
BRANCH   1  11
ATOM      8  C   UNL     1       0.053   1.304   0.983  0.00  0.00    +0.000 A 
ATOM      9  C   UNL     1       1.235   2.021   0.931  0.00  0.00    +0.001 A 
ATOM     10  C   UNL     1       2.427   1.375   0.672  0.00  0.00    +0.011 A 
ATOM     11  C   UNL     1       2.438  -0.004   0.463  0.00  0.00    +0.021 A 
ATOM     12  C   UNL     1       1.243  -0.722   0.517  0.00  0.00    +0.011 A 
ATOM     13  C   UNL     1       0.058  -0.064   0.776  0.00  0.00    +0.001 A 
ENDBRANCH   1  11
BRANCH   7  14
ATOM     14  N   UNL     1       2.824  -3.005  -0.042  0.00  0.00    -0.171 NA
ATOM     15  C   UNL     1       3.102  -4.269  -0.150  0.00  0.00    +0.141 C 
BRANCH  15  16
ATOM     16  C   UNL     1       2.013  -5.257  -0.255  0.00  0.00    -0.005 A 
ATOM     17  C   UNL     1       0.681  -4.835  -0.245  0.00  0.00    +0.013 A 
ATOM     18  C   UNL     1      -0.334  -5.761  -0.344  0.00  0.00    +0.046 A 
ATOM     19  C   UNL     1      -0.035  -7.114  -0.454  0.00  0.00    +0.117 A 
ATOM     20  C   UNL     1       1.288  -7.538  -0.463  0.00  0.00    +0.046 A 
ATOM     21  C   UNL     1       2.310  -6.617  -0.371  0.00  0.00    +0.013 A 
BRANCH  19  22
ATOM     22  O   UNL     1      -1.038  -8.024  -0.551  0.00  0.00    -0.507 OA
ATOM     23  H   UNL     1      -1.312  -8.212  -1.459  0.00  0.00    +0.292 HD
ENDBRANCH  19  22
ENDBRANCH  15  16
ENDBRANCH   7  14
TORSDOF 4
