REMARK  Name = ZINC38033830
REMARK  5 active torsions:
REMARK  status: ('A' for Active; 'I' for Inactive)
REMARK    1  A    between atoms: C_1  and  C_2
REMARK    2  A    between atoms: C_3  and  C_20
REMARK    3  A    between atoms: C_7  and  N_11
REMARK    4  A    between atoms: N_11  and  C_12
REMARK    5  A    between atoms: C_14  and  N_19
REMARK                            x       y       z     vdW  Elec       q    Type
REMARK                         _______ _______ _______ _____ _____    ______ ____
ROOT
ATOM      1  N   UNL     1       0.262   1.093   2.839  0.00  0.00    -0.298 N 
ATOM      2  H   UNL     1       0.318   1.706   2.090  0.00  0.00    +0.154 HD
ENDROOT
BRANCH   1   9
ATOM      3  C   UNL     1       0.338   1.407  -0.015  0.00  0.00    +0.045 C 
ATOM      4  C   UNL     1       0.003  -0.062   0.025  0.00  0.00    -0.028 A 
ATOM      5  C   UNL     1      -0.147  -0.754  -1.114  0.00  0.00    -0.008 A 
ATOM      6  S   UNL     1      -0.527  -2.403  -0.552  0.00  0.00    -0.074 S 
ATOM      7  C   UNL     1      -0.473  -2.118   1.197  0.00  0.00    +0.114 A 
ATOM      8  C   UNL     1      -0.155  -0.745   1.297  0.00  0.00    +0.051 A 
ATOM      9  C   UNL     1      -0.042  -0.240   2.621  0.00  0.00    +0.135 A 
ATOM     10  N   UNL     1      -0.231  -1.060   3.643  0.00  0.00    -0.220 NA
ATOM     11  C   UNL     1      -0.522  -2.337   3.475  0.00  0.00    +0.224 A 
ATOM     12  N   UNL     1      -0.650  -2.862   2.271  0.00  0.00    -0.228 NA
ATOM     13  C   UNL     1      -0.026  -0.257  -2.531  0.00  0.00    +0.052 C 
ENDBRANCH   1   9
BRANCH   1  14
ATOM     14  C   UNL     1       0.487   1.555   4.139  0.00  0.00    +0.053 A 
ATOM     15  C   UNL     1       0.813   0.659   5.148  0.00  0.00    +0.047 A 
ATOM     16  C   UNL     1       1.036   1.122   6.437  0.00  0.00    +0.026 A 
ATOM     17  C   UNL     1       0.933   2.479   6.715  0.00  0.00    +0.024 A 
ATOM     18  C   UNL     1       0.608   3.369   5.709  0.00  0.00    +0.023 A 
ATOM     19  C   UNL     1       0.390   2.913   4.422  0.00  0.00    +0.062 A 
ATOM     20 CL   UNL     1      -0.011   4.035   3.160  0.00  0.00    -0.082 Cl
BRANCH  16  21
ATOM     21  N   UNL     1       1.364   0.223   7.456  0.00  0.00    -0.358 N 
ATOM     22  H   UNL     1       1.435  -0.725   7.262  0.00  0.00    +0.142 HD
ATOM     23  H   UNL     1       1.520   0.546   8.357  0.00  0.00    +0.142 HD
ENDBRANCH  16  21
ENDBRANCH   1  14
TORSDOF 3
