REMARK  Name = ZINC08236909
REMARK  12 active torsions:
REMARK  status: ('A' for Active; 'I' for Inactive)
REMARK    1  A    between atoms: C_1  and  C_2
REMARK    2  A    between atoms: C_3  and  C_26
REMARK    3  A    between atoms: C_4  and  C_17
REMARK    4  A    between atoms: N_8  and  C_15
REMARK    5  A    between atoms: N_11  and  C_14
REMARK    6  A    between atoms: C_20  and  C_23
REMARK    7  A    between atoms: C_23  and  C_24
REMARK    8  A    between atoms: C_23  and  C_25
REMARK    9  A    between atoms: C_26  and  O_28
REMARK   10  A    between atoms: O_28  and  C_29
REMARK   11  A    between atoms: C_29  and  C_30
REMARK   12  A    between atoms: C_29  and  C_31
REMARK                            x       y       z     vdW  Elec       q    Type
REMARK                         _______ _______ _______ _____ _____    ______ ____
ROOT
ATOM      1  C   UNL     1       2.112   5.581   0.771  0.00  0.00    +0.061 C 
ATOM      2  C   UNL     1       2.248   4.135   0.370  0.00  0.00    +0.017 C 
ATOM      3  C   UNL     1       3.462   3.561   0.364  0.00  0.00    +0.065 C 
ATOM      4  C   UNL     1       3.655   2.127  -0.035  0.00  0.00    +0.096 C 
ATOM      5  C   UNL     1       2.348   1.385  -0.016  0.00  0.00    +0.067 A 
ATOM      6  C   UNL     1       1.160   2.052   0.002  0.00  0.00    +0.116 A 
ATOM      7  N   UNL     1      -0.016   1.341   0.009  0.00  0.00    -0.284 N 
ATOM      8  C   UNL     1       0.002  -0.004   0.002  0.00  0.00    +0.333 A 
ATOM      9  O   UNL     1      -1.048  -0.617   0.008  0.00  0.00    -0.246 OA
ATOM     10  N   UNL     1       1.165  -0.680  -0.012  0.00  0.00    -0.264 N 
ATOM     11  C   UNL     1       2.341  -0.022  -0.021  0.00  0.00    +0.262 A 
ATOM     12  O   UNL     1       3.391  -0.641  -0.033  0.00  0.00    -0.267 OA
ATOM     13  C   UNL     1       1.153  -2.146  -0.018  0.00  0.00    +0.157 C 
ATOM     14  C   UNL     1      -1.297   2.053   0.019  0.00  0.00    +0.155 C 
ATOM     15  N   UNL     1       1.133   3.426   0.017  0.00  0.00    -0.303 N 
ATOM     16  H   UNL     1       0.319   3.895  -0.225  0.00  0.00    +0.153 HD
ENDROOT
BRANCH   4  17
ATOM     17  C   UNL     1       4.234   2.074  -1.426  0.00  0.00    -0.035 A 
ATOM     18  C   UNL     1       3.525   2.600  -2.490  0.00  0.00    +0.005 A 
ATOM     19  C   UNL     1       4.059   2.556  -3.764  0.00  0.00    +0.004 A 
ATOM     20  C   UNL     1       5.296   1.977  -3.977  0.00  0.00    -0.045 A 
ATOM     21  C   UNL     1       6.002   1.446  -2.913  0.00  0.00    +0.004 A 
ATOM     22  C   UNL     1       5.471   1.495  -1.638  0.00  0.00    +0.005 A 
BRANCH  20  23
ATOM     23  C   UNL     1       5.875   1.923  -5.367  0.00  0.00    +0.013 C 
ATOM     24  C   UNL     1       4.935   1.134  -6.280  0.00  0.00    +0.012 C 
ATOM     25  C   UNL     1       6.035   3.346  -5.907  0.00  0.00    +0.012 C 
ENDBRANCH  20  23
ENDBRANCH   4  17
BRANCH   3  26
ATOM     26  C   UNL     1       4.588   4.327   0.744  0.00  0.00    +0.338 C 
ATOM     27  O   UNL     1       4.450   5.491   1.071  0.00  0.00    -0.245 OA
BRANCH  26  28
ATOM     28  O   UNL     1       5.816   3.767   0.744  0.00  0.00    -0.459 OA
BRANCH  28  29
ATOM     29  C   UNL     1       6.909   4.600   1.139  0.00  0.00    +0.171 C 
ATOM     30  C   UNL     1       7.995   3.741   1.790  0.00  0.00    +0.052 C 
ATOM     31  C   UNL     1       7.484   5.304  -0.091  0.00  0.00    +0.052 C 
ENDBRANCH  28  29
ENDBRANCH  26  28
ENDBRANCH   3  26
TORSDOF 5
