REMARK  Name = ZINC11785362
REMARK  7 active torsions:
REMARK  status: ('A' for Active; 'I' for Inactive)
REMARK    1  A    between atoms: C_3  and  C_7
REMARK    2  A    between atoms: C_7  and  C_8
REMARK    3  A    between atoms: C_8  and  C_9
REMARK    4  A    between atoms: N_11  and  C_12
REMARK    5  A    between atoms: C_12  and  C_13
REMARK    6  A    between atoms: C_22  and  C_23
REMARK    7  A    between atoms: C_22  and  N_58
REMARK                            x       y       z     vdW  Elec       q    Type
REMARK                         _______ _______ _______ _____ _____    ______ ____
ROOT
ATOM      1  C   UNL     1       3.023   0.593   3.170  0.00  0.00    +0.151 A 
ATOM      2  N   UNL     1       3.660   1.710   2.937  0.00  0.00    -0.133 NA
ATOM      3  N   UNL     1       3.305   2.183   1.793  0.00  0.00    -0.134 NA
ATOM      4  C   UNL     1       2.433   1.387   1.246  0.00  0.00    +0.132 A 
ATOM      5  N   UNL     1       2.219   0.365   2.110  0.00  0.00    -0.315 N 
ATOM      6  C   UNL     1       1.288  -0.747   1.915  0.00  0.00    +0.106 C 
ATOM      7  C   UNL     1       1.114  -1.000   0.414  0.00  0.00    -0.056 C 
ATOM      8  C   UNL     1       0.277   1.255   0.046  0.00  0.00    -0.071 C 
ATOM      9  C   UNL     1       1.777   1.526  -0.103  0.00  0.00    +0.058 C 
ATOM     10  N   UNL     1       0.007  -0.187  -0.141  0.00  0.00    +0.384 N 
ATOM     11  H   UNL     1      -0.072  -0.381  -1.147  0.00  0.00    -0.081 HD
ENDROOT
BRANCH   1  12
ATOM     12  C   UNL     1       3.159  -0.277   4.393  0.00  0.00    +0.180 C 
BRANCH  12  15
ATOM     13  C   UNL     1       4.518  -2.158   5.139  0.00  0.00    +0.214 C 
ATOM     14  O   UNL     1       3.913  -2.140   6.190  0.00  0.00    -0.276 OA
ATOM     15  N   UNL     1       4.217  -1.266   4.173  0.00  0.00    -0.308 N 
ATOM     16  H   UNL     1       4.701  -1.280   3.333  0.00  0.00    +0.149 HD
BRANCH  13  17
ATOM     17  C   UNL     1       5.606  -3.175   4.912  0.00  0.00    +0.100 C 
BRANCH  17  18
ATOM     18  C   UNL     1       5.745  -4.058   6.154  0.00  0.00    +0.046 C 
BRANCH  18  21
ATOM     19  C   UNL     1       7.567  -7.216   5.182  0.00  0.00    +0.020 A 
ATOM     20  C   UNL     1       6.534  -6.313   5.377  0.00  0.00    +0.006 A 
ATOM     21  C   UNL     1       6.833  -5.076   5.928  0.00  0.00    -0.029 A 
ATOM     22  C   UNL     1       8.140  -4.791   6.272  0.00  0.00    +0.114 A 
ATOM     23  N   UNL     1       9.098  -5.676   6.077  0.00  0.00    -0.263 NA
ATOM     24  C   UNL     1       8.851  -6.860   5.550  0.00  0.00    +0.111 A 
ENDBRANCH  18  21
ENDBRANCH  17  18
ENDBRANCH  13  17
ENDBRANCH  12  15
ENDBRANCH   1  12
BRANCH  10  25
ATOM     25  C   UNL     1      -1.261  -0.550   0.516  0.00  0.00    -0.041 C 
BRANCH  25  26
ATOM     26  C   UNL     1      -2.398  -0.099  -0.363  0.00  0.00    -0.042 A 
ATOM     27  C   UNL     1      -3.129   1.025  -0.024  0.00  0.00    +0.052 A 
ATOM     28  C   UNL     1      -4.174   1.442  -0.830  0.00  0.00    +0.167 A 
ATOM     29  C   UNL     1      -4.489   0.727  -1.983  0.00  0.00    +0.168 A 
ATOM     30  C   UNL     1      -3.753  -0.398  -2.318  0.00  0.00    +0.069 A 
ATOM     31  C   UNL     1      -2.707  -0.806  -1.511  0.00  0.00    +0.046 A 
ATOM     32 CL   UNL     1      -1.782  -2.212  -1.937  0.00  0.00    -0.083 Cl
ATOM     33  O   UNL     1      -5.546   1.334  -2.598  0.00  0.00    -0.453 OA
ATOM     34  C   UNL     1      -6.135   2.186  -1.599  0.00  0.00    +0.466 C 
ATOM     35  O   UNL     1      -5.035   2.497  -0.723  0.00  0.00    -0.453 OA
ENDBRANCH  25  26
ENDBRANCH  10  25
TORSDOF 7
