REMARK  Name = ZINC33812255
REMARK  11 active torsions:
REMARK  status: ('A' for Active; 'I' for Inactive)
REMARK    1  A    between atoms: C_1  and  C_2
REMARK    2  A    between atoms: C_3  and  C_22
REMARK    3  A    between atoms: C_4  and  N_12
REMARK    4  A    between atoms: N_5  and  C_11
REMARK    5  A    between atoms: C_8  and  C_9
REMARK    6  A    between atoms: C_14  and  C_21
REMARK    7  A    between atoms: C_17  and  C_20
REMARK    8  A    between atoms: N_26  and  C_30
REMARK    9  A    between atoms: C_30  and  C_31
REMARK   10  A    between atoms: C_34  and  O_37
REMARK   11  A    between atoms: O_37  and  C_38
REMARK                            x       y       z     vdW  Elec       q    Type
REMARK                         _______ _______ _______ _____ _____    ______ ____
ROOT
ATOM      1  C   UNL     1      -2.492  -0.150  -0.271  0.00  0.00    +0.046 C 
ATOM      2  C   UNL     1      -2.612   1.341  -0.093  0.00  0.00    -0.017 A 
ATOM      3  C   UNL     1      -1.463   2.149  -0.043  0.00  0.00    +0.019 A 
ATOM      4  C   UNL     1      -1.601   3.537   0.118  0.00  0.00    +0.111 A 
ATOM      5  N   UNL     1      -2.832   4.100   0.230  0.00  0.00    -0.298 N 
ATOM      6  C   UNL     1      -3.947   3.348   0.190  0.00  0.00    +0.270 A 
ATOM      7  O   UNL     1      -5.039   3.880   0.293  0.00  0.00    -0.266 OA
ATOM      8  C   UNL     1      -3.862   1.941   0.029  0.00  0.00    +0.120 A 
ATOM      9  C   UNL     1      -2.948   5.550   0.397  0.00  0.00    +0.154 C 
ENDROOT
BRANCH   4  10
ATOM     10  N   UNL     1      -0.490   4.327   0.162  0.00  0.00    -0.315 N 
ATOM     11  C   UNL     1       0.220   4.310  -1.124  0.00  0.00    +0.109 C 
ATOM     12  C   UNL     1       1.373   5.315  -1.085  0.00  0.00    +0.004 C 
ATOM     13  C   UNL     1       2.329   4.944   0.052  0.00  0.00    +0.009 C 
ATOM     14  C   UNL     1       1.554   4.922   1.373  0.00  0.00    +0.004 C 
ATOM     15  C   UNL     1       0.396   3.928   1.263  0.00  0.00    +0.109 C 
ATOM     16  C   UNL     1       2.489   4.494   2.506  0.00  0.00    +0.009 C 
ATOM     17  C   UNL     1       0.818   6.721  -0.847  0.00  0.00    +0.009 C 
ENDBRANCH   4  10
BRANCH   3  18
ATOM     18  C   UNL     1      -0.133   1.548  -0.164  0.00  0.00    +0.032 C 
ATOM     19  C   UNL     1       0.336   0.732   0.819  0.00  0.00    +0.077 C 
ATOM     20  C   UNL     1       1.524  -0.060   0.852  0.00  0.00    +0.259 C 
ATOM     21  O   UNL     1       2.296  -0.072  -0.090  0.00  0.00    -0.269 OA
ATOM     22  N   UNL     1       1.762  -0.778   1.935  0.00  0.00    -0.251 N 
ATOM     23  C   UNL     1       0.905  -0.764   2.980  0.00  0.00    +0.121 C 
ATOM     24  S   UNL     1       1.012  -1.608   4.466  0.00  0.00    -0.027 S 
ATOM     25  S   UNL     1      -0.363   0.363   2.422  0.00  0.00    -0.061 S 
BRANCH  22  26
ATOM     26  C   UNL     1       2.971  -1.602   2.004  0.00  0.00    +0.150 C 
BRANCH  26  27
ATOM     27  C   UNL     1       4.097  -0.793   2.596  0.00  0.00    -0.029 A 
ATOM     28  C   UNL     1       4.928  -0.060   1.770  0.00  0.00    +0.009 A 
ATOM     29  C   UNL     1       5.957   0.687   2.310  0.00  0.00    +0.046 A 
ATOM     30  C   UNL     1       6.163   0.692   3.682  0.00  0.00    +0.120 A 
ATOM     31  C   UNL     1       5.330  -0.049   4.509  0.00  0.00    +0.046 A 
ATOM     32  C   UNL     1       4.299  -0.790   3.964  0.00  0.00    +0.009 A 
BRANCH  30  33
ATOM     33  O   UNL     1       7.178   1.421   4.216  0.00  0.00    -0.495 OA
ATOM     34  C   UNL     1       7.995   2.159   3.305  0.00  0.00    +0.277 C 
ENDBRANCH  30  33
ENDBRANCH  26  27
ENDBRANCH  22  26
ENDBRANCH   3  18
BRANCH   8  35
ATOM     35  C   UNL     1      -5.052   1.146  -0.013  0.00  0.00    +0.105 C 
ATOM     36  N   UNL     1      -5.996   0.515  -0.046  0.00  0.00    -0.191 NA
ENDBRANCH   8  35
TORSDOF 6
