REMARK  Name = ZINC20817481
REMARK  8 active torsions:
REMARK  status: ('A' for Active; 'I' for Inactive)
REMARK    1  A    between atoms: C_1  and  C_2
REMARK    2  A    between atoms: C_2  and  C_4
REMARK    3  A    between atoms: C_2  and  N_24
REMARK    4  A    between atoms: C_4  and  O_6
REMARK    5  A    between atoms: O_6  and  C_7
REMARK    6  A    between atoms: C_7  and  C_9
REMARK    7  A    between atoms: C_7  and  C_10
REMARK    8  A    between atoms: C_15  and  C_18
REMARK                            x       y       z     vdW  Elec       q    Type
REMARK                         _______ _______ _______ _____ _____    ______ ____
ROOT
ATOM      1  C   UNL     1      -0.013   1.086   0.008  0.00  0.00    +0.259 C 
ATOM      2  C   UNL     1      -0.753   1.593  -1.232  0.00  0.00    +0.062 C 
ENDROOT
BRANCH   1   3
ATOM      3  C   UNL     1      -0.718   1.572   1.248  0.00  0.00    +0.259 C 
ATOM      4  O   UNL     1      -0.162   2.345   1.998  0.00  0.00    -0.271 OA
ATOM      5  N   UNL     1      -1.967   1.147   1.523  0.00  0.00    -0.262 N 
ATOM      6  C   UNL     1      -2.618   1.595   2.666  0.00  0.00    +0.165 A 
ATOM      7  N   UNL     1      -3.826   1.302   3.109  0.00  0.00    -0.225 NA
ATOM      8  C   UNL     1      -4.293   1.825   4.232  0.00  0.00    +0.080 A 
ATOM      9  C   UNL     1      -3.508   2.686   4.948  0.00  0.00    +0.076 A 
ATOM     10  S   UNL     1      -2.037   2.715   3.932  0.00  0.00    -0.060 S 
ATOM     11  H   UNL     1      -2.472   0.445   0.843  0.00  0.00    +0.157 HD
BRANCH   8  12
ATOM     12  C   UNL     1      -5.654   1.481   4.709  0.00  0.00    +0.001 A 
ATOM     13  C   UNL     1      -6.140   2.030   5.895  0.00  0.00    +0.010 A 
ATOM     14  C   UNL     1      -7.409   1.711   6.331  0.00  0.00    +0.001 A 
ATOM     15  C   UNL     1      -8.196   0.839   5.600  0.00  0.00    +0.000 A 
ATOM     16  C   UNL     1      -7.717   0.286   4.425  0.00  0.00    +0.001 A 
ATOM     17  C   UNL     1      -6.451   0.603   3.977  0.00  0.00    +0.010 A 
ENDBRANCH   8  12
ENDBRANCH   1   3
BRANCH   1  18
ATOM     18  O   UNL     1       1.349   1.588  -0.002  0.00  0.00    -0.451 OA
BRANCH  18  19
ATOM     19  C   UNL     1       2.274   0.831  -0.613  0.00  0.00    +0.329 C 
ATOM     20  O   UNL     1       1.955  -0.217  -1.123  0.00  0.00    -0.249 OA
BRANCH  19  22
ATOM     21  C   UNL     1       3.791   2.631  -1.393  0.00  0.00    +0.040 C 
ATOM     22  C   UNL     1       3.709   1.288  -0.664  0.00  0.00    +0.190 C 
BRANCH  22  23
ATOM     23  N   UNL     1       4.513   0.294  -1.379  0.00  0.00    -0.220 N 
ATOM     24  C   UNL     1       4.301  -0.083  -2.653  0.00  0.00    +0.255 C 
ATOM     25  O   UNL     1       3.426   0.341  -3.381  0.00  0.00    -0.270 OA
ATOM     26  C   UNL     1       5.312  -1.097  -3.019  0.00  0.00    +0.049 A 
ATOM     27  C   UNL     1       5.582  -1.824  -4.168  0.00  0.00    +0.014 A 
ATOM     28  C   UNL     1       6.635  -2.726  -4.179  0.00  0.00    +0.001 A 
ATOM     29  C   UNL     1       7.416  -2.904  -3.052  0.00  0.00    +0.001 A 
ATOM     30  C   UNL     1       7.158  -2.184  -1.897  0.00  0.00    +0.014 A 
ATOM     31  C   UNL     1       6.109  -1.279  -1.871  0.00  0.00    +0.049 A 
ATOM     32  C   UNL     1       5.558  -0.366  -0.847  0.00  0.00    +0.255 C 
ATOM     33  O   UNL     1       5.977  -0.234   0.285  0.00  0.00    -0.270 OA
ENDBRANCH  22  23
ENDBRANCH  19  22
ENDBRANCH  18  19
ENDBRANCH   1  18
TORSDOF 6
