REMARK  Name = ZINC12436059
REMARK  6 active torsions:
REMARK  status: ('A' for Active; 'I' for Inactive)
REMARK    1  A    between atoms: C_1  and  O_2
REMARK    2  A    between atoms: O_2  and  C_3
REMARK    3  A    between atoms: C_3  and  C_4
REMARK    4  A    between atoms: C_4  and  N_63
REMARK    5  A    between atoms: C_13  and  N_65
REMARK    6  A    between atoms: N_16  and  C_19
REMARK                            x       y       z     vdW  Elec       q    Type
REMARK                         _______ _______ _______ _____ _____    ______ ____
ROOT
ATOM      1  C   UNL     1       1.421   4.685  -0.912  0.00  0.00    -0.079 C 
ATOM      2  C   UNL     1       1.182   3.539  -1.899  0.00  0.00    -0.018 C 
ATOM      3  C   UNL     1       1.910   2.286  -1.400  0.00  0.00    +0.001 C 
ATOM      4  C   UNL     1       1.431   1.955   0.008  0.00  0.00    -0.061 C 
ATOM      5  C   UNL     1       1.624   3.140   0.944  0.00  0.00    -0.074 C 
ATOM      6  C   UNL     1      -0.045   1.518  -0.013  0.00  0.00    -0.015 C 
ATOM      7  C   UNL     1      -0.004  -0.023  -0.027  0.00  0.00    -0.078 C 
ATOM      8  C   UNL     1       2.171   0.715   0.550  0.00  0.00    -0.073 C 
ATOM      9  N   UNL     1       0.881   4.303   0.410  0.00  0.00    +0.381 N 
ATOM     10  H   UNL     1      -0.107   4.048   0.305  0.00  0.00    -0.082 HD
ATOM     11  N   UNL     1       1.417  -0.390  -0.057  0.00  0.00    +0.382 N 
ATOM     12  H   UNL     1       1.721  -0.524  -1.028  0.00  0.00    -0.081 HD
ENDROOT
BRANCH  11  13
ATOM     13  C   UNL     1       1.639  -1.657   0.704  0.00  0.00    -0.066 C 
ATOM     14  C   UNL     1       3.133  -1.990   0.723  0.00  0.00    +0.004 C 
ATOM     15  C   UNL     1       3.347  -3.314   1.461  0.00  0.00    +0.103 C 
ATOM     16  N   UNL     1       2.597  -4.380   0.785  0.00  0.00    -0.330 N 
ATOM     17  C   UNL     1       1.154  -4.105   0.798  0.00  0.00    +0.103 C 
ATOM     18  C   UNL     1       0.875  -2.805   0.039  0.00  0.00    +0.004 C 
BRANCH  16  19
ATOM     19  C   UNL     1       2.874  -5.627   1.356  0.00  0.00    +0.033 A 
ATOM     20  C   UNL     1       1.838  -6.413   1.844  0.00  0.00    +0.027 A 
ATOM     21  C   UNL     1       2.110  -7.647   2.404  0.00  0.00    +0.051 A 
ATOM     22  C   UNL     1       3.417  -8.099   2.489  0.00  0.00    +0.166 A 
ATOM     23  C   UNL     1       4.458  -7.311   2.006  0.00  0.00    +0.168 A 
ATOM     24  C   UNL     1       4.185  -6.076   1.440  0.00  0.00    +0.072 A 
ATOM     25  O   UNL     1       5.636  -7.972   2.205  0.00  0.00    -0.453 OA
ATOM     26  C   UNL     1       5.271  -9.345   2.442  0.00  0.00    +0.466 C 
ATOM     27  O   UNL     1       3.943  -9.255   2.992  0.00  0.00    -0.453 OA
ENDBRANCH  16  19
ENDBRANCH  11  13
BRANCH   9  28
ATOM     28  C   UNL     1       0.987   5.442   1.345  0.00  0.00    -0.050 C 
BRANCH  28  29
ATOM     29  C   UNL     1       0.033   6.547   0.887  0.00  0.00    +0.141 C 
BRANCH  29  31
ATOM     30  C   UNL     1      -2.291   7.038   0.563  0.00  0.00    +0.193 C 
ATOM     31  O   UNL     1      -1.314   6.078   0.971  0.00  0.00    -0.385 OA
ENDBRANCH  29  31
ENDBRANCH  28  29
ENDBRANCH   9  28
TORSDOF 5
