REMARK  Name = ZINC00060622
REMARK  7 active torsions:
REMARK  status: ('A' for Active; 'I' for Inactive)
REMARK    1  A    between atoms: C_1  and  C_2
REMARK    2  A    between atoms: C_2  and  C_22
REMARK    3  A    between atoms: C_3  and  N_16
REMARK    4  A    between atoms: N_5  and  N_9
REMARK    5  A    between atoms: C_10  and  C_11
REMARK    6  A    between atoms: N_16  and  O_21
REMARK    7  A    between atoms: N_19  and  C_20
REMARK                            x       y       z     vdW  Elec       q    Type
REMARK                         _______ _______ _______ _____ _____    ______ ____
ROOT
ATOM      1  C   UNL     1      -4.343  -0.508   4.453  0.00  0.00    +0.026 C 
ATOM      2  C   UNL     1      -4.180   0.911   3.907  0.00  0.00    +0.056 C 
ATOM      3  C   UNL     1      -4.201   0.920   2.364  0.00  0.00    +0.232 C 
ATOM      4  N   UNL     1      -5.299   1.680   1.813  0.00  0.00    -0.187 N 
ATOM      5  C   UNL     1      -6.180   2.295   2.614  0.00  0.00    +0.132 C 
ATOM      6  S   UNL     1      -7.532   3.230   2.137  0.00  0.00    -0.026 S 
ATOM      7  S   UNL     1      -5.654   1.936   4.277  0.00  0.00    -0.091 S 
ATOM      8  C   UNL     1      -2.905   1.564   4.445  0.00  0.00    +0.026 C 
ENDROOT
BRANCH   3   9
ATOM      9  N   UNL     1      -2.942   1.492   1.880  0.00  0.00    -0.144 N 
ATOM     10  C   UNL     1      -1.917   0.683   1.548  0.00  0.00    +0.327 C 
ATOM     11  O   UNL     1      -2.000  -0.514   1.745  0.00  0.00    -0.250 OA
ATOM     12  N   UNL     1      -0.800   1.200   0.999  0.00  0.00    -0.301 N 
ATOM     13  C   UNL     1       0.314   0.320   0.639  0.00  0.00    +0.130 C 
ATOM     14  H   UNL     1      -0.734   2.155   0.842  0.00  0.00    +0.150 HD
BRANCH   9  15
ATOM     15  O   UNL     1      -2.803   2.896   1.759  0.00  0.00    -0.289 OA
ATOM     16  H   UNL     1      -3.599   3.392   1.996  0.00  0.00    +0.242 HD
ENDBRANCH   9  15
ENDBRANCH   3   9
BRANCH   4  17
ATOM     17  N   UNL     1      -5.444   1.775   0.423  0.00  0.00    -0.181 NA
ATOM     18  C   UNL     1      -5.266   2.918  -0.172  0.00  0.00    +0.176 C 
BRANCH  18  19
ATOM     19  C   UNL     1      -5.546   3.050  -1.606  0.00  0.00    +0.147 A 
ATOM     20  C   UNL     1      -5.403   4.185  -2.350  0.00  0.00    +0.051 A 
ATOM     21  C   UNL     1      -5.782   3.857  -3.665  0.00  0.00    +0.042 A 
ATOM     22  C   UNL     1      -6.134   2.555  -3.663  0.00  0.00    +0.196 A 
ATOM     23  O   UNL     1      -5.985   2.069  -2.420  0.00  0.00    -0.462 OA
ENDBRANCH  18  19
ENDBRANCH   4  17
TORSDOF 4
