REMARK  Name = ZINC36006482
REMARK  7 active torsions:
REMARK  status: ('A' for Active; 'I' for Inactive)
REMARK    1  A    between atoms: C_1  and  C_2
REMARK    2  A    between atoms: C_3  and  C_8
REMARK    3  A    between atoms: N_5  and  C_7
REMARK    4  A    between atoms: C_19  and  O_34
REMARK    5  A    between atoms: C_23  and  C_33
REMARK    6  A    between atoms: C_28  and  C_32
REMARK    7  A    between atoms: C_29  and  O_31
REMARK                            x       y       z     vdW  Elec       q    Type
REMARK                         _______ _______ _______ _____ _____    ______ ____
ROOT
ATOM      1  C   UNL     1      -0.016  -0.284  -2.666  0.00  0.00    +0.013 C 
ATOM      2  C   UNL     1       0.097  -1.200  -3.616  0.00  0.00    -0.040 C 
ATOM      3  C   UNL     1       0.220  -0.940  -5.119  0.00  0.00    +0.037 C 
ATOM      4  C   UNL     1       0.004  -2.326  -5.743  0.00  0.00    +0.005 C 
ATOM      5  C   UNL     1       0.446  -2.528  -7.155  0.00  0.00    +0.001 C 
ATOM      6  C   UNL     1       1.444  -1.494  -7.676  0.00  0.00    +0.031 C 
ATOM      7  C   UNL     1       1.695  -1.829  -9.126  0.00  0.00    -0.027 C 
ATOM      8  C   UNL     1       1.550  -3.021  -9.618  0.00  0.00    -0.065 C 
ATOM      9  C   UNL     1       1.788  -3.230 -11.104  0.00  0.00    +0.062 C 
ATOM     10  C   UNL     1       0.733  -4.215 -11.619  0.00  0.00    +0.119 C 
ATOM     11  C   UNL     1      -0.494  -4.187 -10.712  0.00  0.00    +0.032 C 
ATOM     12  C   UNL     1      -0.189  -4.755  -9.328  0.00  0.00    +0.014 C 
ATOM     13  C   UNL     1       1.148  -4.235  -8.817  0.00  0.00    -0.008 C 
ATOM     14  C   UNL     1       1.096  -3.909  -7.330  0.00  0.00    +0.003 C 
ATOM     15  C   UNL     1       0.315  -4.940  -6.527  0.00  0.00    +0.005 C 
ATOM     16  C   UNL     1       0.482  -4.695  -5.018  0.00  0.00    +0.010 C 
ATOM     17  C   UNL     1       0.738  -3.237  -4.737  0.00  0.00    +0.001 C 
ATOM     18  C   UNL     1       0.131  -2.713  -3.417  0.00  0.00    +0.147 C 
ATOM     19  C   UNL     1       2.240  -2.947  -4.674  0.00  0.00    +0.014 C 
ATOM     20  C   UNL     1       2.213  -5.322  -9.016  0.00  0.00    +0.016 C 
ENDROOT
BRANCH   1  23
ATOM     21  C   UNL     1       0.463   1.655  -0.205  0.00  0.00    +0.068 C 
ATOM     22  C   UNL     1       0.233   0.168  -0.141  0.00  0.00    +0.067 A 
ATOM     23  C   UNL     1       0.021  -0.686  -1.243  0.00  0.00    +0.015 A 
ATOM     24  C   UNL     1      -0.145  -1.952  -0.756  0.00  0.00    +0.116 A 
ATOM     25  N   UNL     1      -0.041  -1.889   0.586  0.00  0.00    -0.274 N 
ATOM     26  N   UNL     1       0.200  -0.558   0.945  0.00  0.00    -0.176 NA
ATOM     27  C   UNL     1      -0.156  -3.020   1.510  0.00  0.00    +0.172 C 
ENDBRANCH   1  23
BRANCH  18  28
ATOM     28  O   UNL     1      -1.190  -3.221  -3.249  0.00  0.00    -0.387 OA
ATOM     29  H   UNL     1      -1.651  -2.868  -2.476  0.00  0.00    +0.210 HD
ENDBRANCH  18  28
BRANCH  10  30
ATOM     30  O   UNL     1       0.348  -3.845 -12.947  0.00  0.00    -0.391 OA
ATOM     31  H   UNL     1       1.077  -3.846 -13.582  0.00  0.00    +0.210 HD
ENDBRANCH  10  30
TORSDOF 3
