REMARK  Name = ZINC09817909
REMARK  5 active torsions:
REMARK  status: ('A' for Active; 'I' for Inactive)
REMARK    1  A    between atoms: C_10  and  C_12
REMARK    2  A    between atoms: C_12  and  O_14
REMARK    3  A    between atoms: O_14  and  C_15
REMARK    4  A    between atoms: C_15  and  C_16
REMARK    5  A    between atoms: C_16  and  C_18
REMARK                            x       y       z     vdW  Elec       q    Type
REMARK                         _______ _______ _______ _____ _____    ______ ____
ROOT
ATOM      1  O   UNL     1      -0.016   1.345   0.009  0.00  0.00    -0.453 OA
ENDROOT
BRANCH   1   2
ATOM      2  C   UNL     1       0.002  -0.004   0.002  0.00  0.00    +0.346 C 
ATOM      3  O   UNL     1       1.064  -0.598  -0.011  0.00  0.00    -0.244 OA
BRANCH   2  13
ATOM      4  C   UNL     1      -7.515  -1.669  -0.185  0.00  0.00    +0.001 A 
ATOM      5  C   UNL     1      -7.767  -3.001   0.098  0.00  0.00    +0.004 A 
ATOM      6  C   UNL     1      -6.730  -3.875   0.365  0.00  0.00    +0.046 A 
ATOM      7  C   UNL     1      -5.422  -3.425   0.354  0.00  0.00    +0.129 A 
ATOM      8  C   UNL     1      -5.167  -2.069   0.049  0.00  0.00    +0.031 A 
ATOM      9  C   UNL     1      -6.216  -1.200  -0.211  0.00  0.00    +0.012 A 
ATOM     10  C   UNL     1      -3.762  -1.684   0.029  0.00  0.00    +0.030 A 
ATOM     11  C   UNL     1      -2.725  -2.629   0.012  0.00  0.00    +0.005 A 
ATOM     12  C   UNL     1      -1.450  -2.128  -0.001  0.00  0.00    +0.030 A 
ATOM     13  C   UNL     1      -1.254  -0.752   0.010  0.00  0.00    +0.097 A 
ATOM     14  S   UNL     1      -2.932  -0.131   0.029  0.00  0.00    -0.081 S 
ATOM     15  C   UNL     1      -3.119  -4.101   0.002  0.00  0.00    +0.265 C 
ATOM     16  O   UNL     1      -4.390  -4.254   0.632  0.00  0.00    -0.487 OA
ENDBRANCH   2  13
ENDBRANCH   1   2
BRANCH   1  17
ATOM     17  C   UNL     1       1.248   2.011   0.001  0.00  0.00    +0.311 C 
BRANCH  17  18
ATOM     18  C   UNL     1       1.030   3.502   0.011  0.00  0.00    +0.200 C 
ATOM     19  O   UNL     1      -0.097   3.951   0.024  0.00  0.00    -0.288 OA
BRANCH  18  20
ATOM     20  C   UNL     1       2.183   4.413   0.005  0.00  0.00    +0.023 A 
ATOM     21  C   UNL     1       3.485   3.897  -0.004  0.00  0.00    +0.015 A 
ATOM     22  C   UNL     1       4.565   4.751  -0.017  0.00  0.00    +0.048 A 
ATOM     23  C   UNL     1       4.367   6.125  -0.007  0.00  0.00    +0.142 A 
ATOM     24  C   UNL     1       3.071   6.647   0.008  0.00  0.00    +0.076 A 
ATOM     25  C   UNL     1       1.982   5.799   0.014  0.00  0.00    +0.038 A 
ATOM     26  N   UNL     1       2.893   8.038   0.019  0.00  0.00    -0.280 N 
ATOM     27  C   UNL     1       3.937   8.833  -0.303  0.00  0.00    +0.255 C 
ATOM     28  O   UNL     1       3.815  10.040  -0.273  0.00  0.00    -0.272 OA
ATOM     29  C   UNL     1       5.253   8.215  -0.701  0.00  0.00    +0.325 C 
ATOM     30  O   UNL     1       5.428   6.973  -0.014  0.00  0.00    -0.481 OA
ATOM     31  H   UNL     1       2.035   8.423   0.254  0.00  0.00    +0.155 HD
ENDBRANCH  18  20
ENDBRANCH  17  18
ENDBRANCH   1  17
TORSDOF 5
