REMARK  Name = ZINC36396931
REMARK  8 active torsions:
REMARK  status: ('A' for Active; 'I' for Inactive)
REMARK    1  A    between atoms: C_1  and  C_2
REMARK    2  A    between atoms: C_2  and  C_3
REMARK    3  A    between atoms: C_2  and  C_4
REMARK    4  A    between atoms: C_7  and  N_10
REMARK    5  A    between atoms: C_11  and  C_13
REMARK    6  A    between atoms: C_13  and  C_14
REMARK    7  A    between atoms: C_14  and  C_16
REMARK    8  A    between atoms: C_14  and  N_23
REMARK                            x       y       z     vdW  Elec       q    Type
REMARK                         _______ _______ _______ _____ _____    ______ ____
ROOT
ATOM      1  C   UNL     1      -7.509  -3.847  -2.333  0.00  0.00    +0.113 C 
ENDROOT
BRANCH   1   2
ATOM      2  C   UNL     1      -8.977  -4.185  -2.342  0.00  0.00    -0.027 A 
ATOM      3  C   UNL     1      -9.837  -3.509  -3.187  0.00  0.00    +0.006 A 
ATOM      4  C   UNL     1     -11.184  -3.820  -3.196  0.00  0.00    +0.015 A 
ATOM      5  C   UNL     1     -11.671  -4.807  -2.358  0.00  0.00    +0.018 A 
ATOM      6  C   UNL     1     -10.811  -5.483  -1.513  0.00  0.00    +0.015 A 
ATOM      7  C   UNL     1      -9.463  -5.176  -1.509  0.00  0.00    +0.006 A 
ATOM      8 BR   UNL     1     -13.514  -5.231  -2.369  0.00  0.00    -0.050 Br
ENDBRANCH   1   2
BRANCH   1   9
ATOM      9  N   UNL     1      -6.723  -5.083  -2.353  0.00  0.00    -0.292 N 
ATOM     10  C   UNL     1      -6.500  -5.721  -3.520  0.00  0.00    +0.298 C 
ATOM     11  O   UNL     1      -6.873  -5.225  -4.565  0.00  0.00    -0.253 OA
ATOM     12  N   UNL     1      -5.862  -6.908  -3.527  0.00  0.00    -0.313 N 
ATOM     13  H   UNL     1      -6.363  -5.442  -1.528  0.00  0.00    +0.151 HD
ATOM     14  H   UNL     1      -5.564  -7.304  -2.693  0.00  0.00    +0.146 HD
ATOM     15  H   UNL     1      -5.702  -7.367  -4.367  0.00  0.00    +0.146 HD
ENDBRANCH   1   9
BRANCH   1  16
ATOM     16  C   UNL     1      -7.176  -3.051  -1.069  0.00  0.00    +0.123 C 
BRANCH  16  18
ATOM     17  N   UNL     1      -5.218  -1.887  -0.105  0.00  0.00    -0.285 N 
ATOM     18  C   UNL     1      -5.737  -2.608  -1.119  0.00  0.00    +0.219 C 
ATOM     19  O   UNL     1      -5.045  -2.899  -2.072  0.00  0.00    -0.275 OA
ATOM     20  H   UNL     1      -5.747  -1.718   0.690  0.00  0.00    +0.155 HD
BRANCH  17  24
ATOM     21  C   UNL     1      -1.341  -0.388  -0.384  0.00  0.00    -0.045 A 
ATOM     22  C   UNL     1      -2.122  -0.497  -1.520  0.00  0.00    +0.006 A 
ATOM     23  C   UNL     1      -3.408  -0.994  -1.431  0.00  0.00    +0.023 A 
ATOM     24  C   UNL     1      -3.916  -1.384  -0.199  0.00  0.00    +0.033 A 
ATOM     25  C   UNL     1      -3.129  -1.274   0.940  0.00  0.00    +0.023 A 
ATOM     26  C   UNL     1      -1.842  -0.780   0.843  0.00  0.00    +0.006 A 
BRANCH  21  28
ATOM     27  C   UNL     1       0.884  -0.730  -1.423  0.00  0.00    +0.012 C 
ATOM     28  C   UNL     1       0.061   0.155  -0.485  0.00  0.00    +0.013 C 
ATOM     29  C   UNL     1       0.018   1.581  -1.037  0.00  0.00    +0.012 C 
ENDBRANCH  21  28
ENDBRANCH  17  24
ENDBRANCH  16  18
ENDBRANCH   1  16
TORSDOF 6
