REMARK  Name = ZINC40268870
REMARK  2 active torsions:
REMARK  status: ('A' for Active; 'I' for Inactive)
REMARK    1  A    between atoms: C_1  and  C_2
REMARK    2  A    between atoms: C_20  and  C_22
REMARK                            x       y       z     vdW  Elec       q    Type
REMARK                         _______ _______ _______ _____ _____    ______ ____
ROOT
ATOM      1  C   UNL     1      -0.018   1.503   0.010  0.00  0.00    +0.068 C 
ATOM      2  C   UNL     1       0.002  -0.004   0.002  0.00  0.00    +0.066 A 
ATOM      3  C   UNL     1       0.008  -0.810  -1.127  0.00  0.00    +0.023 A 
ATOM      4  C   UNL     1       0.032  -2.116  -0.714  0.00  0.00    +0.134 A 
ATOM      5  N   UNL     1       0.032  -2.117   0.636  0.00  0.00    -0.198 N 
ATOM      6  N   UNL     1       0.023  -0.778   1.062  0.00  0.00    -0.168 NA
ATOM      7  C   UNL     1       0.044  -3.246   1.460  0.00  0.00    +0.176 A 
ATOM      8  C   UNL     1       0.037  -3.084   2.859  0.00  0.00    +0.054 A 
ATOM      9  C   UNL     1       0.049  -4.175   3.671  0.00  0.00    +0.054 A 
ATOM     10  C   UNL     1       0.069  -5.458   3.095  0.00  0.00    +0.178 A 
ATOM     11  N   UNL     1       0.084  -6.685   3.590  0.00  0.00    -0.128 NA
ATOM     12  N   UNL     1       0.099  -7.534   2.622  0.00  0.00    -0.136 NA
ATOM     13  C   UNL     1       0.095  -6.908   1.472  0.00  0.00    +0.249 A 
ATOM     14  N   UNL     1       0.076  -5.582   1.726  0.00  0.00    -0.198 N 
ATOM     15  N   UNL     1       0.058  -4.441   0.921  0.00  0.00    -0.144 NA
ATOM     16  N   UNL     1       0.064  -3.175  -1.620  0.00  0.00    -0.270 N 
ATOM     17  C   UNL     1       0.274  -2.891  -2.923  0.00  0.00    +0.219 C 
ATOM     18  O   UNL     1       0.118  -3.767  -3.747  0.00  0.00    -0.275 OA
ATOM     19  C   UNL     1       0.695  -1.525  -3.384  0.00  0.00    +0.109 C 
ATOM     20  C   UNL     1      -0.013  -0.426  -2.585  0.00  0.00    +0.064 C 
ATOM     21  H   UNL     1      -0.062  -4.090  -1.322  0.00  0.00    +0.156 HD
ENDROOT
BRANCH  20  22
ATOM     22  C   UNL     1      -1.439  -0.295  -3.055  0.00  0.00    -0.021 A 
ATOM     23  C   UNL     1      -2.293  -1.380  -2.981  0.00  0.00    +0.007 A 
ATOM     24  C   UNL     1      -3.601  -1.261  -3.412  0.00  0.00    +0.020 A 
ATOM     25  C   UNL     1      -4.057  -0.056  -3.917  0.00  0.00    +0.042 A 
ATOM     26  C   UNL     1      -3.203   1.030  -3.990  0.00  0.00    +0.040 A 
ATOM     27  C   UNL     1      -1.895   0.912  -3.554  0.00  0.00    +0.046 A 
ATOM     28 CL   UNL     1      -0.825   2.276  -3.640  0.00  0.00    -0.083 Cl
ATOM     29 CL   UNL     1      -5.699   0.093  -4.458  0.00  0.00    -0.083 Cl
ENDBRANCH  20  22
TORSDOF 1
