REMARK  Name = ZINC38905346
REMARK  6 active torsions:
REMARK  status: ('A' for Active; 'I' for Inactive)
REMARK    1  A    between atoms: C_1  and  C_2
REMARK    2  A    between atoms: C_2  and  O_3
REMARK    3  A    between atoms: O_3  and  C_4
REMARK    4  A    between atoms: C_9  and  C_10
REMARK    5  A    between atoms: N_16  and  C_18
REMARK    6  A    between atoms: C_23  and  C_25
REMARK                            x       y       z     vdW  Elec       q    Type
REMARK                         _______ _______ _______ _____ _____    ______ ____
ROOT
ATOM      1  C   UNL     1      -3.971  -1.527   0.032  0.00  0.00    +0.253 C 
ATOM      2  O   UNL     1      -3.836  -0.319   0.038  0.00  0.00    -0.270 OA
ATOM      3  N   UNL     1      -5.206  -2.066   0.041  0.00  0.00    -0.265 N 
ATOM      4  C   UNL     1      -6.334  -1.235   0.057  0.00  0.00    +0.152 A 
ATOM      5  C   UNL     1      -7.660  -1.657   0.073  0.00  0.00    +0.037 A 
ATOM      6  C   UNL     1      -8.457  -0.544   0.093  0.00  0.00    +0.128 A 
ATOM      7  N   UNL     1      -7.652   0.536   0.079  0.00  0.00    -0.251 N 
ATOM      8  N   UNL     1      -6.323   0.081   0.065  0.00  0.00    -0.154 NA
ATOM      9  C   UNL     1      -8.085   1.935   0.082  0.00  0.00    +0.174 C 
ATOM     10  N   UNL     1      -9.848  -0.634   0.134  0.00  0.00    -0.270 N 
ATOM     11  C   UNL     1     -10.400  -1.845   0.356  0.00  0.00    +0.219 C 
ATOM     12  O   UNL     1     -11.597  -1.981   0.208  0.00  0.00    -0.275 OA
ATOM     13  C   UNL     1      -9.580  -3.031   0.778  0.00  0.00    +0.104 C 
ATOM     14  C   UNL     1      -8.226  -3.054   0.063  0.00  0.00    +0.031 C 
ATOM     15  C   UNL     1      -8.414  -3.524  -1.381  0.00  0.00    +0.013 C 
ATOM     16  H   UNL     1      -5.315  -3.030   0.037  0.00  0.00    +0.157 HD
ATOM     17  H   UNL     1     -10.402   0.152   0.007  0.00  0.00    +0.156 HD
ENDROOT
BRANCH   1  23
ATOM     18  C   UNL     1      -1.498  -1.846   0.006  0.00  0.00    +0.133 A 
ATOM     19  C   UNL     1      -0.389  -2.679  -0.003  0.00  0.00    +0.046 A 
ATOM     20  C   UNL     1      -0.553  -4.050  -0.009  0.00  0.00    +0.004 A 
ATOM     21  C   UNL     1      -1.823  -4.604  -0.006  0.00  0.00    +0.001 A 
ATOM     22  C   UNL     1      -2.936  -3.791   0.003  0.00  0.00    +0.017 A 
ATOM     23  C   UNL     1      -2.784  -2.402   0.016  0.00  0.00    +0.079 A 
BRANCH  18  24
ATOM     24  O   UNL     1      -1.339  -0.499   0.012  0.00  0.00    -0.491 OA
BRANCH  24  26
ATOM     25  C   UNL     1      -0.019   1.526   0.010  0.00  0.00    +0.048 C 
ATOM     26  C   UNL     1       0.002  -0.004   0.002  0.00  0.00    +0.226 C 
ENDBRANCH  24  26
ENDBRANCH  18  24
ENDBRANCH   1  23
TORSDOF 3
