REMARK  Name = ZINC36704408
REMARK  10 active torsions:
REMARK  status: ('A' for Active; 'I' for Inactive)
REMARK    1  A    between atoms: C_1  and  C_2
REMARK    2  A    between atoms: N_11  and  C_12
REMARK    3  A    between atoms: C_12  and  C_13
REMARK    4  A    between atoms: C_13  and  C_14
REMARK    5  A    between atoms: C_14  and  N_15
REMARK    6  A    between atoms: N_15  and  C_16
REMARK    7  A    between atoms: N_15  and  C_17
REMARK    8  A    between atoms: C_18  and  C_20
REMARK    9  A    between atoms: N_25  and  S_26
REMARK   10  A    between atoms: S_26  and  C_29
REMARK                            x       y       z     vdW  Elec       q    Type
REMARK                         _______ _______ _______ _____ _____    ______ ____
ROOT
ATOM      1  C   UNL     1      -0.773   1.381   0.054  0.00  0.00    +0.046 C 
ATOM      2  C   UNL     1       0.013   0.096  -0.014  0.00  0.00    -0.024 A 
ATOM      3  C   UNL     1       0.308  -0.454  -1.234  0.00  0.00    +0.007 A 
ATOM      4  C   UNL     1       1.028  -1.634  -1.342  0.00  0.00    +0.021 A 
ATOM      5  C   UNL     1       1.459  -2.273  -0.192  0.00  0.00    +0.057 A 
ATOM      6  C   UNL     1       1.168  -1.728   1.035  0.00  0.00    +0.059 A 
ATOM      7  C   UNL     1       0.441  -0.525   1.182  0.00  0.00    +0.085 A 
ATOM      8  N   UNL     1       0.239  -0.115   2.453  0.00  0.00    -0.224 NA
ATOM      9  C   UNL     1       0.690  -0.783   3.490  0.00  0.00    +0.168 A 
ATOM     10  S   UNL     1       1.501  -2.178   2.721  0.00  0.00    -0.050 S 
ATOM     11  N   UNL     1       0.560  -0.487   4.837  0.00  0.00    -0.249 N 
ATOM     12  C   UNL     1      -0.007   0.674   5.221  0.00  0.00    +0.240 C 
ATOM     13  O   UNL     1      -0.480   1.421   4.391  0.00  0.00    -0.273 OA
ATOM     14 CL   UNL     1       2.361  -3.752  -0.299  0.00  0.00    -0.082 Cl
ENDROOT
BRANCH  12  15
ATOM     15  C   UNL     1      -0.053   1.043   6.681  0.00  0.00    +0.166 C 
ATOM     16  C   UNL     1      -1.384   0.568   7.301  0.00  0.00    +0.031 C 
ATOM     17  C   UNL     1      -1.749   1.724   8.269  0.00  0.00    +0.019 C 
ATOM     18  C   UNL     1      -1.240   2.959   7.484  0.00  0.00    +0.110 C 
ATOM     19  N   UNL     1       0.004   2.505   6.829  0.00  0.00    -0.164 NA
BRANCH  19  20
ATOM     20  S   UNL     1       1.253   3.477   6.341  0.00  0.00    +0.068 S 
ATOM     21  O   UNL     1       1.183   4.655   7.132  0.00  0.00    -0.152 OA
ATOM     22  O   UNL     1       2.412   2.656   6.298  0.00  0.00    -0.152 OA
BRANCH  20  23
ATOM     23  C   UNL     1       0.918   3.963   4.681  0.00  0.00    +0.143 A 
ATOM     24  C   UNL     1       0.240   5.046   4.229  0.00  0.00    +0.036 A 
ATOM     25  C   UNL     1       0.100   5.229   2.866  0.00  0.00    +0.010 A 
ATOM     26  C   UNL     1       0.644   4.318   2.022  0.00  0.00    +0.047 A 
ATOM     27  S   UNL     1       1.389   3.160   3.158  0.00  0.00    -0.077 S 
ENDBRANCH  20  23
ENDBRANCH  19  20
ENDBRANCH  12  15
BRANCH  11  28
ATOM     28  C   UNL     1       1.041  -1.436   5.845  0.00  0.00    +0.114 C 
BRANCH  28  29
ATOM     29  C   UNL     1       2.516  -1.162   6.141  0.00  0.00    +0.001 C 
BRANCH  29  30
ATOM     30  C   UNL     1       3.018  -2.153   7.194  0.00  0.00    -0.078 C 
BRANCH  30  31
ATOM     31  N   UNL     1       4.435  -1.889   7.478  0.00  0.00    +0.376 N 
ATOM     32  C   UNL     1       4.572  -0.564   8.096  0.00  0.00    -0.097 C 
ATOM     33  C   UNL     1       4.948  -2.914   8.398  0.00  0.00    -0.097 C 
ATOM     34  H   UNL     1       4.961  -1.916   6.618  0.00  0.00    -0.083 HD
ENDBRANCH  30  31
ENDBRANCH  29  30
ENDBRANCH  28  29
ENDBRANCH  11  28
TORSDOF 7
