REMARK  Name = ZINC48273800
REMARK  14 active torsions:
REMARK  status: ('A' for Active; 'I' for Inactive)
REMARK    1  A    between atoms: C_1  and  C_2
REMARK    2  A    between atoms: C_2  and  C_4
REMARK    3  A    between atoms: C_2  and  N_11
REMARK    4  A    between atoms: N_9  and  C_10
REMARK    5  A    between atoms: C_15  and  C_18
REMARK    6  A    between atoms: C_18  and  N_19
REMARK    7  A    between atoms: N_19  and  C_20
REMARK    8  A    between atoms: C_20  and  C_21
REMARK    9  A    between atoms: C_20  and  C_22
REMARK   10  A    between atoms: C_23  and  O_25
REMARK   11  A    between atoms: O_25  and  C_26
REMARK   12  A    between atoms: C_26  and  C_27
REMARK   13  A    between atoms: C_26  and  C_28
REMARK   14  A    between atoms: C_26  and  C_29
REMARK                            x       y       z     vdW  Elec       q    Type
REMARK                         _______ _______ _______ _____ _____    ______ ____
ROOT
ATOM      1  N   UNL     1       0.269  -0.904  -1.589  0.00  0.00    +0.387 N 
ATOM      2  C   UNL     1       1.708  -0.661  -1.743  0.00  0.00    -0.078 C 
ATOM      3  C   UNL     1       2.291  -1.650  -2.755  0.00  0.00    -0.018 C 
ATOM      4  C   UNL     1       2.064  -3.079  -2.253  0.00  0.00    +0.001 C 
ATOM      5  C   UNL     1       0.565  -3.297  -2.026  0.00  0.00    -0.010 C 
ATOM      6  C   UNL     1       0.046  -2.248  -1.041  0.00  0.00    -0.073 C 
ATOM      7  H   UNL     1      -0.180  -0.831  -2.490  0.00  0.00    -0.081 HD
ENDROOT
BRANCH   1   9
ATOM      8  C   UNL     1      -0.032   1.499  -1.226  0.00  0.00    -0.004 C 
ATOM      9  C   UNL     1      -0.301   0.096  -0.677  0.00  0.00    +0.017 C 
BRANCH   9  10
ATOM     10  C   UNL     1      -1.787  -0.121  -0.558  0.00  0.00    +0.207 C 
ATOM     11  O   UNL     1      -2.377  -0.753  -1.408  0.00  0.00    -0.277 OA
ATOM     12  N   UNL     1      -2.461   0.388   0.493  0.00  0.00    -0.242 N 
ATOM     13  C   UNL     1      -3.790   0.194   0.599  0.00  0.00    +0.306 C 
ATOM     14  O   UNL     1      -4.382  -0.440  -0.253  0.00  0.00    -0.252 OA
ATOM     15  N   UNL     1      -4.464   0.702   1.650  0.00  0.00    -0.302 N 
ATOM     16  C   UNL     1      -5.909   0.491   1.766  0.00  0.00    +0.129 C 
ATOM     17  H   UNL     1      -1.988   0.893   1.173  0.00  0.00    +0.159 HD
ATOM     18  H   UNL     1      -3.991   1.208   2.330  0.00  0.00    +0.150 HD
ENDBRANCH   9  10
ENDBRANCH   1   9
BRANCH   5  19
ATOM     19  C   UNL     1       0.334  -4.696  -1.452  0.00  0.00    +0.113 C 
BRANCH  19  20
ATOM     20  N   UNL     1       0.732  -5.702  -2.440  0.00  0.00    -0.265 N 
ATOM     21  C   UNL     1       1.958  -6.258  -2.379  0.00  0.00    +0.404 C 
ATOM     22  O   UNL     1       2.733  -5.926  -1.504  0.00  0.00    -0.226 OA
BRANCH  20  23
ATOM     23  C   UNL     1      -0.203  -6.102  -3.495  0.00  0.00    +0.073 C 
ATOM     24  C   UNL     1       0.409  -5.795  -4.862  0.00  0.00    +0.028 C 
ATOM     25  C   UNL     1      -0.481  -7.603  -3.386  0.00  0.00    +0.028 C 
ENDBRANCH  20  23
BRANCH  21  26
ATOM     26  O   UNL     1       2.324  -7.182  -3.287  0.00  0.00    -0.445 OA
BRANCH  26  27
ATOM     27  C   UNL     1       3.637  -7.730  -3.163  0.00  0.00    +0.107 C 
ATOM     28  C   UNL     1       3.778  -8.414  -1.801  0.00  0.00    +0.055 C 
ATOM     29  C   UNL     1       3.870  -8.755  -4.274  0.00  0.00    +0.055 C 
ATOM     30  C   UNL     1       4.671  -6.608  -3.279  0.00  0.00    +0.055 C 
ENDBRANCH  26  27
ENDBRANCH  21  26
ENDBRANCH  19  20
ENDBRANCH   5  19
TORSDOF 7
