REMARK  Name = ZINC22922771
REMARK  8 active torsions:
REMARK  status: ('A' for Active; 'I' for Inactive)
REMARK    1  A    between atoms: C_1  and  N_2
REMARK    2  A    between atoms: N_7  and  C_29
REMARK    3  A    between atoms: C_14  and  C_16
REMARK    4  A    between atoms: C_16  and  C_17
REMARK    5  A    between atoms: C_17  and  C_18
REMARK    6  A    between atoms: C_29  and  C_30
REMARK    7  A    between atoms: C_33  and  S_36
REMARK    8  A    between atoms: S_36  and  C_39
REMARK                            x       y       z     vdW  Elec       q    Type
REMARK                         _______ _______ _______ _____ _____    ______ ____
ROOT
ATOM      1  C   UNL     1      -0.347   1.473   0.155  0.00  0.00    -0.095 C 
ATOM      2  N   UNL     1       0.017   0.061  -0.020  0.00  0.00    +0.384 N 
ATOM      3  C   UNL     1       0.450  -0.128  -1.389  0.00  0.00    -0.041 C 
ATOM      4  C   UNL     1      -0.687   0.391  -2.315  0.00  0.00    +0.002 C 
ATOM      5  C   UNL     1      -1.528  -0.858  -2.646  0.00  0.00    +0.084 C 
ATOM      6  N   UNL     1      -0.896  -2.006  -1.951  0.00  0.00    -0.289 NA
ATOM      7  C   UNL     1       0.537  -1.612  -1.758  0.00  0.00    +0.130 C 
ATOM      8  C   UNL     1       1.327  -2.473  -0.883  0.00  0.00    +0.229 C 
ATOM      9  O   UNL     1       2.024  -3.253  -1.496  0.00  0.00    -0.274 OA
ATOM     10  N   UNL     1       1.451  -2.590   0.414  0.00  0.00    -0.316 N 
ATOM     11  C   UNL     1       0.933  -1.704   1.438  0.00  0.00    +0.089 C 
ATOM     12  C   UNL     1       0.971  -0.283   0.994  0.00  0.00    -0.051 C 
ATOM     13  H   UNL     1       1.949  -3.361   0.727  0.00  0.00    +0.149 HD
ATOM     14  H   UNL     1      -0.811  -0.496   0.125  0.00  0.00    -0.081 HD
ENDROOT
BRANCH  12  15
ATOM     15  C   UNL     1       0.731   0.608   2.214  0.00  0.00    -0.005 C 
BRANCH  15  16
ATOM     16  C   UNL     1       1.763   0.283   3.295  0.00  0.00    +0.095 C 
BRANCH  16  17
ATOM     17  C   UNL     1       1.612   1.250   4.441  0.00  0.00    +0.220 C 
ATOM     18  O   UNL     1       0.763   2.114   4.398  0.00  0.00    -0.275 OA
ATOM     19  N   UNL     1       2.422   1.154   5.515  0.00  0.00    -0.271 N 
ATOM     20  C   UNL     1       2.367   2.029   6.689  0.00  0.00    +0.118 C 
ATOM     21  C   UNL     1       3.478   1.521   7.622  0.00  0.00    +0.056 C 
ATOM     22  C   UNL     1       4.097   0.358   6.880  0.00  0.00    -0.024 A 
ATOM     23  C   UNL     1       3.433   0.201   5.674  0.00  0.00    +0.039 A 
ATOM     24  C   UNL     1       3.827  -0.823   4.811  0.00  0.00    +0.024 A 
ATOM     25  C   UNL     1       4.861  -1.667   5.160  0.00  0.00    +0.002 A 
ATOM     26  C   UNL     1       5.515  -1.504   6.367  0.00  0.00    +0.000 A 
ATOM     27  C   UNL     1       5.135  -0.486   7.223  0.00  0.00    +0.005 A 
ENDBRANCH  16  17
ENDBRANCH  15  16
ENDBRANCH  12  15
BRANCH   6  28
ATOM     28  C   UNL     1      -0.998  -3.230  -2.756  0.00  0.00    +0.120 C 
BRANCH  28  29
ATOM     29  C   UNL     1      -2.434  -3.687  -2.795  0.00  0.00    -0.033 A 
ATOM     30  C   UNL     1      -2.909  -4.553  -1.829  0.00  0.00    +0.007 A 
ATOM     31  C   UNL     1      -4.226  -4.973  -1.864  0.00  0.00    +0.027 A 
ATOM     32  C   UNL     1      -5.067  -4.526  -2.866  0.00  0.00    +0.088 A 
ATOM     33  C   UNL     1      -4.591  -3.659  -3.832  0.00  0.00    +0.027 A 
ATOM     34  C   UNL     1      -3.276  -3.236  -3.794  0.00  0.00    +0.007 A 
BRANCH  32  35
ATOM     35  S   UNL     1      -6.745  -5.061  -2.913  0.00  0.00    -0.006 S 
ATOM     36  O   UNL     1      -7.120  -4.963  -4.280  0.00  0.00    -0.170 OA
ATOM     37  O   UNL     1      -6.743  -6.319  -2.250  0.00  0.00    -0.170 OA
ATOM     38  C   UNL     1      -7.652  -3.838  -1.927  0.00  0.00    +0.200 C 
ENDBRANCH  32  35
ENDBRANCH  28  29
ENDBRANCH   6  28
TORSDOF 6
