REMARK  Name = ZINC35070421
REMARK  9 active torsions:
REMARK  status: ('A' for Active; 'I' for Inactive)
REMARK    1  A    between atoms: C_1  and  C_2
REMARK    2  A    between atoms: C_2  and  C_3
REMARK    3  A    between atoms: C_3  and  C_5
REMARK    4  A    between atoms: C_3  and  N_23
REMARK    5  A    between atoms: N_15  and  C_16
REMARK    6  A    between atoms: C_27  and  C_30
REMARK    7  A    between atoms: C_31  and  C_33
REMARK    8  A    between atoms: C_33  and  C_34
REMARK    9  A    between atoms: C_33  and  C_35
REMARK                            x       y       z     vdW  Elec       q    Type
REMARK                         _______ _______ _______ _____ _____    ______ ____
ROOT
ATOM      1  C   UNL     1       1.699  -1.735   0.571  0.00  0.00    +0.135 A 
ATOM      2  N   UNL     1       1.310  -2.198   1.720  0.00  0.00    -0.232 NA
ATOM      3  C   UNL     1       0.845  -3.465   1.857  0.00  0.00    +0.078 A 
ATOM      4  C   UNL     1       0.425  -3.962   3.092  0.00  0.00    +0.028 A 
ATOM      5  C   UNL     1      -0.040  -5.254   3.185  0.00  0.00    +0.002 A 
ATOM      6  C   UNL     1      -0.097  -6.072   2.064  0.00  0.00    +0.001 A 
ATOM      7  C   UNL     1       0.312  -5.605   0.834  0.00  0.00    +0.015 A 
ATOM      8  C   UNL     1       0.785  -4.299   0.718  0.00  0.00    +0.065 A 
ATOM      9  C   UNL     1       1.233  -3.746  -0.568  0.00  0.00    +0.266 A 
ATOM     10  O   UNL     1       1.207  -4.412  -1.586  0.00  0.00    -0.267 OA
ATOM     11  N   UNL     1       1.672  -2.465  -0.577  0.00  0.00    -0.263 N 
ENDROOT
BRANCH  11  12
ATOM     12  C   UNL     1       2.106  -1.888  -1.777  0.00  0.00    +0.051 A 
ATOM     13  C   UNL     1       3.295  -2.305  -2.359  0.00  0.00    +0.027 A 
ATOM     14  C   UNL     1       3.721  -1.735  -3.542  0.00  0.00    +0.017 A 
ATOM     15  C   UNL     1       2.963  -0.748  -4.148  0.00  0.00    +0.018 A 
ATOM     16  C   UNL     1       1.778  -0.330  -3.570  0.00  0.00    +0.017 A 
ATOM     17  C   UNL     1       1.344  -0.902  -2.390  0.00  0.00    +0.027 A 
ATOM     18 BR   UNL     1       3.550   0.031  -5.768  0.00  0.00    -0.050 Br
ENDBRANCH  11  12
BRANCH   1  19
ATOM     19  C   UNL     1       2.202  -0.316   0.504  0.00  0.00    +0.123 C 
BRANCH  19  20
ATOM     20  N   UNL     1       3.663  -0.321   0.352  0.00  0.00    -0.289 NA
ATOM     21  C   UNL     1       4.314  -0.894   1.537  0.00  0.00    +0.104 C 
ATOM     22  C   UNL     1       5.815  -1.048   1.267  0.00  0.00    +0.123 C 
ATOM     23  N   UNL     1       6.347   0.252   0.833  0.00  0.00    -0.296 N 
ATOM     24  C   UNL     1       5.662   0.954  -0.263  0.00  0.00    +0.087 C 
ATOM     25  C   UNL     1       4.167   1.029   0.067  0.00  0.00    +0.107 C 
ATOM     26  C   UNL     1       6.232   2.366  -0.405  0.00  0.00    +0.029 C 
ATOM     27  C   UNL     1       7.435   0.786   1.423  0.00  0.00    +0.218 C 
ATOM     28  O   UNL     1       7.811   1.896   1.110  0.00  0.00    -0.275 OA
BRANCH  27  29
ATOM     29  C   UNL     1       8.184   0.004   2.471  0.00  0.00    +0.069 C 
ATOM     30  C   UNL     1       8.953  -1.137   1.804  0.00  0.00    +0.017 C 
ATOM     31  C   UNL     1       9.167   0.929   3.192  0.00  0.00    +0.017 C 
ENDBRANCH  27  29
ENDBRANCH  19  20
BRANCH  19  33
ATOM     32  C   UNL     1       0.304   0.539   1.885  0.00  0.00    +0.006 C 
ATOM     33  C   UNL     1       1.826   0.419   1.792  0.00  0.00    +0.023 C 
ENDBRANCH  19  33
ENDBRANCH   1  19
TORSDOF 5
