REMARK  Name = ZINC16038111
REMARK  6 active torsions:
REMARK  status: ('A' for Active; 'I' for Inactive)
REMARK    1  A    between atoms: C_1  and  C_2
REMARK    2  A    between atoms: C_2  and  O_4
REMARK    3  A    between atoms: O_4  and  C_5
REMARK    4  A    between atoms: C_8  and  N_11
REMARK    5  A    between atoms: C_27  and  C_33
REMARK    6  A    between atoms: C_33  and  C_35
REMARK                            x       y       z     vdW  Elec       q    Type
REMARK                         _______ _______ _______ _____ _____    ______ ____
ROOT
ATOM      1  N   UNL     1      -3.836   8.117   1.840  0.00  0.00    -0.210 N 
ATOM      2  C   UNL     1      -2.816   8.887   2.234  0.00  0.00    +0.232 C 
ATOM      3  O   UNL     1      -2.913  10.031   2.623  0.00  0.00    -0.274 OA
ATOM      4  C   UNL     1      -1.508   8.103   2.127  0.00  0.00    +0.114 C 
ATOM      5  C   UNL     1      -0.626   8.684   1.021  0.00  0.00    +0.110 C 
ATOM      6  C   UNL     1      -0.667  10.178   0.904  0.00  0.00    -0.003 C 
ATOM      7  C   UNL     1      -0.305  10.690  -0.289  0.00  0.00    +0.007 C 
ATOM      8  C   UNL     1       0.106   9.737  -1.347  0.00  0.00    -0.004 A 
ATOM      9  C   UNL     1       0.941  10.122  -2.389  0.00  0.00    +0.010 A 
ATOM     10  C   UNL     1       1.290   9.204  -3.361  0.00  0.00    +0.001 A 
ATOM     11  C   UNL     1       0.813   7.905  -3.302  0.00  0.00    +0.002 A 
ATOM     12  C   UNL     1      -0.018   7.508  -2.270  0.00  0.00    +0.024 A 
ATOM     13  C   UNL     1      -0.375   8.411  -1.288  0.00  0.00    +0.038 A 
ATOM     14  N   UNL     1      -1.189   8.098  -0.225  0.00  0.00    -0.311 N 
ATOM     15  C   UNL     1      -1.389   6.685   0.115  0.00  0.00    +0.158 C 
ATOM     16  C   UNL     1      -1.983   6.734   1.549  0.00  0.00    +0.118 C 
ATOM     17  C   UNL     1      -3.484   6.889   1.442  0.00  0.00    +0.232 C 
ATOM     18  O   UNL     1      -4.249   6.033   1.055  0.00  0.00    -0.274 OA
ENDROOT
BRANCH   1  22
ATOM     19  C   UNL     1      -7.793   9.435   1.851  0.00  0.00    +0.132 A 
ATOM     20  C   UNL     1      -7.113   9.275   3.049  0.00  0.00    +0.048 A 
ATOM     21  C   UNL     1      -5.803   8.838   3.046  0.00  0.00    +0.027 A 
ATOM     22  C   UNL     1      -5.167   8.560   1.844  0.00  0.00    +0.044 A 
ATOM     23  C   UNL     1      -5.847   8.726   0.645  0.00  0.00    +0.027 A 
ATOM     24  C   UNL     1      -7.159   9.157   0.649  0.00  0.00    +0.048 A 
BRANCH  19  25
ATOM     25  O   UNL     1      -9.083   9.865   1.855  0.00  0.00    -0.426 OA
BRANCH  25  27
ATOM     26  C   UNL     1     -10.694  11.698   2.229  0.00  0.00    +0.136 C 
ATOM     27  C   UNL     1      -9.290  11.171   2.087  0.00  0.00    +0.309 C 
ATOM     28  O   UNL     1      -8.349  11.924   2.182  0.00  0.00    -0.251 OA
ENDBRANCH  25  27
ENDBRANCH  19  25
ENDBRANCH   1  22
BRANCH  15  29
ATOM     29  C   UNL     1      -0.075   5.947   0.111  0.00  0.00    +0.184 C 
ATOM     30  O   UNL     1       0.968   6.566   0.105  0.00  0.00    -0.290 OA
BRANCH  29  31
ATOM     31  C   UNL     1      -0.057   4.476   0.113  0.00  0.00    +0.019 A 
ATOM     32  C   UNL     1       1.161   3.788   0.109  0.00  0.00    +0.013 A 
ATOM     33  C   UNL     1       1.170   2.410   0.112  0.00  0.00    +0.020 A 
ATOM     34  C   UNL     1      -0.023   1.706   0.118  0.00  0.00    +0.041 A 
ATOM     35  C   UNL     1      -1.234   2.381   0.116  0.00  0.00    +0.020 A 
ATOM     36  C   UNL     1      -1.258   3.759   0.120  0.00  0.00    +0.013 A 
ATOM     37 CL   UNL     1      -0.002  -0.030   0.121  0.00  0.00    -0.084 Cl
ENDBRANCH  29  31
ENDBRANCH  15  29
TORSDOF 5
