REMARK  Name = ZINC21871770
REMARK  6 active torsions:
REMARK  status: ('A' for Active; 'I' for Inactive)
REMARK    1  A    between atoms: C_1  and  C_2
REMARK    2  A    between atoms: N_10  and  C_11
REMARK    3  A    between atoms: N_14  and  C_22
REMARK    4  A    between atoms: N_17  and  C_18
REMARK    5  A    between atoms: C_18  and  C_19
REMARK    6  A    between atoms: C_27  and  C_28
REMARK                            x       y       z     vdW  Elec       q    Type
REMARK                         _______ _______ _______ _____ _____    ______ ____
ROOT
ATOM      1  C   UNL     1      -9.139  -2.929  -0.781  0.00  0.00    +0.044 C 
ATOM      2  C   UNL     1      -8.069  -2.303   0.076  0.00  0.00    -0.050 A 
ATOM      3  C   UNL     1      -8.166  -2.373   1.459  0.00  0.00    +0.005 A 
ATOM      4  C   UNL     1      -7.200  -1.807   2.260  0.00  0.00    +0.027 A 
ATOM      5  C   UNL     1      -6.112  -1.157   1.681  0.00  0.00    +0.051 A 
ATOM      6  C   UNL     1      -6.018  -1.089   0.278  0.00  0.00    +0.025 A 
ATOM      7  C   UNL     1      -7.011  -1.672  -0.514  0.00  0.00    +0.015 A 
ATOM      8  C   UNL     1      -4.787  -0.358  -0.020  0.00  0.00    +0.085 A 
ATOM      9  C   UNL     1      -4.214  -0.028   1.194  0.00  0.00    +0.132 A 
ATOM     10  N   UNL     1      -5.018  -0.513   2.213  0.00  0.00    -0.337 N 
ATOM     11  C   UNL     1      -4.744  -0.362   3.644  0.00  0.00    +0.149 C 
ATOM     12  C   UNL     1      -2.994   0.695   1.193  0.00  0.00    +0.285 A 
ATOM     13  O   UNL     1      -2.461   1.002   2.245  0.00  0.00    -0.265 OA
ATOM     14  N   UNL     1      -2.429   1.040   0.019  0.00  0.00    -0.227 N 
ATOM     15  C   UNL     1      -3.006   0.714  -1.151  0.00  0.00    +0.337 A 
ATOM     16  O   UNL     1      -2.471   1.045  -2.191  0.00  0.00    -0.246 OA
ATOM     17  N   UNL     1      -4.162   0.023  -1.193  0.00  0.00    -0.282 N 
ENDROOT
BRANCH  14  18
ATOM     18  C   UNL     1      -1.224   1.754   0.017  0.00  0.00    +0.057 A 
ATOM     19  C   UNL     1      -0.013   1.076   0.008  0.00  0.00    +0.026 A 
ATOM     20  C   UNL     1       1.173   1.783   0.000  0.00  0.00    +0.002 A 
ATOM     21  C   UNL     1       1.155   3.166   0.008  0.00  0.00    +0.000 A 
ATOM     22  C   UNL     1      -0.049   3.845   0.023  0.00  0.00    +0.005 A 
ATOM     23  C   UNL     1      -1.239   3.143   0.032  0.00  0.00    -0.026 A 
ATOM     24  C   UNL     1      -2.551   3.883   0.049  0.00  0.00    +0.046 C 
ENDBRANCH  14  18
BRANCH  17  25
ATOM     25  C   UNL     1      -4.760  -0.320  -2.486  0.00  0.00    +0.222 C 
BRANCH  25  26
ATOM     26  C   UNL     1      -5.690   0.784  -2.918  0.00  0.00    +0.230 C 
ATOM     27  O   UNL     1      -5.838   1.762  -2.216  0.00  0.00    -0.274 OA
ATOM     28  N   UNL     1      -6.357   0.685  -4.085  0.00  0.00    -0.328 N 
ATOM     29  H   UNL     1      -7.036   1.491  -4.401  0.00  0.00    +0.145 HD
ATOM     30  H   UNL     1      -6.222  -0.202  -4.722  0.00  0.00    +0.145 HD
ENDBRANCH  25  26
ENDBRANCH  17  25
TORSDOF 3
