REMARK  Name = ZINC59461673
REMARK  5 active torsions:
REMARK  status: ('A' for Active; 'I' for Inactive)
REMARK    1  A    between atoms: C_4  and  C_7
REMARK    2  A    between atoms: N_9  and  C_29
REMARK    3  A    between atoms: N_13  and  N_14
REMARK    4  A    between atoms: N_14  and  C_15
REMARK    5  A    between atoms: C_24  and  S_25
REMARK                            x       y       z     vdW  Elec       q    Type
REMARK                         _______ _______ _______ _____ _____    ______ ____
ROOT
ATOM      1  C   UNL     1       3.729  -0.715   0.355  0.00  0.00    +0.122 C 
ATOM      2  N   UNL     1       4.920  -0.181   0.419  0.00  0.00    -0.170 NA
ATOM      3  N   UNL     1       5.915  -1.157   0.376  0.00  0.00    -0.155 N 
ATOM      4  C   UNL     1       5.364  -2.383   0.281  0.00  0.00    +0.292 C 
ATOM      5  O   UNL     1       5.955  -3.448   0.224  0.00  0.00    -0.266 OA
ATOM      6  C   UNL     1       3.907  -2.179   0.267  0.00  0.00    +0.173 C 
ATOM      7  N   UNL     1       2.966  -3.101   0.190  0.00  0.00    -0.175 NA
ENDROOT
BRANCH   1  11
ATOM      8  C   UNL     1       0.027   1.374   0.407  0.00  0.00    +0.000 A 
ATOM      9  C   UNL     1       1.216   2.078   0.476  0.00  0.00    +0.001 A 
ATOM     10  C   UNL     1       2.421   1.405   0.460  0.00  0.00    +0.010 A 
ATOM     11  C   UNL     1       2.438   0.013   0.373  0.00  0.00    +0.004 A 
ATOM     12  C   UNL     1       1.236  -0.691   0.303  0.00  0.00    +0.010 A 
ATOM     13  C   UNL     1       0.038  -0.007   0.321  0.00  0.00    +0.001 A 
ENDBRANCH   1  11
BRANCH   3  14
ATOM     14  C   UNL     1       7.290  -0.899   0.425  0.00  0.00    +0.060 A 
ATOM     15  C   UNL     1       8.197  -1.949   0.370  0.00  0.00    +0.025 A 
ATOM     16  C   UNL     1       9.553  -1.691   0.418  0.00  0.00    +0.002 A 
ATOM     17  C   UNL     1      10.008  -0.389   0.522  0.00  0.00    +0.000 A 
ATOM     18  C   UNL     1       9.107   0.659   0.578  0.00  0.00    +0.002 A 
ATOM     19  C   UNL     1       7.750   0.408   0.524  0.00  0.00    +0.025 A 
ENDBRANCH   3  14
BRANCH   7  20
ATOM     20  N   UNL     1       3.289  -4.348   0.118  0.00  0.00    -0.235 N 
ATOM     21  H   UNL     1       4.223  -4.608   0.122  0.00  0.00    +0.174 HD
BRANCH  20  22
ATOM     22  C   UNL     1       2.295  -5.322   0.037  0.00  0.00    +0.076 A 
ATOM     23  C   UNL     1       0.949  -4.950   0.153  0.00  0.00    +0.027 A 
ATOM     24  C   UNL     1      -0.041  -5.879   0.078  0.00  0.00    +0.010 A 
ATOM     25  C   UNL     1       0.282  -7.233  -0.120  0.00  0.00    -0.016 A 
ATOM     26  C   UNL     1      -0.720  -8.214  -0.202  0.00  0.00    +0.008 A 
ATOM     27  C   UNL     1      -0.375  -9.517  -0.395  0.00  0.00    +0.001 A 
ATOM     28  C   UNL     1       0.961  -9.896  -0.512  0.00  0.00    +0.001 A 
ATOM     29  C   UNL     1       1.959  -8.973  -0.438  0.00  0.00    +0.010 A 
ATOM     30  C   UNL     1       1.641  -7.618  -0.239  0.00  0.00    +0.011 A 
ATOM     31  C   UNL     1       2.645  -6.640  -0.163  0.00  0.00    +0.150 A 
BRANCH  31  32
ATOM     32  S   UNL     1       4.341  -7.094  -0.316  0.00  0.00    +0.142 S 
ATOM     33  O   UNL     1       4.815  -7.413   1.022  0.00  0.00    -0.140 OA
ATOM     34  O   UNL     1       4.391  -8.248  -1.200  0.00  0.00    -0.140 OA
ATOM     35  O   UNL     1       5.036  -5.947  -0.880  0.00  0.00    -0.043 OA
ENDBRANCH  31  32
ENDBRANCH  20  22
ENDBRANCH   7  20
TORSDOF 5
