REMARK  Name = ZINC63351221
REMARK  7 active torsions:
REMARK  status: ('A' for Active; 'I' for Inactive)
REMARK    1  A    between atoms: C_1  and  O_2
REMARK    2  A    between atoms: O_2  and  C_3
REMARK    3  A    between atoms: C_7  and  C_11
REMARK    4  A    between atoms: C_8  and  O_9
REMARK    5  A    between atoms: O_9  and  C_10
REMARK    6  A    between atoms: N_12  and  N_13
REMARK    7  A    between atoms: C_33  and  C_35
REMARK                            x       y       z     vdW  Elec       q    Type
REMARK                         _______ _______ _______ _____ _____    ______ ____
ROOT
ATOM      1  N   UNL     1       0.840  -6.204  -1.475  0.00  0.00    -0.183 N 
ATOM      2  C   UNL     1       1.503  -6.797  -2.625  0.00  0.00    +0.230 C 
ATOM      3  C   UNL     1       1.482  -8.289  -2.581  0.00  0.00    +0.236 C 
ATOM      4  O   UNL     1       2.008  -8.886  -3.496  0.00  0.00    -0.274 OA
ATOM      5  N   UNL     1       0.924  -9.014  -1.605  0.00  0.00    -0.279 N 
ATOM      6  C   UNL     1       0.279  -8.409  -0.444  0.00  0.00    +0.169 C 
ATOM      7  C   UNL     1       0.294  -6.917  -0.491  0.00  0.00    +0.256 C 
ATOM      8  O   UNL     1      -0.228  -6.314   0.424  0.00  0.00    -0.272 OA
ATOM      9  C   UNL     1       0.964  -8.889   0.848  0.00  0.00    +0.065 C 
ATOM     10  C   UNL     1       1.128 -10.383   0.718  0.00  0.00    -0.034 C 
ATOM     11  C   UNL     1       0.798 -11.379   1.530  0.00  0.00    -0.001 A 
ATOM     12  C   UNL     1       0.255 -11.389   2.898  0.00  0.00    +0.010 A 
ATOM     13  C   UNL     1       0.008 -12.613   3.436  0.00  0.00    +0.001 A 
ATOM     14  C   UNL     1       0.243 -13.813   2.758  0.00  0.00    +0.002 A 
ATOM     15  C   UNL     1       0.750 -13.898   1.502  0.00  0.00    +0.026 A 
ATOM     16  C   UNL     1       1.057 -12.677   0.835  0.00  0.00    +0.043 A 
ATOM     17  N   UNL     1       1.566 -12.468  -0.343  0.00  0.00    -0.375 N 
ATOM     18  C   UNL     1       1.748 -11.026  -0.518  0.00  0.00    +0.131 C 
ATOM     19  C   UNL     1       0.974 -10.489  -1.724  0.00  0.00    +0.133 C 
ATOM     20  H   UNL     1       1.787 -13.151  -0.996  0.00  0.00    +0.160 HD
ENDROOT
BRANCH  19  21
ATOM     21  C   UNL     1       1.680 -10.874  -2.998  0.00  0.00    -0.025 A 
ATOM     22  C   UNL     1       3.059 -10.976  -3.020  0.00  0.00    +0.005 A 
ATOM     23  C   UNL     1       3.707 -11.330  -4.189  0.00  0.00    +0.000 A 
ATOM     24  C   UNL     1       2.977 -11.582  -5.335  0.00  0.00    +0.000 A 
ATOM     25  C   UNL     1       1.598 -11.481  -5.313  0.00  0.00    +0.000 A 
ATOM     26  C   UNL     1       0.950 -11.132  -4.143  0.00  0.00    +0.005 A 
ENDBRANCH  19  21
BRANCH   1  28
ATOM     27  C   UNL     1       1.297  -4.079  -2.335  0.00  0.00    +0.142 C 
ATOM     28  N   UNL     1       0.776  -4.807  -1.395  0.00  0.00    -0.184 NA
BRANCH  27  33
ATOM     29  C   UNL     1       0.547  -0.608  -1.089  0.00  0.00    +0.162 A 
ATOM     30  C   UNL     1       1.107   0.161  -2.098  0.00  0.00    +0.049 A 
ATOM     31  C   UNL     1       1.724  -0.446  -3.178  0.00  0.00    +0.004 A 
ATOM     32  C   UNL     1       1.789  -1.821  -3.260  0.00  0.00    +0.013 A 
ATOM     33  C   UNL     1       1.230  -2.609  -2.251  0.00  0.00    +0.040 A 
ATOM     34  C   UNL     1       0.610  -1.994  -1.156  0.00  0.00    +0.170 A 
BRANCH  29  36
ATOM     35  C   UNL     1      -0.087   1.424  -0.029  0.00  0.00    +0.277 C 
ATOM     36  O   UNL     1      -0.059  -0.004  -0.032  0.00  0.00    -0.491 OA
ENDBRANCH  29  36
BRANCH  34  37
ATOM     37  O   UNL     1       0.067  -2.751  -0.166  0.00  0.00    -0.491 OA
ATOM     38  C   UNL     1      -1.302  -3.132  -0.317  0.00  0.00    +0.277 C 
ENDBRANCH  34  37
ENDBRANCH  27  33
ENDBRANCH   1  28
TORSDOF 5
