REMARK  Name = ZINC22365391
REMARK  10 active torsions:
REMARK  status: ('A' for Active; 'I' for Inactive)
REMARK    1  A    between atoms: C_1  and  C_2
REMARK    2  A    between atoms: C_2  and  C_33
REMARK    3  A    between atoms: C_4  and  N_15
REMARK    4  A    between atoms: C_9  and  O_13
REMARK    5  A    between atoms: O_13  and  C_14
REMARK    6  A    between atoms: C_16  and  C_18
REMARK    7  A    between atoms: C_18  and  N_19
REMARK    8  A    between atoms: N_19  and  C_20
REMARK    9  A    between atoms: N_19  and  S_29
REMARK   10  A    between atoms: S_29  and  C_32
REMARK                            x       y       z     vdW  Elec       q    Type
REMARK                         _______ _______ _______ _____ _____    ______ ____
ROOT
ATOM      1  N   UNL     1      -0.185   1.053   4.898  0.00  0.00    -0.307 N 
ATOM      2  C   UNL     1      -0.712   0.873   6.125  0.00  0.00    +0.233 C 
ATOM      3  O   UNL     1      -1.910   0.733   6.257  0.00  0.00    -0.274 OA
ATOM      4  H   UNL     1       0.901   1.181   4.779  0.00  0.00    +0.149 HD
ENDROOT
BRANCH   1   8
ATOM      5  C   UNL     1      -0.374   0.493  -0.013  0.00  0.00    +0.055 C 
ATOM      6  C   UNL     1      -1.099   0.989   1.240  0.00  0.00    +0.107 C 
ATOM      7  C   UNL     1      -0.257   0.672   2.483  0.00  0.00    +0.074 C 
ATOM      8  C   UNL     1      -1.059   1.079   3.722  0.00  0.00    +0.110 C 
ATOM      9  C   UNL     1      -1.609   2.470   3.538  0.00  0.00    +0.015 A 
ATOM     10  C   UNL     1      -2.037   3.171   4.654  0.00  0.00    +0.012 A 
ATOM     11  C   UNL     1      -2.550   4.445   4.525  0.00  0.00    +0.046 A 
ATOM     12  C   UNL     1      -2.639   5.032   3.270  0.00  0.00    +0.124 A 
ATOM     13  C   UNL     1      -2.211   4.335   2.152  0.00  0.00    +0.091 A 
ATOM     14  C   UNL     1      -1.694   3.051   2.284  0.00  0.00    +0.130 A 
ATOM     15  O   UNL     1      -1.277   2.404   1.165  0.00  0.00    -0.486 OA
ATOM     16  C   UNL     1      -2.462   0.303   1.352  0.00  0.00    +0.055 C 
BRANCH  12  17
ATOM     17  O   UNL     1      -3.144   6.286   3.139  0.00  0.00    -0.495 OA
ATOM     18  C   UNL     1      -3.566   6.944   4.335  0.00  0.00    +0.277 C 
ENDBRANCH  12  17
ENDBRANCH   1   8
BRANCH   2  19
ATOM     19  C   UNL     1       0.186   0.847   7.335  0.00  0.00    +0.226 C 
BRANCH  19  20
ATOM     20  N   UNL     1      -0.631   0.781   8.549  0.00  0.00    -0.197 N 
BRANCH  20  21
ATOM     21  C   UNL     1      -1.115   1.956   9.130  0.00  0.00    +0.071 A 
ATOM     22  C   UNL     1      -2.315   2.504   8.694  0.00  0.00    +0.047 A 
ATOM     23  C   UNL     1      -2.794   3.664   9.273  0.00  0.00    +0.061 A 
ATOM     24  C   UNL     1      -2.074   4.285  10.281  0.00  0.00    +0.061 A 
ATOM     25  C   UNL     1      -0.877   3.744  10.713  0.00  0.00    +0.043 A 
ATOM     26  C   UNL     1      -0.395   2.582  10.141  0.00  0.00    +0.065 A 
ATOM     27 CL   UNL     1       1.108   1.904  10.684  0.00  0.00    -0.082 Cl
ATOM     28 CL   UNL     1      -2.676   5.745  11.002  0.00  0.00    -0.082 Cl
ATOM     29 CL   UNL     1      -4.296   4.347   8.733  0.00  0.00    -0.082 Cl
ENDBRANCH  20  21
BRANCH  20  30
ATOM     30  S   UNL     1      -0.980  -0.686   9.233  0.00  0.00    +0.043 S 
ATOM     31  O   UNL     1      -2.245  -0.505   9.854  0.00  0.00    -0.155 OA
ATOM     32  O   UNL     1      -0.818  -1.626   8.180  0.00  0.00    -0.155 OA
ATOM     33  C   UNL     1       0.303  -0.931  10.492  0.00  0.00    +0.218 C 
ENDBRANCH  20  30
ENDBRANCH  19  20
ENDBRANCH   2  19
TORSDOF 6
