REMARK  Name = ZINC49600262
REMARK  8 active torsions:
REMARK  status: ('A' for Active; 'I' for Inactive)
REMARK    1  A    between atoms: C_1  and  O_2
REMARK    2  A    between atoms: O_2  and  C_3
REMARK    3  A    between atoms: C_6  and  C_10
REMARK    4  A    between atoms: C_10  and  O_11
REMARK    5  A    between atoms: O_11  and  C_12
REMARK    6  A    between atoms: C_12  and  C_14
REMARK    7  A    between atoms: C_17  and  N_21
REMARK    8  A    between atoms: C_19  and  N_20
REMARK                            x       y       z     vdW  Elec       q    Type
REMARK                         _______ _______ _______ _____ _____    ______ ____
ROOT
ATOM      1  C   UNL     1       2.101  -3.415   6.460  0.00  0.00    +0.341 C 
ATOM      2  O   UNL     1       3.276  -3.716   6.543  0.00  0.00    -0.245 OA
ENDROOT
BRANCH   1   3
ATOM      3  C   UNL     1       1.192  -3.685   7.582  0.00  0.00    +0.080 A 
ATOM      4  C   UNL     1      -0.131  -3.230   7.540  0.00  0.00    +0.018 A 
ATOM      5  C   UNL     1      -0.975  -3.480   8.582  0.00  0.00    +0.023 A 
ATOM      6  C   UNL     1      -0.529  -4.190   9.697  0.00  0.00    +0.026 A 
ATOM      7  C   UNL     1       0.780  -4.649   9.757  0.00  0.00    +0.046 A 
ATOM      8  C   UNL     1       1.646  -4.407   8.701  0.00  0.00    +0.040 A 
BRANCH   8   9
ATOM      9  N   UNL     1       2.954  -4.868   8.751  0.00  0.00    -0.357 N 
ATOM     10  H   UNL     1       3.581  -4.626   8.051  0.00  0.00    +0.142 HD
ATOM     11  H   UNL     1       3.242  -5.433   9.485  0.00  0.00    +0.142 HD
ENDBRANCH   8   9
BRANCH   6  12
ATOM     12  N   UNL     1      -1.398  -4.438  10.753  0.00  0.00    -0.358 N 
ATOM     13  H   UNL     1      -2.313  -4.118  10.714  0.00  0.00    +0.142 HD
ATOM     14  H   UNL     1      -1.090  -4.932  11.529  0.00  0.00    +0.142 HD
ENDBRANCH   6  12
ENDBRANCH   1   3
BRANCH   1  15
ATOM     15  O   UNL     1       1.633  -2.834   5.337  0.00  0.00    -0.456 OA
BRANCH  15  16
ATOM     16  C   UNL     1       2.572  -2.601   4.286  0.00  0.00    +0.268 C 
BRANCH  16  20
ATOM     17  C   UNL     1       0.588  -0.752   0.983  0.00  0.00    +0.134 A 
ATOM     18  C   UNL     1       1.156   0.029   1.979  0.00  0.00    +0.047 A 
ATOM     19  C   UNL     1       1.796  -0.571   3.046  0.00  0.00    +0.010 A 
ATOM     20  C   UNL     1       1.873  -1.950   3.122  0.00  0.00    -0.009 A 
ATOM     21  C   UNL     1       1.308  -2.731   2.131  0.00  0.00    +0.026 A 
ATOM     22  C   UNL     1       0.661  -2.136   1.064  0.00  0.00    +0.060 A 
ATOM     23 BR   UNL     1      -0.118  -3.205  -0.287  0.00  0.00    -0.047 Br
BRANCH  17  25
ATOM     24  C   UNL     1      -0.079   1.265  -0.085  0.00  0.00    +0.277 C 
ATOM     25  O   UNL     1      -0.043  -0.164  -0.067  0.00  0.00    -0.494 OA
ENDBRANCH  17  25
ENDBRANCH  16  20
ENDBRANCH  15  16
ENDBRANCH   1  15
TORSDOF 7
