REMARK  Name = ZINC05208518
REMARK  8 active torsions:
REMARK  status: ('A' for Active; 'I' for Inactive)
REMARK    1  A    between atoms: C_1  and  C_2
REMARK    2  A    between atoms: C_2  and  N_3
REMARK    3  A    between atoms: N_11  and  C_32
REMARK    4  A    between atoms: N_15  and  N_16
REMARK    5  A    between atoms: C_17  and  C_18
REMARK    6  A    between atoms: C_21  and  O_24
REMARK    7  A    between atoms: O_24  and  C_25
REMARK    8  A    between atoms: C_25  and  C_26
REMARK                            x       y       z     vdW  Elec       q    Type
REMARK                         _______ _______ _______ _____ _____    ______ ____
ROOT
ATOM      1  N   UNL     1      -2.282  -2.898   0.014  0.00  0.00    -0.305 N 
ATOM      2  C   UNL     1      -1.822  -4.207  -0.003  0.00  0.00    +0.153 A 
ATOM      3  C   UNL     1      -2.443  -5.469  -0.003  0.00  0.00    +0.280 A 
ATOM      4  O   UNL     1      -3.659  -5.557   0.008  0.00  0.00    -0.265 OA
ATOM      5  N   UNL     1      -1.679  -6.581  -0.015  0.00  0.00    -0.273 N 
ATOM      6  H   UNL     1      -2.118  -7.480  -0.015  0.00  0.00    +0.173 HD
ATOM      7  C   UNL     1      -0.338  -6.500  -0.027  0.00  0.00    +0.331 A 
ATOM      8  O   UNL     1       0.318  -7.523  -0.037  0.00  0.00    -0.246 OA
ATOM      9  N   UNL     1       0.297  -5.313  -0.028  0.00  0.00    -0.280 N 
ATOM     10  C   UNL     1      -0.433  -4.135  -0.015  0.00  0.00    +0.170 A 
ATOM     11  N   UNL     1      -0.097  -2.844  -0.012  0.00  0.00    -0.195 NA
ATOM     12  C   UNL     1      -1.183  -2.097   0.002  0.00  0.00    +0.218 A 
ATOM     13  N   UNL     1      -1.202  -0.721   0.010  0.00  0.00    -0.206 N 
ATOM     14  C   UNL     1       1.762  -5.266  -0.041  0.00  0.00    +0.155 C 
ATOM     15  H   UNL     1      -2.048  -0.247   0.020  0.00  0.00    +0.177 HD
ENDROOT
BRANCH   1  17
ATOM     16  C   UNL     1      -4.189  -2.305  -1.398  0.00  0.00    +0.027 C 
ATOM     17  C   UNL     1      -3.681  -2.463   0.037  0.00  0.00    +0.122 C 
ENDBRANCH   1  17
BRANCH  13  18
ATOM     18  N   UNL     1       0.002  -0.004   0.002  0.00  0.00    -0.188 NA
ATOM     19  C   UNL     1      -0.015   1.294   0.009  0.00  0.00    +0.138 C 
BRANCH  19  20
ATOM     20  C   UNL     1       1.251   2.048   0.001  0.00  0.00    -0.005 A 
ATOM     21  C   UNL     1       2.472   1.368  -0.008  0.00  0.00    +0.013 A 
ATOM     22  C   UNL     1       3.653   2.078  -0.022  0.00  0.00    +0.046 A 
ATOM     23  C   UNL     1       3.632   3.466  -0.015  0.00  0.00    +0.121 A 
ATOM     24  C   UNL     1       2.421   4.147   0.001  0.00  0.00    +0.046 A 
ATOM     25  C   UNL     1       1.234   3.446   0.009  0.00  0.00    +0.013 A 
BRANCH  23  26
ATOM     26  O   UNL     1       4.799   4.162  -0.022  0.00  0.00    -0.487 OA
BRANCH  26  27
ATOM     27  C   UNL     1       6.008   3.400  -0.039  0.00  0.00    +0.264 C 
BRANCH  27  28
ATOM     28  C   UNL     1       7.190   4.334  -0.045  0.00  0.00    -0.010 A 
ATOM     29  C   UNL     1       7.724   4.764  -1.246  0.00  0.00    +0.007 A 
ATOM     30  C   UNL     1       8.806   5.626  -1.252  0.00  0.00    +0.000 A 
ATOM     31  C   UNL     1       9.360   6.048  -0.058  0.00  0.00    +0.000 A 
ATOM     32  C   UNL     1       8.830   5.613   1.142  0.00  0.00    +0.000 A 
ATOM     33  C   UNL     1       7.745   4.756   1.149  0.00  0.00    +0.007 A 
ENDBRANCH  27  28
ENDBRANCH  26  27
ENDBRANCH  23  26
ENDBRANCH  19  20
ENDBRANCH  13  18
TORSDOF 6
