REMARK  Name = ZINC04940461
REMARK  6 active torsions:
REMARK  status: ('A' for Active; 'I' for Inactive)
REMARK    1  A    between atoms: C_1  and  C_2
REMARK    2  A    between atoms: C_2  and  O_3
REMARK    3  A    between atoms: O_3  and  C_4
REMARK    4  A    between atoms: C_9  and  N_10
REMARK    5  A    between atoms: C_13  and  C_23
REMARK    6  A    between atoms: C_15  and  C_17
REMARK                            x       y       z     vdW  Elec       q    Type
REMARK                         _______ _______ _______ _____ _____    ______ ____
ROOT
ATOM      1  N   UNL     1      -3.904  -1.564   0.043  0.00  0.00    -0.241 N 
ATOM      2  C   UNL     1      -4.537  -1.089   1.178  0.00  0.00    +0.170 A 
ATOM      3  C   UNL     1      -5.611  -0.294   0.736  0.00  0.00    +0.117 A 
ATOM      4  C   UNL     1      -6.426   0.315   1.690  0.00  0.00    +0.154 A 
ATOM      5  N   UNL     1      -6.154   0.118   2.981  0.00  0.00    -0.220 NA
ATOM      6  C   UNL     1      -5.135  -0.637   3.354  0.00  0.00    +0.163 A 
ATOM      7  N   UNL     1      -4.336  -1.233   2.476  0.00  0.00    -0.208 NA
ATOM      8  N   UNL     1      -5.586  -0.319  -0.646  0.00  0.00    -0.303 N 
ATOM      9  H   UNL     1      -6.207   0.139  -1.234  0.00  0.00    +0.171 HD
ATOM     10  C   UNL     1      -4.548  -1.083  -1.037  0.00  0.00    +0.333 A 
ATOM     11  O   UNL     1      -4.241  -1.309  -2.193  0.00  0.00    -0.246 OA
ENDROOT
BRANCH   1  17
ATOM     12  C   UNL     1      -1.498  -1.849   0.006  0.00  0.00    +0.144 A 
ATOM     13  C   UNL     1      -0.389  -2.679  -0.009  0.00  0.00    +0.048 A 
ATOM     14  C   UNL     1      -0.554  -4.052  -0.014  0.00  0.00    +0.004 A 
ATOM     15  C   UNL     1      -1.823  -4.600  -0.004  0.00  0.00    +0.002 A 
ATOM     16  C   UNL     1      -2.934  -3.779   0.010  0.00  0.00    +0.030 A 
ATOM     17  C   UNL     1      -2.777  -2.401   0.021  0.00  0.00    +0.094 A 
BRANCH  12  18
ATOM     18  O   UNL     1      -1.339  -0.499   0.012  0.00  0.00    -0.490 OA
BRANCH  18  20
ATOM     19  C   UNL     1      -0.019   1.526   0.010  0.00  0.00    +0.048 C 
ATOM     20  C   UNL     1       0.002  -0.004   0.002  0.00  0.00    +0.226 C 
ENDBRANCH  18  20
ENDBRANCH  12  18
ENDBRANCH   1  17
BRANCH   6  21
ATOM     21  C   UNL     1      -4.874  -0.825   4.802  0.00  0.00    +0.019 A 
ATOM     22  C   UNL     1      -3.810  -1.621   5.224  0.00  0.00    +0.011 A 
ATOM     23  C   UNL     1      -3.569  -1.788   6.573  0.00  0.00    +0.001 A 
ATOM     24  C   UNL     1      -4.388  -1.177   7.505  0.00  0.00    +0.000 A 
ATOM     25  C   UNL     1      -5.449  -0.391   7.092  0.00  0.00    +0.001 A 
ATOM     26  C   UNL     1      -5.696  -0.212   5.746  0.00  0.00    +0.011 A 
ENDBRANCH   6  21
BRANCH   4  27
ATOM     27  C   UNL     1      -7.570   1.162   1.279  0.00  0.00    +0.262 C 
ATOM     28  O   UNL     1      -7.805   1.333   0.099  0.00  0.00    -0.269 OA
ATOM     29  N   UNL     1      -8.348   1.743   2.213  0.00  0.00    -0.324 N 
ATOM     30  H   UNL     1      -8.160   1.607   3.154  0.00  0.00    +0.145 HD
ATOM     31  H   UNL     1      -9.097   2.298   1.943  0.00  0.00    +0.145 HD
ENDBRANCH   4  27
TORSDOF 5
