REMARK  Name = ZINC16830197
REMARK  13 active torsions:
REMARK  status: ('A' for Active; 'I' for Inactive)
REMARK    1  A    between atoms: C_1  and  C_2
REMARK    2  A    between atoms: C_2  and  C_4
REMARK    3  A    between atoms: C_2  and  S_13
REMARK    4  A    between atoms: N_6  and  C_7
REMARK    5  A    between atoms: N_6  and  C_10
REMARK    6  A    between atoms: C_7  and  C_8
REMARK    7  A    between atoms: C_7  and  C_9
REMARK    8  A    between atoms: C_10  and  C_11
REMARK    9  A    between atoms: C_10  and  C_12
REMARK   10  A    between atoms: S_13  and  C_14
REMARK   11  A    between atoms: C_17  and  C_19
REMARK   12  A    between atoms: N_28  and  C_30
REMARK   13  A    between atoms: C_30  and  C_31
REMARK                            x       y       z     vdW  Elec       q    Type
REMARK                         _______ _______ _______ _____ _____    ______ ____
ROOT
ATOM      1  C   UNL     1      -5.141  -0.228   3.652  0.00  0.00    +0.155 A 
ATOM      2  C   UNL     1      -5.149   0.296   5.026  0.00  0.00    +0.020 A 
ATOM      3  C   UNL     1      -4.014   0.863   5.602  0.00  0.00    +0.011 A 
ATOM      4  C   UNL     1      -4.072   1.340   6.893  0.00  0.00    +0.001 A 
ATOM      5  C   UNL     1      -5.249   1.263   7.626  0.00  0.00    +0.001 A 
ATOM      6  C   UNL     1      -6.383   0.707   7.077  0.00  0.00    +0.014 A 
ATOM      7  C   UNL     1      -6.346   0.218   5.771  0.00  0.00    +0.050 A 
ATOM      8  C   UNL     1      -7.525  -0.384   5.135  0.00  0.00    +0.275 A 
ATOM      9  O   UNL     1      -8.578  -0.471   5.741  0.00  0.00    -0.266 OA
ATOM     10  N   UNL     1      -7.424  -0.839   3.869  0.00  0.00    -0.224 N 
ATOM     11  N   UNL     1      -6.234  -0.748   3.146  0.00  0.00    -0.162 NA
ENDROOT
BRANCH   1  15
ATOM     12  C   UNL     1      -2.487  -0.347   1.229  0.00  0.00    +0.278 A 
ATOM     13  N   UNL     1      -1.906   0.218   2.263  0.00  0.00    -0.101 NA
ATOM     14  N   UNL     1      -2.755   0.327   3.224  0.00  0.00    -0.105 NA
ATOM     15  C   UNL     1      -3.910  -0.164   2.843  0.00  0.00    +0.270 A 
ATOM     16  O   UNL     1      -3.765  -0.596   1.570  0.00  0.00    -0.409 OA
BRANCH  12  17
ATOM     17  S   UNL     1      -1.732  -0.707  -0.322  0.00  0.00    -0.053 S 
BRANCH  17  19
ATOM     18  C   UNL     1      -0.018   1.390   0.059  0.00  0.00    +0.029 C 
ATOM     19  C   UNL     1      -0.024  -0.129  -0.124  0.00  0.00    +0.139 C 
BRANCH  19  20
ATOM     20  C   UNL     1       0.774  -0.491  -1.350  0.00  0.00    +0.229 C 
ATOM     21  O   UNL     1       0.213  -0.651  -2.413  0.00  0.00    -0.274 OA
ATOM     22  N   UNL     1       2.111  -0.637  -1.265  0.00  0.00    -0.296 N 
BRANCH  22  23
ATOM     23  C   UNL     1       2.788  -0.443   0.020  0.00  0.00    +0.070 C 
ATOM     24  C   UNL     1       3.395  -1.770   0.481  0.00  0.00    +0.028 C 
ATOM     25  C   UNL     1       3.899   0.597  -0.141  0.00  0.00    +0.028 C 
ENDBRANCH  22  23
BRANCH  22  26
ATOM     26  C   UNL     1       2.887  -0.988  -2.457  0.00  0.00    +0.070 C 
ATOM     27  C   UNL     1       2.373  -2.312  -3.027  0.00  0.00    +0.028 C 
ATOM     28  C   UNL     1       2.735   0.113  -3.507  0.00  0.00    +0.028 C 
ENDBRANCH  22  26
ENDBRANCH  19  20
ENDBRANCH  17  19
ENDBRANCH  12  17
ENDBRANCH   1  15
BRANCH  10  29
ATOM     29  C   UNL     1      -8.599  -1.440   3.233  0.00  0.00    +0.182 C 
BRANCH  29  30
ATOM     30  C   UNL     1      -9.390  -0.370   2.526  0.00  0.00    -0.026 A 
ATOM     31  C   UNL     1     -10.385   0.313   3.200  0.00  0.00    +0.005 A 
ATOM     32  C   UNL     1     -11.111   1.295   2.551  0.00  0.00    +0.000 A 
ATOM     33  C   UNL     1     -10.841   1.593   1.229  0.00  0.00    +0.000 A 
ATOM     34  C   UNL     1      -9.846   0.911   0.555  0.00  0.00    +0.000 A 
ATOM     35  C   UNL     1      -9.117  -0.068   1.205  0.00  0.00    +0.005 A 
ENDBRANCH  29  30
ENDBRANCH  10  29
TORSDOF 8
