REMARK  Name = ZINC00133125
REMARK  7 active torsions:
REMARK  status: ('A' for Active; 'I' for Inactive)
REMARK    1  A    between atoms: C_1  and  C_2
REMARK    2  A    between atoms: C_3  and  C_17
REMARK    3  A    between atoms: C_4  and  C_10
REMARK    4  A    between atoms: C_17  and  O_19
REMARK    5  A    between atoms: O_19  and  C_20
REMARK    6  A    between atoms: C_20  and  C_21
REMARK    7  A    between atoms: C_20  and  C_22
REMARK                            x       y       z     vdW  Elec       q    Type
REMARK                         _______ _______ _______ _____ _____    ______ ____
ROOT
ATOM      1  C   UNL     1      -0.018   1.503   0.010  0.00  0.00    +0.061 C 
ATOM      2  C   UNL     1       0.002  -0.004   0.002  0.00  0.00    +0.021 C 
ATOM      3  C   UNL     1      -1.165  -0.684   0.004  0.00  0.00    +0.074 C 
ATOM      4  C   UNL     1      -1.098  -2.198  -0.005  0.00  0.00    +0.117 C 
ATOM      5  N   UNL     1       0.242  -2.807  -0.014  0.00  0.00    -0.292 N 
ATOM      6  C   UNL     1       1.317  -1.993  -0.015  0.00  0.00    +0.304 C 
ATOM      7  O   UNL     1       2.428  -2.486  -0.023  0.00  0.00    -0.253 OA
ATOM      8  N   UNL     1       1.200  -0.659  -0.013  0.00  0.00    -0.273 N 
ATOM      9  H   UNL     1       0.350  -3.771  -0.020  0.00  0.00    +0.151 HD
ATOM     10  H   UNL     1       2.012  -0.129  -0.018  0.00  0.00    +0.156 HD
ENDROOT
BRANCH   4  11
ATOM     11  C   UNL     1      -1.839  -2.709   1.233  0.00  0.00    +0.018 C 
ATOM     12  C   UNL     1      -1.787  -4.242   1.268  0.00  0.00    +0.010 C 
ATOM     13  C   UNL     1      -2.681  -4.731   2.410  0.00  0.00    +0.027 C 
ATOM     14  C   UNL     1      -2.362  -3.984   3.672  0.00  0.00    -0.031 C 
ATOM     15  C   UNL     1      -1.705  -2.870   3.709  0.00  0.00    -0.031 C 
ATOM     16  C   UNL     1      -1.165  -2.168   2.496  0.00  0.00    +0.032 C 
ENDBRANCH   4  11
BRANCH   3  17
ATOM     17  C   UNL     1      -2.406  -0.006   0.014  0.00  0.00    +0.339 C 
ATOM     18  O   UNL     1      -2.435   1.210   0.021  0.00  0.00    -0.245 OA
BRANCH  17  19
ATOM     19  O   UNL     1      -3.558  -0.709   0.016  0.00  0.00    -0.459 OA
BRANCH  19  20
ATOM     20  C   UNL     1      -4.775   0.040   0.026  0.00  0.00    +0.171 C 
ATOM     21  C   UNL     1      -5.868  -0.752  -0.694  0.00  0.00    +0.052 C 
ATOM     22  C   UNL     1      -5.202   0.299   1.472  0.00  0.00    +0.052 C 
ENDBRANCH  19  20
ENDBRANCH  17  19
ENDBRANCH   3  17
TORSDOF 4
