REMARK  Name = ZINC32217549
REMARK  3 active torsions:
REMARK  status: ('A' for Active; 'I' for Inactive)
REMARK    1  A    between atoms: C_4  and  C_7
REMARK    2  A    between atoms: C_8  and  C_9
REMARK    3  A    between atoms: C_15  and  C_17
REMARK                            x       y       z     vdW  Elec       q    Type
REMARK                         _______ _______ _______ _____ _____    ______ ____
ROOT
ATOM      1  C   UNL     1      -1.214   3.590   0.027  0.00  0.00    +0.179 A 
ATOM      2  N   UNL     1      -0.161   4.382   0.032  0.00  0.00    -0.127 NA
ATOM      3  N   UNL     1      -0.540   5.613   0.036  0.00  0.00    -0.120 NA
ATOM      4  C   UNL     1      -1.840   5.671   0.043  0.00  0.00    +0.218 A 
ATOM      5  N   UNL     1      -2.348   4.396   0.037  0.00  0.00    -0.186 N 
ATOM      6  N   UNL     1      -3.732   4.280   0.042  0.00  0.00    -0.160 NA
ATOM      7  C   UNL     1      -4.499   5.328   0.052  0.00  0.00    +0.104 A 
ATOM      8  S   UNL     1      -3.313   6.663   0.055  0.00  0.00    -0.031 S 
ENDROOT
BRANCH   7   9
ATOM      9  C   UNL     1      -6.005   5.400   0.060  0.00  0.00    +0.029 C 
ATOM     10  C   UNL     1      -6.487   6.154  -1.183  0.00  0.00    +0.006 C 
ATOM     11  C   UNL     1      -8.013   6.274  -1.137  0.00  0.00    -0.018 C 
ATOM     12  C   UNL     1      -8.425   6.989   0.152  0.00  0.00    -0.083 C 
ATOM     13  N   UNL     1      -7.940   6.228   1.312  0.00  0.00    +0.379 N 
ATOM     14  C   UNL     1      -6.475   6.139   1.315  0.00  0.00    -0.072 C 
ATOM     15  H   UNL     1      -8.263   6.726   2.238  0.00  0.00    -0.086 HD
ATOM     16  H   UNL     1      -8.353   5.209   1.280  0.00  0.00    -0.086 HD
ENDBRANCH   7   9
BRANCH   1  18
ATOM     17  C   UNL     1      -0.018   1.468   0.010  0.00  0.00    +0.011 C 
ATOM     18  C   UNL     1      -1.194   2.126   0.019  0.00  0.00    +0.050 C 
BRANCH  17  22
ATOM     19  C   UNL     1       0.040  -2.774  -0.013  0.00  0.00    +0.000 A 
ATOM     20  C   UNL     1       1.231  -2.069  -0.020  0.00  0.00    +0.001 A 
ATOM     21  C   UNL     1       1.220  -0.690  -0.013  0.00  0.00    +0.008 A 
ATOM     22  C   UNL     1       0.002  -0.004   0.002  0.00  0.00    -0.025 A 
ATOM     23  C   UNL     1      -1.197  -0.723   0.015  0.00  0.00    +0.008 A 
ATOM     24  C   UNL     1      -1.170  -2.102   0.002  0.00  0.00    +0.001 A 
ENDBRANCH  17  22
ENDBRANCH   1  18
TORSDOF 3
