REMARK  Name = ZINC63375974
REMARK  7 active torsions:
REMARK  status: ('A' for Active; 'I' for Inactive)
REMARK    1  A    between atoms: C_1  and  C_2
REMARK    2  A    between atoms: C_2  and  C_3
REMARK    3  A    between atoms: C_3  and  C_4
REMARK    4  A    between atoms: C_4  and  N_5
REMARK    5  A    between atoms: C_6  and  C_8
REMARK    6  A    between atoms: C_13  and  N_14
REMARK    7  A    between atoms: C_30  and  C_35
REMARK                            x       y       z     vdW  Elec       q    Type
REMARK                         _______ _______ _______ _____ _____    ______ ____
ROOT
ATOM      1  N   UNL     1      -3.574  -6.690   0.001  0.00  0.00    -0.192 N 
ATOM      2  C   UNL     1      -2.987  -7.188   1.108  0.00  0.00    +0.248 C 
ATOM      3  O   UNL     1      -3.267  -6.936   2.261  0.00  0.00    -0.273 OA
ATOM      4  C   UNL     1      -1.907  -8.127   0.614  0.00  0.00    +0.169 C 
ATOM      5  C   UNL     1      -0.537  -7.634   1.101  0.00  0.00    +0.065 C 
ATOM      6  C   UNL     1       0.438  -7.808  -0.036  0.00  0.00    -0.035 C 
ATOM      7  C   UNL     1       1.555  -7.137  -0.311  0.00  0.00    -0.001 A 
ATOM      8  C   UNL     1       2.247  -6.058   0.411  0.00  0.00    +0.010 A 
ATOM      9  C   UNL     1       3.381  -5.582  -0.169  0.00  0.00    +0.001 A 
ATOM     10  C   UNL     1       3.889  -6.066  -1.379  0.00  0.00    +0.002 A 
ATOM     11  C   UNL     1       3.319  -7.060  -2.107  0.00  0.00    +0.026 A 
ATOM     12  C   UNL     1       2.123  -7.644  -1.596  0.00  0.00    +0.043 A 
ATOM     13  N   UNL     1       1.388  -8.604  -2.070  0.00  0.00    -0.376 N 
ATOM     14  C   UNL     1       0.284  -8.848  -1.134  0.00  0.00    +0.126 C 
ATOM     15  C   UNL     1      -1.068  -8.614  -1.817  0.00  0.00    +0.102 C 
ATOM     16  N   UNL     1      -1.983  -7.993  -0.853  0.00  0.00    -0.268 N 
ATOM     17  C   UNL     1      -3.009  -7.169  -1.115  0.00  0.00    +0.317 C 
ATOM     18  O   UNL     1      -3.380  -6.887  -2.237  0.00  0.00    -0.252 OA
ATOM     19  C   UNL     1      -0.881  -7.701  -3.030  0.00  0.00    +0.030 C 
ATOM     20  H   UNL     1       1.541  -9.079  -2.901  0.00  0.00    +0.160 HD
ENDROOT
BRANCH   1  26
ATOM     21  C   UNL     1      -4.400  -4.410   0.020  0.00  0.00    +0.059 A 
ATOM     22  C   UNL     1      -5.476  -3.520   0.030  0.00  0.00    +0.015 A 
ATOM     23  C   UNL     1      -6.767  -4.003   0.039  0.00  0.00    +0.001 A 
ATOM     24  C   UNL     1      -7.003  -5.369   0.040  0.00  0.00    +0.002 A 
ATOM     25  C   UNL     1      -5.948  -6.259   0.030  0.00  0.00    +0.025 A 
ATOM     26  C   UNL     1      -4.642  -5.791   0.015  0.00  0.00    +0.058 A 
BRANCH  21  28
ATOM     27  N   UNL     1      -2.787  -2.571   0.015  0.00  0.00    -0.311 N 
ATOM     28  C   UNL     1      -3.015  -3.899   0.010  0.00  0.00    +0.246 C 
ATOM     29  O   UNL     1      -2.080  -4.676  -0.003  0.00  0.00    -0.270 OA
ATOM     30  H   UNL     1      -3.533  -1.950   0.025  0.00  0.00    +0.149 HD
BRANCH  27  31
ATOM     31  C   UNL     1      -1.413  -2.063   0.004  0.00  0.00    +0.104 C 
BRANCH  31  32
ATOM     32  C   UNL     1      -1.433  -0.534   0.013  0.00  0.00    +0.018 C 
BRANCH  32  34
ATOM     33  C   UNL     1      -0.019   1.526   0.010  0.00  0.00    +0.004 C 
ATOM     34  C   UNL     1       0.002  -0.004   0.002  0.00  0.00    -0.002 C 
ENDBRANCH  32  34
ENDBRANCH  31  32
ENDBRANCH  27  31
ENDBRANCH  21  28
ENDBRANCH   1  26
TORSDOF 5
