REMARK  Name = ZINC36964218
REMARK  5 active torsions:
REMARK  status: ('A' for Active; 'I' for Inactive)
REMARK    1  A    between atoms: C_1  and  C_2
REMARK    2  A    between atoms: N_8  and  S_9
REMARK    3  A    between atoms: S_9  and  C_12
REMARK    4  A    between atoms: C_15  and  N_21
REMARK    5  A    between atoms: C_16  and  N_18
REMARK                            x       y       z     vdW  Elec       q    Type
REMARK                         _______ _______ _______ _____ _____    ______ ____
ROOT
ATOM      1  S   UNL     1       0.148  -1.451   4.255  0.00  0.00    +0.101 S 
ATOM      2  O   UNL     1       1.284  -0.696   4.654  0.00  0.00    -0.146 OA
ATOM      3  O   UNL     1      -1.167  -0.912   4.264  0.00  0.00    -0.146 OA
ENDROOT
BRANCH   1  11
ATOM      4  C   UNL     1       0.261   2.634   1.278  0.00  0.00    +0.063 C 
ATOM      5  C   UNL     1       0.439   1.169   0.977  0.00  0.00    +0.015 A 
ATOM      6  C   UNL     1       0.675   0.773  -0.292  0.00  0.00    +0.021 A 
ATOM      7  C   UNL     1       0.844  -0.590  -0.592  0.00  0.00    +0.005 A 
ATOM      8  C   UNL     1       0.767  -1.512   0.403  0.00  0.00    +0.048 A 
ATOM      9  C   UNL     1       0.518  -1.082   1.728  0.00  0.00    +0.153 A 
ATOM     10  N   UNL     1       0.364   0.259   1.988  0.00  0.00    -0.343 N 
ATOM     11  N   UNL     1       0.440  -1.960   2.706  0.00  0.00    -0.111 NA
ATOM     12  H   UNL     1       0.197   0.558   2.896  0.00  0.00    +0.167 HD
ENDBRANCH   1  11
BRANCH   1  13
ATOM     13  C   UNL     1       0.112  -2.885   5.277  0.00  0.00    +0.115 A 
ATOM     14  C   UNL     1      -1.081  -3.554   5.485  0.00  0.00    +0.031 A 
ATOM     15  C   UNL     1      -1.113  -4.679   6.285  0.00  0.00    +0.027 A 
ATOM     16  C   UNL     1       0.055  -5.139   6.881  0.00  0.00    +0.055 A 
ATOM     17  C   UNL     1       1.251  -4.465   6.670  0.00  0.00    +0.149 A 
ATOM     18  C   UNL     1       1.277  -3.343   5.865  0.00  0.00    +0.063 A 
BRANCH  17  19
ATOM     19  N   UNL     1       2.497  -4.951   7.304  0.00  0.00    +0.058 N 
ATOM     20  O   UNL     1       2.469  -5.399   8.427  0.00  0.00    -0.126 OA
ATOM     21  O   UNL     1       3.543  -4.899   6.700  0.00  0.00    -0.126 OA
ENDBRANCH  17  19
BRANCH  16  22
ATOM     22  N   UNL     1       0.026  -6.276   7.691  0.00  0.00    -0.356 N 
ATOM     23  H   UNL     1      -0.823  -6.674   7.939  0.00  0.00    +0.142 HD
ATOM     24  H   UNL     1       0.856  -6.669   8.006  0.00  0.00    +0.142 HD
ENDBRANCH  16  22
ENDBRANCH   1  13
TORSDOF 4
