REMARK  Name = ZINC18551759
REMARK  7 active torsions:
REMARK  status: ('A' for Active; 'I' for Inactive)
REMARK    1  A    between atoms: C_1  and  C_2
REMARK    2  A    between atoms: C_2  and  C_3
REMARK    3  A    between atoms: C_3  and  C_25
REMARK    4  A    between atoms: N_6  and  N_10
REMARK    5  A    between atoms: C_11  and  C_13
REMARK    6  A    between atoms: C_13  and  S_14
REMARK    7  A    between atoms: S_14  and  C_15
REMARK                            x       y       z     vdW  Elec       q    Type
REMARK                         _______ _______ _______ _____ _____    ______ ____
ROOT
ATOM      1  N   UNL     1      -7.662   0.488   0.050  0.00  0.00    -0.223 N 
ATOM      2  C   UNL     1      -6.555  -0.281   0.038  0.00  0.00    +0.240 C 
ATOM      3  O   UNL     1      -6.657  -1.490   0.031  0.00  0.00    -0.273 OA
ATOM      4  H   UNL     1      -7.580   1.455   0.056  0.00  0.00    +0.174 HD
ENDROOT
BRANCH   1   8
ATOM      5  C   UNL     1     -10.989  -0.889  -0.552  0.00  0.00    +0.111 C 
ATOM      6  C   UNL     1      -9.746  -0.157  -1.018  0.00  0.00    +0.263 C 
ATOM      7  O   UNL     1      -9.530   0.289  -2.124  0.00  0.00    -0.271 OA
ATOM      8  N   UNL     1      -8.930  -0.108   0.053  0.00  0.00    -0.137 N 
ATOM      9  C   UNL     1      -9.482  -0.694   1.122  0.00  0.00    +0.326 C 
ATOM     10  O   UNL     1      -8.938  -0.771   2.206  0.00  0.00    -0.251 OA
ATOM     11  N   UNL     1     -10.706  -1.188   0.862  0.00  0.00    -0.284 N 
ATOM     12  C   UNL     1     -11.188  -2.181  -1.347  0.00  0.00    +0.041 C 
ATOM     13  H   UNL     1     -11.288  -1.651   1.485  0.00  0.00    +0.151 HD
BRANCH   5  15
ATOM     14  C   UNL     1     -13.412  -0.656   0.013  0.00  0.00    +0.006 C 
ATOM     15  C   UNL     1     -12.220   0.012  -0.675  0.00  0.00    +0.032 C 
ENDBRANCH   5  15
ENDBRANCH   1   8
BRANCH   2  16
ATOM     16  C   UNL     1      -5.192   0.360   0.035  0.00  0.00    +0.171 C 
BRANCH  16  17
ATOM     17  S   UNL     1      -3.917  -0.930   0.019  0.00  0.00    -0.116 S 
BRANCH  17  18
ATOM     18  C   UNL     1      -2.401  -0.032   0.016  0.00  0.00    +0.012 A 
ATOM     19  C   UNL     1      -2.416   1.357   0.025  0.00  0.00    +0.018 A 
ATOM     20  C   UNL     1      -1.228   2.062   0.019  0.00  0.00    +0.050 A 
ATOM     21  C   UNL     1      -0.017   1.386   0.010  0.00  0.00    +0.162 A 
ATOM     22  C   UNL     1       0.002  -0.004   0.002  0.00  0.00    +0.163 A 
ATOM     23  C   UNL     1      -1.190  -0.711   0.004  0.00  0.00    +0.064 A 
ATOM     24  O   UNL     1       1.181  -0.685  -0.006  0.00  0.00    -0.485 OA
ATOM     25  C   UNL     1       2.347   0.053  -0.387  0.00  0.00    +0.270 C 
ATOM     26  C   UNL     1       2.336   1.391   0.365  0.00  0.00    +0.270 C 
ATOM     27  O   UNL     1       1.145   2.098   0.002  0.00  0.00    -0.485 OA
ENDBRANCH  17  18
ENDBRANCH  16  17
ENDBRANCH   2  16
TORSDOF 5
