REMARK  Name = ZINC25186001
REMARK  12 active torsions:
REMARK  status: ('A' for Active; 'I' for Inactive)
REMARK    1  A    between atoms: C_1  and  C_2
REMARK    2  A    between atoms: C_9  and  C_11
REMARK    3  A    between atoms: C_11  and  S_12
REMARK    4  A    between atoms: S_12  and  C_13
REMARK    5  A    between atoms: C_16  and  C_19
REMARK    6  A    between atoms: N_17  and  N_18
REMARK    7  A    between atoms: C_19  and  O_20
REMARK    8  A    between atoms: O_20  and  C_21
REMARK    9  A    between atoms: C_24  and  C_27
REMARK   10  A    between atoms: C_27  and  C_28
REMARK   11  A    between atoms: C_27  and  C_29
REMARK   12  A    between atoms: C_27  and  C_30
REMARK                            x       y       z     vdW  Elec       q    Type
REMARK                         _______ _______ _______ _____ _____    ______ ____
ROOT
ATOM      1  C   UNL     1       0.724   5.582  -0.596  0.00  0.00    +0.209 A 
ATOM      2  N   UNL     1       0.748   5.493   0.714  0.00  0.00    -0.121 NA
ATOM      3  N   UNL     1       0.929   4.270   1.066  0.00  0.00    -0.128 NA
ATOM      4  C   UNL     1       1.030   3.512   0.011  0.00  0.00    +0.189 A 
ATOM      5  N   UNL     1       0.908   4.321  -1.085  0.00  0.00    -0.225 N 
ENDROOT
BRANCH   5   6
ATOM      6  N   UNL     1       0.958   3.944  -2.397  0.00  0.00    -0.295 N 
ATOM      7  H   UNL     1       1.113   2.888  -2.661  0.00  0.00    +0.163 HD
ATOM      8  H   UNL     1       0.842   4.698  -3.190  0.00  0.00    +0.163 HD
ENDBRANCH   5   6
BRANCH   1   9
ATOM      9  S   UNL     1       0.501   7.051  -1.542  0.00  0.00    -0.075 S 
BRANCH   9  10
ATOM     10  C   UNL     1       0.336   8.263  -0.208  0.00  0.00    +0.173 C 
BRANCH  10  18
ATOM     11  C   UNL     1       0.554  14.419  -0.417  0.00  0.00    +0.009 C 
ATOM     12  C   UNL     1       0.830  12.989   0.051  0.00  0.00    +0.003 C 
ATOM     13  C   UNL     1       0.755  12.927   1.578  0.00  0.00    +0.006 C 
ATOM     14  C   UNL     1       1.063  11.504   2.048  0.00  0.00    +0.019 C 
ATOM     15  C   UNL     1       0.018  10.542   1.473  0.00  0.00    +0.108 C 
ATOM     16  N   UNL     1      -0.017  10.701   0.013  0.00  0.00    -0.301 N 
ATOM     17  C   UNL     1      -0.212  12.045  -0.547  0.00  0.00    +0.111 C 
ATOM     18  C   UNL     1       0.131   9.634  -0.798  0.00  0.00    +0.226 C 
ATOM     19  O   UNL     1       0.100   9.778  -2.002  0.00  0.00    -0.275 OA
ENDBRANCH  10  18
ENDBRANCH   9  10
ENDBRANCH   1   9
BRANCH   4  20
ATOM     20  C   UNL     1       1.248   2.021   0.001  0.00  0.00    +0.306 C 
BRANCH  20  21
ATOM     21  O   UNL     1      -0.016   1.355   0.009  0.00  0.00    -0.484 OA
BRANCH  21  22
ATOM     22  C   UNL     1       0.002  -0.004   0.002  0.00  0.00    +0.121 A 
ATOM     23  C   UNL     1       1.212  -0.682  -0.019  0.00  0.00    +0.046 A 
ATOM     24  C   UNL     1       1.228  -2.064  -0.020  0.00  0.00    +0.008 A 
ATOM     25  C   UNL     1       0.040  -2.770  -0.013  0.00  0.00    -0.042 A 
ATOM     26  C   UNL     1      -1.168  -2.096   0.002  0.00  0.00    +0.008 A 
ATOM     27  C   UNL     1      -1.189  -0.715   0.010  0.00  0.00    +0.046 A 
BRANCH  25  28
ATOM     28  C   UNL     1       0.060  -4.277  -0.021  0.00  0.00    -0.013 C 
ATOM     29  C   UNL     1      -0.666  -4.790  -1.266  0.00  0.00    +0.015 C 
ATOM     30  C   UNL     1       1.509  -4.767  -0.038  0.00  0.00    +0.015 C 
ATOM     31  C   UNL     1      -0.642  -4.803   1.232  0.00  0.00    +0.015 C 
ENDBRANCH  25  28
ENDBRANCH  21  22
ENDBRANCH  20  21
ENDBRANCH   4  20
TORSDOF 8
