REMARK  Name = ZINC64006946
REMARK  5 active torsions:
REMARK  status: ('A' for Active; 'I' for Inactive)
REMARK    1  A    between atoms: C_1  and  N_2
REMARK    2  A    between atoms: C_7  and  C_10
REMARK    3  A    between atoms: C_25  and  C_27
REMARK    4  A    between atoms: C_30  and  O_34
REMARK    5  A    between atoms: O_34  and  C_35
REMARK                            x       y       z     vdW  Elec       q    Type
REMARK                         _______ _______ _______ _____ _____    ______ ____
ROOT
ATOM      1  C   UNL     1       0.330  -2.957   2.269  0.00  0.00    +0.239 C 
ATOM      2  O   UNL     1      -0.389  -2.538   3.151  0.00  0.00    -0.273 OA
ATOM      3  N   UNL     1       1.182  -3.971   2.518  0.00  0.00    -0.290 N 
ATOM      4  C   UNL     1       1.989  -4.526   1.427  0.00  0.00    +0.113 C 
ATOM      5  C   UNL     1       1.704  -6.033   1.293  0.00  0.00    +0.052 C 
ATOM      6  C   UNL     1       1.728  -6.603   2.690  0.00  0.00    -0.035 C 
ATOM      7  C   UNL     1       2.389  -7.632   3.207  0.00  0.00    -0.001 A 
ATOM      8  C   UNL     1       3.249  -8.654   2.589  0.00  0.00    +0.010 A 
ATOM      9  C   UNL     1       3.793  -9.569   3.433  0.00  0.00    +0.001 A 
ATOM     10  C   UNL     1       3.571  -9.570   4.814  0.00  0.00    +0.002 A 
ATOM     11  C   UNL     1       2.788  -8.674   5.465  0.00  0.00    +0.026 A 
ATOM     12  C   UNL     1       2.154  -7.666   4.682  0.00  0.00    +0.043 A 
ATOM     13  N   UNL     1       1.346  -6.710   5.036  0.00  0.00    -0.375 N 
ATOM     14  C   UNL     1       0.922  -5.995   3.832  0.00  0.00    +0.131 C 
ATOM     15  C   UNL     1       1.297  -4.506   3.885  0.00  0.00    +0.135 C 
ATOM     16  H   UNL     1       1.071  -6.507   5.943  0.00  0.00    +0.160 HD
ENDROOT
BRANCH   1  23
ATOM     17  C   UNL     1      -1.145   0.676  -0.538  0.00  0.00    +0.153 C 
ATOM     18  N   UNL     1      -0.939  -0.763  -0.359  0.00  0.00    -0.236 N 
ATOM     19  C   UNL     1      -0.974  -1.579  -1.432  0.00  0.00    +0.252 C 
ATOM     20  O   UNL     1      -1.211  -1.135  -2.539  0.00  0.00    -0.269 OA
ATOM     21  C   UNL     1      -0.718  -3.020  -1.240  0.00  0.00    +0.066 C 
ATOM     22  C   UNL     1      -0.113  -3.399  -0.110  0.00  0.00    +0.007 C 
ATOM     23  C   UNL     1       0.272  -2.342   0.894  0.00  0.00    +0.182 C 
ATOM     24  N   UNL     1      -0.711  -1.260   0.888  0.00  0.00    -0.222 NA
ATOM     25  H   UNL     1      -1.572  -1.556   1.323  0.00  0.00    +0.146 HD
ENDBRANCH   1  23
BRANCH  15  26
ATOM     26  C   UNL     1       0.352  -3.772   4.801  0.00  0.00    +0.011 A 
ATOM     27  C   UNL     1      -0.875  -4.325   5.116  0.00  0.00    +0.012 A 
ATOM     28  C   UNL     1      -1.742  -3.655   5.956  0.00  0.00    +0.046 A 
ATOM     29  C   UNL     1      -1.382  -2.423   6.485  0.00  0.00    +0.123 A 
ATOM     30  C   UNL     1      -0.151  -1.868   6.169  0.00  0.00    +0.084 A 
ATOM     31  C   UNL     1       0.717  -2.546   5.332  0.00  0.00    +0.132 A 
ATOM     32  F   UNL     1       1.919  -2.009   5.028  0.00  0.00    -0.205 F 
BRANCH  29  33
ATOM     33  O   UNL     1      -2.235  -1.762   7.311  0.00  0.00    -0.495 OA
ATOM     34  C   UNL     1      -1.799  -0.499   7.818  0.00  0.00    +0.277 C 
ENDBRANCH  29  33
ENDBRANCH  15  26
TORSDOF 3
