REMARK  Name = ZINC39133432
REMARK  2 active torsions:
REMARK  status: ('A' for Active; 'I' for Inactive)
REMARK    1  A    between atoms: C_1  and  C_2
REMARK    2  A    between atoms: C_5  and  C_12
REMARK                            x       y       z     vdW  Elec       q    Type
REMARK                         _______ _______ _______ _____ _____    ______ ____
ROOT
ATOM      1  C   UNL     1      -0.018   1.503   0.010  0.00  0.00    +0.044 C 
ATOM      2  C   UNL     1       0.002  -0.004   0.002  0.00  0.00    -0.048 A 
ATOM      3  C   UNL     1       0.005  -0.648  -1.187  0.00  0.00    +0.014 A 
ATOM      4  C   UNL     1       0.024  -2.062  -1.233  0.00  0.00    +0.011 A 
ATOM      5  C   UNL     1       0.031  -2.968  -2.276  0.00  0.00    +0.069 C 
ATOM      6  C   UNL     1       0.053  -4.334  -1.626  0.00  0.00    +0.156 C 
ATOM      7  N   UNL     1       0.057  -4.096  -0.179  0.00  0.00    -0.379 N 
ATOM      8  C   UNL     1       0.041  -2.815   0.046  0.00  0.00    +0.062 A 
ATOM      9  C   UNL     1       0.036  -2.035   1.297  0.00  0.00    +0.065 A 
ATOM     10  C   UNL     1       0.023  -0.686   1.229  0.00  0.00    +0.025 A 
ATOM     11 CL   UNL     1       0.055  -2.839   2.836  0.00  0.00    -0.081 Cl
ATOM     12  H   UNL     1       0.070  -4.786   0.503  0.00  0.00    +0.160 HD
ENDROOT
BRANCH   5  13
ATOM     13  C   UNL     1       0.019  -2.678  -3.662  0.00  0.00    +0.385 C 
ATOM     14  O   UNL     1       0.001  -1.515  -4.045  0.00  0.00    -0.241 OA
ATOM     15  O   UNL     1       0.028  -3.591  -4.479  0.00  0.00    -0.241 OA
ENDBRANCH   5  13
TORSDOF 1
