REMARK  Name = ZINC65460935
REMARK  5 active torsions:
REMARK  status: ('A' for Active; 'I' for Inactive)
REMARK    1  A    between atoms: C_1  and  C_2
REMARK    2  A    between atoms: C_3  and  C_18
REMARK    3  A    between atoms: C_7  and  N_8
REMARK    4  A    between atoms: C_9  and  C_11
REMARK    5  A    between atoms: C_14  and  C_17
REMARK                            x       y       z     vdW  Elec       q    Type
REMARK                         _______ _______ _______ _____ _____    ______ ____
ROOT
ATOM      1  C   UNL     1       0.143   1.556   0.055  0.00  0.00    +0.046 C 
ATOM      2  C   UNL     1       0.097   0.049   0.041  0.00  0.00    -0.017 A 
ATOM      3  C   UNL     1       0.047  -0.638  -1.172  0.00  0.00    +0.042 A 
ATOM      4  C   UNL     1       0.004  -2.033  -1.177  0.00  0.00    +0.013 A 
ATOM      5  C   UNL     1       0.011  -2.728   0.015  0.00  0.00    +0.003 A 
ATOM      6  C   UNL     1       0.060  -2.047   1.217  0.00  0.00    +0.023 A 
ATOM      7  C   UNL     1       0.108  -0.658   1.233  0.00  0.00    +0.037 A 
ENDROOT
BRANCH   3   8
ATOM      8  C   UNL     1       0.040   0.109  -2.448  0.00  0.00    +0.250 C 
ATOM      9  O   UNL     1       0.205   1.313  -2.448  0.00  0.00    -0.270 OA
ATOM     10  N   UNL     1      -0.149  -0.546  -3.611  0.00  0.00    -0.261 N 
ATOM     11  C   UNL     1      -0.156   0.156  -4.809  0.00  0.00    +0.165 A 
ATOM     12  N   UNL     1       0.010   1.447  -5.002  0.00  0.00    -0.233 NA
ATOM     13  C   UNL     1      -0.024   1.965  -6.215  0.00  0.00    +0.120 A 
ATOM     14  C   UNL     1      -0.237   1.110  -7.245  0.00  0.00    +0.068 A 
ATOM     15  S   UNL     1      -0.371  -0.440  -6.369  0.00  0.00    -0.061 S 
ATOM     16  H   UNL     1      -0.281  -1.507  -3.610  0.00  0.00    +0.157 HD
ENDBRANCH   3   8
BRANCH   7  17
ATOM     17  N   UNL     1       0.164   0.026   2.452  0.00  0.00    -0.283 N 
ATOM     18  C   UNL     1      -0.234  -0.583   3.586  0.00  0.00    +0.248 C 
ATOM     19  O   UNL     1      -0.729  -1.690   3.538  0.00  0.00    -0.273 OA
ATOM     20  H   UNL     1       0.490   0.940   2.481  0.00  0.00    +0.155 HD
BRANCH  18  21
ATOM     21  C   UNL     1      -0.066   0.110   4.914  0.00  0.00    +0.238 C 
ATOM     22  C   UNL     1      -1.207   1.081   5.161  0.00  0.00    +0.035 C 
ATOM     23  C   UNL     1      -1.795   0.612   6.263  0.00  0.00    +0.059 C 
ATOM     24  N   UNL     1      -1.167  -0.500   6.707  0.00  0.00    -0.159 NA
ATOM     25  N   UNL     1      -0.197  -0.850   6.023  0.00  0.00    -0.170 NA
ATOM     26  C   UNL     1      -2.997   1.236   6.924  0.00  0.00    +0.067 C 
ENDBRANCH  18  21
ENDBRANCH   7  17
TORSDOF 3
