REMARK  Name = ZINC06409203
REMARK  10 active torsions:
REMARK  status: ('A' for Active; 'I' for Inactive)
REMARK    1  A    between atoms: C_1  and  C_2
REMARK    2  A    between atoms: C_9  and  C_14
REMARK    3  A    between atoms: C_14  and  C_16
REMARK    4  A    between atoms: C_14  and  N_69
REMARK    5  A    between atoms: N_20  and  C_21
REMARK    6  A    between atoms: C_21  and  C_22
REMARK    7  A    between atoms: C_28  and  C_29
REMARK    8  A    between atoms: C_28  and  N_69
REMARK    9  A    between atoms: C_34  and  C_35
REMARK   10  A    between atoms: C_34  and  N_69
REMARK                            x       y       z     vdW  Elec       q    Type
REMARK                         _______ _______ _______ _____ _____    ______ ____
ROOT
ATOM      1  C   UNL     1      -1.617   4.700   0.728  0.00  0.00    +0.039 C 
ENDROOT
BRANCH   1  10
ATOM      2  C   UNL     1       0.749  -2.289  -0.355  0.00  0.00    +0.044 C 
ATOM      3  C   UNL     1       0.926  -0.802  -0.519  0.00  0.00    -0.050 A 
ATOM      4  C   UNL     1       2.040  -0.310  -1.187  0.00  0.00    +0.005 A 
ATOM      5  C   UNL     1       2.221   1.046  -1.349  0.00  0.00    +0.026 A 
ATOM      6  C   UNL     1       1.280   1.934  -0.839  0.00  0.00    +0.049 A 
ATOM      7  C   UNL     1       0.152   1.432  -0.163  0.00  0.00    -0.001 A 
ATOM      8  C   UNL     1      -0.011   0.052  -0.010  0.00  0.00    +0.013 A 
ATOM      9  C   UNL     1      -0.830   2.375   0.376  0.00  0.00    +0.017 A 
ATOM     10  C   UNL     1      -0.622   3.703   0.192  0.00  0.00    +0.011 A 
ATOM     11  C   UNL     1       0.526   4.154  -0.494  0.00  0.00    +0.251 A 
ATOM     12  O   UNL     1       0.696   5.351  -0.643  0.00  0.00    -0.268 OA
ATOM     13  N   UNL     1       1.436   3.296  -0.987  0.00  0.00    -0.322 N 
ATOM     14  H   UNL     1       2.214   3.640  -1.454  0.00  0.00    +0.169 HD
ENDBRANCH   1  10
BRANCH   1  15
ATOM     15  C   UNL     1      -2.116   5.568  -0.398  0.00  0.00    +0.143 A 
ATOM     16  N   UNL     1      -1.469   6.552  -0.973  0.00  0.00    -0.115 NA
ATOM     17  N   UNL     1      -2.228   7.045  -1.890  0.00  0.00    -0.023 NA
ATOM     18  N   UNL     1      -3.342   6.401  -1.915  0.00  0.00    -0.044 NA
ATOM     19  N   UNL     1      -3.309   5.478  -1.014  0.00  0.00    -0.228 N 
BRANCH  19  20
ATOM     20  C   UNL     1      -4.373   4.517  -0.714  0.00  0.00    +0.178 C 
BRANCH  20  21
ATOM     21  C   UNL     1      -5.419   5.177   0.187  0.00  0.00    +0.140 C 
ATOM     22  C   UNL     1      -6.500   4.147   0.576  0.00  0.00    +0.035 C 
ATOM     23  C   UNL     1      -7.800   4.995   0.517  0.00  0.00    +0.031 C 
ATOM     24  C   UNL     1      -7.470   5.957  -0.652  0.00  0.00    +0.160 C 
ATOM     25  O   UNL     1      -6.068   6.240  -0.520  0.00  0.00    -0.375 OA
ENDBRANCH  20  21
ENDBRANCH  19  20
ENDBRANCH   1  15
BRANCH   1  26
ATOM     26  N   UNL     1      -0.948   5.555   1.731  0.00  0.00    +0.396 N 
ATOM     27  H   UNL     1      -0.214   6.103   1.266  0.00  0.00    -0.080 HD
BRANCH  26  28
ATOM     28  C   UNL     1      -1.927   6.482   2.337  0.00  0.00    -0.002 C 
BRANCH  28  29
ATOM     29  C   UNL     1      -2.132   7.646   1.402  0.00  0.00    +0.089 A 
ATOM     30  C   UNL     1      -3.171   7.807   0.563  0.00  0.00    +0.042 A 
ATOM     31  C   UNL     1      -2.961   9.027  -0.120  0.00  0.00    +0.041 A 
ATOM     32  C   UNL     1      -1.806   9.539   0.343  0.00  0.00    +0.195 A 
ATOM     33  O   UNL     1      -1.312   8.701   1.268  0.00  0.00    -0.470 OA
ENDBRANCH  28  29
ENDBRANCH  26  28
BRANCH  26  34
ATOM     34  C   UNL     1      -0.330   4.717   2.779  0.00  0.00    -0.045 C 
BRANCH  34  35
ATOM     35  C   UNL     1       1.066   4.301   2.311  0.00  0.00    +0.102 C 
ATOM     36  C   UNL     1       1.805   3.539   3.433  0.00  0.00    +0.032 C 
ATOM     37  C   UNL     1       3.272   4.009   3.304  0.00  0.00    +0.030 C 
ATOM     38  C   UNL     1       3.245   4.999   2.118  0.00  0.00    +0.160 C 
ATOM     39  O   UNL     1       1.880   5.468   2.059  0.00  0.00    -0.378 OA
ENDBRANCH  34  35
ENDBRANCH  26  34
ENDBRANCH   1  26
TORSDOF 9
