REMARK  Name = ZINC35565867
REMARK  11 active torsions:
REMARK  status: ('A' for Active; 'I' for Inactive)
REMARK    1  A    between atoms: C_1  and  C_2
REMARK    2  A    between atoms: C_3  and  C_8
REMARK    3  A    between atoms: C_5  and  C_7
REMARK    4  A    between atoms: C_8  and  C_10
REMARK    5  A    between atoms: C_15  and  C_17
REMARK    6  A    between atoms: C_21  and  O_23
REMARK    7  A    between atoms: C_26  and  C_35
REMARK    8  A    between atoms: C_27  and  C_29
REMARK    9  A    between atoms: C_29  and  O_31
REMARK   10  A    between atoms: O_31  and  C_32
REMARK   11  A    between atoms: C_32  and  C_33
REMARK                            x       y       z     vdW  Elec       q    Type
REMARK                         _______ _______ _______ _____ _____    ______ ____
ROOT
ATOM      1  C   UNL     1      -0.009  -1.164  -3.864  0.00  0.00    +0.077 C 
ATOM      2  C   UNL     1       0.092  -0.901  -5.188  0.00  0.00    +0.250 C 
ATOM      3  C   UNL     1       0.216  -2.173  -5.927  0.00  0.00    +0.293 C 
ATOM      4  O   UNL     1       0.325  -2.269  -7.134  0.00  0.00    -0.266 OA
ATOM      5  N   UNL     1       0.193  -3.208  -5.069  0.00  0.00    -0.232 N 
ATOM      6  C   UNL     1       0.056  -2.666  -3.712  0.00  0.00    +0.152 C 
ATOM      7  C   UNL     1       0.286  -4.546  -5.405  0.00  0.00    +0.169 A 
ATOM      8  N   UNL     1       0.420  -5.079  -6.606  0.00  0.00    -0.229 NA
ATOM      9  C   UNL     1       0.496  -6.374  -6.775  0.00  0.00    +0.062 A 
ATOM     10  C   UNL     1       0.428  -7.151  -5.625  0.00  0.00    +0.120 A 
ATOM     11  S   UNL     1       0.262  -5.881  -4.381  0.00  0.00    -0.045 S 
ATOM     12  C   UNL     1       0.649  -6.990  -8.142  0.00  0.00    +0.067 C 
ATOM     13  O   UNL     1       0.080   0.332  -5.745  0.00  0.00    -0.282 OA
ENDROOT
BRANCH   6  14
ATOM     14  C   UNL     1      -1.212  -3.178  -3.077  0.00  0.00    -0.019 A 
ATOM     15  C   UNL     1      -2.360  -3.309  -3.836  0.00  0.00    +0.006 A 
ATOM     16  C   UNL     1      -3.524  -3.778  -3.257  0.00  0.00    +0.004 A 
ATOM     17  C   UNL     1      -3.543  -4.117  -1.918  0.00  0.00    +0.045 A 
ATOM     18  C   UNL     1      -2.392  -3.987  -1.155  0.00  0.00    +0.117 A 
ATOM     19  C   UNL     1      -1.223  -3.522  -1.740  0.00  0.00    +0.051 A 
BRANCH  18  20
ATOM     20  O   UNL     1      -2.408  -4.320   0.163  0.00  0.00    -0.507 OA
ATOM     21  H   UNL     1      -2.182  -5.244   0.338  0.00  0.00    +0.292 HD
ENDBRANCH  18  20
ENDBRANCH   6  14
BRANCH   1  22
ATOM     22  C   UNL     1      -0.148  -0.180  -2.785  0.00  0.00    +0.203 C 
ATOM     23  O   UNL     1      -1.161   0.490  -2.698  0.00  0.00    -0.286 OA
BRANCH  22  26
ATOM     24  C   UNL     1      -0.015   1.937  -0.486  0.00  0.00    +0.067 C 
ATOM     25  C   UNL     1       1.052   0.911  -0.770  0.00  0.00    +0.057 A 
ATOM     26  C   UNL     1       0.933  -0.004  -1.809  0.00  0.00    +0.082 A 
ATOM     27  S   UNL     1       2.463  -0.906  -1.625  0.00  0.00    -0.069 S 
ATOM     28  C   UNL     1       3.072  -0.063  -0.302  0.00  0.00    +0.076 A 
ATOM     29  N   UNL     1       2.146   0.836  -0.055  0.00  0.00    -0.249 NA
ATOM     30  C   UNL     1       4.374  -0.283   0.424  0.00  0.00    +0.073 C 
ENDBRANCH  22  26
ENDBRANCH   1  22
BRANCH  10  31
ATOM     31  C   UNL     1       0.482  -8.604  -5.475  0.00  0.00    +0.348 C 
ATOM     32  O   UNL     1       0.604  -9.312  -6.456  0.00  0.00    -0.244 OA
BRANCH  31  33
ATOM     33  O   UNL     1       0.397  -9.159  -4.248  0.00  0.00    -0.457 OA
BRANCH  33  34
ATOM     34  C   UNL     1       0.457 -10.585  -4.175  0.00  0.00    +0.259 C 
BRANCH  34  35
ATOM     35  C   UNL     1       0.346 -11.019  -2.737  0.00  0.00    +0.006 C 
ATOM     36  C   UNL     1      -0.443 -12.013  -2.411  0.00  0.00    +0.007 C 
ENDBRANCH  34  35
ENDBRANCH  33  34
ENDBRANCH  31  33
ENDBRANCH  10  31
TORSDOF 8
