REMARK  Name = ZINC20338820
REMARK  7 active torsions:
REMARK  status: ('A' for Active; 'I' for Inactive)
REMARK    1  A    between atoms: C_1  and  C_2
REMARK    2  A    between atoms: C_5  and  C_8
REMARK    3  A    between atoms: N_12  and  C_21
REMARK    4  A    between atoms: C_15  and  N_20
REMARK    5  A    between atoms: C_21  and  C_22
REMARK    6  A    between atoms: C_22  and  C_23
REMARK    7  A    between atoms: C_22  and  C_24
REMARK                            x       y       z     vdW  Elec       q    Type
REMARK                         _______ _______ _______ _____ _____    ______ ____
ROOT
ATOM      1  C   UNL     1       3.396  -0.269   1.259  0.00  0.00    +0.059 C 
ATOM      2  C   UNL     1       2.473   0.093   0.340  0.00  0.00    +0.191 C 
ATOM      3  C   UNL     1       1.478  -0.871  -0.176  0.00  0.00    +0.286 C 
ATOM      4  O   UNL     1       1.700  -2.067  -0.177  0.00  0.00    -0.266 OA
ATOM      5  N   UNL     1       0.310  -0.372  -0.648  0.00  0.00    -0.261 N 
ATOM      6  C   UNL     1       0.103   1.013  -0.610  0.00  0.00    +0.081 A 
ATOM      7  C   UNL     1      -1.166   1.529  -0.828  0.00  0.00    +0.050 A 
ATOM      8  C   UNL     1      -1.371   2.901  -0.784  0.00  0.00    +0.027 A 
ATOM      9  C   UNL     1      -0.305   3.756  -0.533  0.00  0.00    +0.026 A 
ATOM     10  C   UNL     1       0.961   3.244  -0.322  0.00  0.00    +0.050 A 
ATOM     11  C   UNL     1       1.169   1.875  -0.360  0.00  0.00    +0.150 A 
ATOM     12  O   UNL     1       2.418   1.368  -0.153  0.00  0.00    -0.449 OA
ENDROOT
BRANCH   1  17
ATOM     13  C   UNL     1       3.048  -5.407   3.812  0.00  0.00    +0.044 C 
ATOM     14  C   UNL     1       3.139  -4.060   3.143  0.00  0.00    -0.050 A 
ATOM     15  C   UNL     1       4.378  -3.530   2.830  0.00  0.00    +0.004 A 
ATOM     16  C   UNL     1       4.470  -2.298   2.217  0.00  0.00    +0.008 A 
ATOM     17  C   UNL     1       3.307  -1.584   1.912  0.00  0.00    -0.021 A 
ATOM     18  C   UNL     1       2.058  -2.124   2.237  0.00  0.00    +0.008 A 
ATOM     19  C   UNL     1       1.983  -3.360   2.844  0.00  0.00    +0.004 A 
ENDBRANCH   1  17
BRANCH   8  20
ATOM     20  N   UNL     1      -2.651   3.424  -0.997  0.00  0.00    -0.358 N 
ATOM     21  H   UNL     1      -2.814   4.511  -0.962  0.00  0.00    +0.142 HD
ATOM     22  H   UNL     1      -3.494   2.748  -1.200  0.00  0.00    +0.142 HD
ENDBRANCH   8  20
BRANCH   5  23
ATOM     23  C   UNL     1      -0.717  -1.266  -1.189  0.00  0.00    +0.117 C 
BRANCH  23  24
ATOM     24  C   UNL     1      -0.491  -1.453  -2.691  0.00  0.00    +0.001 C 
ATOM     25  C   UNL     1       0.837  -2.178  -2.920  0.00  0.00    +0.009 C 
ATOM     26  C   UNL     1      -1.633  -2.284  -3.279  0.00  0.00    +0.009 C 
ENDBRANCH  23  24
ENDBRANCH   5  23
TORSDOF 4
