REMARK  Name = ZINC39344888
REMARK  7 active torsions:
REMARK  status: ('A' for Active; 'I' for Inactive)
REMARK    1  A    between atoms: C_8  and  C_13
REMARK    2  A    between atoms: C_13  and  N_14
REMARK    3  A    between atoms: C_16  and  O_30
REMARK    4  A    between atoms: N_19  and  C_23
REMARK    5  A    between atoms: C_23  and  C_24
REMARK    6  A    between atoms: O_30  and  C_31
REMARK    7  A    between atoms: C_31  and  C_32
REMARK                            x       y       z     vdW  Elec       q    Type
REMARK                         _______ _______ _______ _____ _____    ______ ____
ROOT
ATOM      1  N   UNL     1       4.004  -4.360   0.789  0.00  0.00    +0.388 N 
ATOM      2  C   UNL     1       3.905  -5.301   1.896  0.00  0.00    -0.045 C 
ATOM      3  C   UNL     1       4.850  -6.482   1.799  0.00  0.00    +0.120 C 
ATOM      4  C   UNL     1       6.304  -6.029   1.955  0.00  0.00    +0.137 C 
ATOM      5  N   UNL     1       6.797  -5.593   0.637  0.00  0.00    -0.300 N 
ATOM      6  C   UNL     1       6.321  -4.472   0.090  0.00  0.00    +0.199 C 
ATOM      7  O   UNL     1       6.722  -4.114  -0.997  0.00  0.00    -0.278 OA
ATOM      8  C   UNL     1       5.285  -3.643   0.819  0.00  0.00    +0.019 C 
ATOM      9  H   UNL     1       3.927  -4.864  -0.081  0.00  0.00    -0.081 HD
ENDROOT
BRANCH   1  10
ATOM     10  C   UNL     1       2.905  -3.389   0.883  0.00  0.00    -0.061 C 
BRANCH  10  18
ATOM     11  C   UNL     1       0.352  -3.862  -4.343  0.00  0.00    +0.001 A 
ATOM     12  C   UNL     1      -0.547  -2.837  -4.050  0.00  0.00    +0.002 A 
ATOM     13  C   UNL     1      -0.399  -2.017  -2.977  0.00  0.00    +0.024 A 
ATOM     14  C   UNL     1       0.691  -2.175  -2.102  0.00  0.00    +0.040 A 
ATOM     15  N   UNL     1       0.825  -1.365  -1.052  0.00  0.00    -0.285 N 
ATOM     16  C   UNL     1       1.825  -1.459  -0.191  0.00  0.00    +0.222 C 
ATOM     17  O   UNL     1       1.895  -0.690   0.749  0.00  0.00    -0.275 OA
ATOM     18  C   UNL     1       2.880  -2.525  -0.380  0.00  0.00    +0.082 C 
ATOM     19  C   UNL     1       2.731  -3.450  -1.572  0.00  0.00    -0.007 C 
ATOM     20  C   UNL     1       1.656  -3.251  -2.387  0.00  0.00    -0.007 A 
ATOM     21  C   UNL     1       1.436  -4.098  -3.560  0.00  0.00    +0.009 A 
ATOM     22  H   UNL     1       0.159  -0.674  -0.913  0.00  0.00    +0.155 HD
ENDBRANCH  10  18
ENDBRANCH   1  10
BRANCH   5  23
ATOM     23  C   UNL     1       7.804  -6.387  -0.072  0.00  0.00    +0.111 C 
BRANCH  23  24
ATOM     24  C   UNL     1       9.199  -5.999   0.423  0.00  0.00    +0.011 C 
ATOM     25  C   UNL     1       9.499  -4.551   0.025  0.00  0.00    +0.033 C 
ATOM     26  C   UNL     1      10.926  -4.198   0.454  0.00  0.00    +0.160 C 
ATOM     27  O   UNL     1      11.844  -5.111  -0.151  0.00  0.00    -0.380 OA
ATOM     28  C   UNL     1      11.641  -6.475   0.222  0.00  0.00    +0.160 C 
ATOM     29  C   UNL     1      10.243  -6.920  -0.216  0.00  0.00    +0.033 C 
ENDBRANCH  23  24
ENDBRANCH   5  23
BRANCH   3  30
ATOM     30  O   UNL     1       4.537  -7.420   2.830  0.00  0.00    -0.371 OA
BRANCH  30  31
ATOM     31  C   UNL     1       4.826  -8.778   2.488  0.00  0.00    +0.215 C 
BRANCH  31  32
ATOM     32  C   UNL     1       4.459  -9.675   3.641  0.00  0.00    +0.067 A 
ATOM     33  C   UNL     1       3.927  -9.126   4.793  0.00  0.00    +0.025 A 
ATOM     34  C   UNL     1       3.594  -9.961   5.848  0.00  0.00    +0.003 A 
ATOM     35  C   UNL     1       3.808 -11.323   5.705  0.00  0.00    +0.020 A 
ATOM     36  C   UNL     1       4.344 -11.800   4.524  0.00  0.00    +0.111 A 
ATOM     37  N   UNL     1       4.645 -10.977   3.538  0.00  0.00    -0.258 NA
ENDBRANCH  31  32
ENDBRANCH  30  31
ENDBRANCH   3  30
TORSDOF 7
