REMARK  Name = ZINC37928376
REMARK  5 active torsions:
REMARK  status: ('A' for Active; 'I' for Inactive)
REMARK    1  A    between atoms: C_1  and  C_2
REMARK    2  A    between atoms: C_6  and  N_8
REMARK    3  A    between atoms: N_8  and  S_9
REMARK    4  A    between atoms: S_9  and  C_12
REMARK    5  A    between atoms: C_15  and  N_19
REMARK                            x       y       z     vdW  Elec       q    Type
REMARK                         _______ _______ _______ _____ _____    ______ ____
ROOT
ATOM      1  S   UNL     1      -0.668  -2.153   3.740  0.00  0.00    +0.078 S 
ATOM      2  O   UNL     1      -0.408  -3.053   4.809  0.00  0.00    -0.150 OA
ATOM      3  O   UNL     1      -0.291  -0.784   3.788  0.00  0.00    -0.150 OA
ENDROOT
BRANCH   1   4
ATOM      4  C   UNL     1      -2.409  -2.186   3.466  0.00  0.00    +0.179 A 
ATOM      5  C   UNL     1      -3.034  -1.109   2.862  0.00  0.00    +0.154 A 
ATOM      6  C   UNL     1      -4.401  -1.133   2.647  0.00  0.00    +0.063 A 
ATOM      7  C   UNL     1      -5.145  -2.239   3.037  0.00  0.00    +0.030 A 
ATOM      8  C   UNL     1      -4.515  -3.318   3.643  0.00  0.00    +0.063 A 
ATOM      9  C   UNL     1      -3.148  -3.292   3.851  0.00  0.00    +0.154 A 
ATOM     10  F   UNL     1      -2.534  -4.345   4.435  0.00  0.00    -0.203 F 
ATOM     11  F   UNL     1      -2.310  -0.033   2.483  0.00  0.00    -0.203 F 
BRANCH   7  12
ATOM     12  N   UNL     1      -6.524  -2.265   2.821  0.00  0.00    -0.358 N 
ATOM     13  H   UNL     1      -6.963  -1.510   2.398  0.00  0.00    +0.142 HD
ATOM     14  H   UNL     1      -7.043  -3.037   3.094  0.00  0.00    +0.142 HD
ENDBRANCH   7  12
ENDBRANCH   1   4
BRANCH   1  15
ATOM     15  N   UNL     1       0.051  -2.796   2.394  0.00  0.00    -0.213 N 
ATOM     16  H   UNL     1       0.596  -3.594   2.470  0.00  0.00    +0.174 HD
BRANCH  15  22
ATOM     17  C   UNL     1      -0.486   1.295  -0.279  0.00  0.00    +0.044 C 
ATOM     18  C   UNL     1      -0.391  -0.206  -0.178  0.00  0.00    -0.048 A 
ATOM     19  C   UNL     1      -0.479  -0.981  -1.319  0.00  0.00    +0.006 A 
ATOM     20  C   UNL     1      -0.393  -2.358  -1.232  0.00  0.00    +0.040 A 
ATOM     21  C   UNL     1      -0.217  -2.965  -0.002  0.00  0.00    +0.146 A 
ATOM     22  C   UNL     1      -0.127  -2.187   1.148  0.00  0.00    +0.083 A 
ATOM     23  C   UNL     1      -0.209  -0.804   1.054  0.00  0.00    +0.030 A 
ATOM     24  F   UNL     1      -0.132  -4.310   0.084  0.00  0.00    -0.204 F 
ENDBRANCH  15  22
ENDBRANCH   1  15
TORSDOF 4
