REMARK  Name = ZINC12713587
REMARK  6 active torsions:
REMARK  status: ('A' for Active; 'I' for Inactive)
REMARK    1  A    between atoms: C_1  and  C_2
REMARK    2  A    between atoms: C_8  and  C_10
REMARK    3  A    between atoms: C_8  and  C_26
REMARK    4  A    between atoms: C_8  and  N_64
REMARK    5  A    between atoms: N_30  and  C_31
REMARK    6  A    between atoms: C_31  and  C_32
REMARK                            x       y       z     vdW  Elec       q    Type
REMARK                         _______ _______ _______ _____ _____    ______ ____
ROOT
ATOM      1  C   UNL     1       1.817  -1.796  -0.025  0.00  0.00    +0.039 C 
ENDROOT
BRANCH   1   2
ATOM      2  C   UNL     1       2.323  -2.132  -1.403  0.00  0.00    +0.011 A 
ATOM      3  C   UNL     1       1.705  -3.095  -2.134  0.00  0.00    +0.017 A 
ATOM      4  C   UNL     1       2.220  -3.399  -3.469  0.00  0.00    +0.002 A 
ATOM      5  C   UNL     1       1.623  -4.383  -4.267  0.00  0.00    +0.059 A 
ATOM      6  C   UNL     1       2.131  -4.647  -5.521  0.00  0.00    +0.163 A 
ATOM      7  C   UNL     1       3.236  -3.936  -5.998  0.00  0.00    +0.164 A 
ATOM      8  C   UNL     1       3.833  -2.963  -5.215  0.00  0.00    +0.075 A 
ATOM      9  C   UNL     1       3.335  -2.685  -3.949  0.00  0.00    +0.053 A 
ATOM     10  N   UNL     1       3.917  -1.717  -3.155  0.00  0.00    -0.322 N 
ATOM     11  H   UNL     1       4.685  -1.226  -3.487  0.00  0.00    +0.169 HD
ATOM     12  C   UNL     1       3.432  -1.442  -1.932  0.00  0.00    +0.251 A 
ATOM     13  O   UNL     1       3.969  -0.578  -1.261  0.00  0.00    -0.268 OA
ATOM     14  O   UNL     1       3.739  -4.186  -7.237  0.00  0.00    -0.485 OA
ATOM     15  C   UNL     1       3.358  -5.423  -7.849  0.00  0.00    +0.270 C 
ATOM     16  C   UNL     1       1.842  -5.595  -7.684  0.00  0.00    +0.270 C 
ATOM     17  O   UNL     1       1.543  -5.611  -6.284  0.00  0.00    -0.485 OA
ENDBRANCH   1   2
BRANCH   1  24
ATOM     18  C   UNL     1       3.173  -1.283   4.675  0.00  0.00    +0.005 C 
ATOM     19  C   UNL     1       3.653  -1.597   3.257  0.00  0.00    -0.031 C 
ATOM     20  C   UNL     1       4.320  -2.975   3.235  0.00  0.00    -0.001 C 
ATOM     21  C   UNL     1       4.744  -3.306   1.801  0.00  0.00    -0.018 C 
ATOM     22  C   UNL     1       3.516  -3.259   0.889  0.00  0.00    -0.077 C 
ATOM     23  C   UNL     1       2.457  -1.599   2.302  0.00  0.00    -0.074 C 
ATOM     24  N   UNL     1       2.935  -1.900   0.935  0.00  0.00    +0.389 N 
ATOM     25  H   UNL     1       3.659  -1.219   0.678  0.00  0.00    -0.080 HD
ENDBRANCH   1  24
BRANCH   1  26
ATOM     26  C   UNL     1       1.294  -0.383  -0.012  0.00  0.00    +0.143 A 
ATOM     27  N   UNL     1       2.008   0.716  -0.013  0.00  0.00    -0.115 NA
ATOM     28  N   UNL     1       1.197   1.718  -0.000  0.00  0.00    -0.023 NA
ATOM     29  N   UNL     1      -0.015   1.286   0.009  0.00  0.00    -0.044 NA
ATOM     30  N   UNL     1       0.002  -0.004   0.002  0.00  0.00    -0.228 N 
BRANCH  30  31
ATOM     31  C   UNL     1      -1.165  -0.890   0.008  0.00  0.00    +0.178 C 
BRANCH  31  32
ATOM     32  C   UNL     1      -1.585  -1.190  -1.432  0.00  0.00    +0.140 C 
ATOM     33  C   UNL     1      -2.866  -2.054  -1.449  0.00  0.00    +0.035 C 
ATOM     34  C   UNL     1      -2.653  -3.017  -2.639  0.00  0.00    +0.031 C 
ATOM     35  C   UNL     1      -1.269  -2.622  -3.199  0.00  0.00    +0.160 C 
ATOM     36  O   UNL     1      -0.584  -1.998  -2.090  0.00  0.00    -0.375 OA
ENDBRANCH  31  32
ENDBRANCH  30  31
ENDBRANCH   1  26
TORSDOF 5
