REMARK  Name = ZINC08741311
REMARK  4 active torsions:
REMARK  status: ('A' for Active; 'I' for Inactive)
REMARK    1  A    between atoms: C_6  and  C_7
REMARK    2  A    between atoms: C_10  and  C_12
REMARK    3  A    between atoms: N_13  and  N_14
REMARK    4  A    between atoms: C_18  and  N_21
REMARK                            x       y       z     vdW  Elec       q    Type
REMARK                         _______ _______ _______ _____ _____    ______ ____
ROOT
ATOM      1  C   UNL     1      -5.117   9.605   0.078  0.00  0.00    +0.136 A 
ATOM      2  C   UNL     1      -6.525   9.708   0.085  0.00  0.00    +0.050 A 
ATOM      3  C   UNL     1      -7.029   8.445   0.081  0.00  0.00    +0.051 A 
ATOM      4  C   UNL     1      -5.873   7.540   0.071  0.00  0.00    +0.148 A 
ATOM      5  O   UNL     1      -4.762   8.309   0.075  0.00  0.00    -0.454 OA
ENDROOT
BRANCH   1  11
ATOM      6  C   UNL     1      -2.800  10.509   0.072  0.00  0.00    +0.013 A 
ATOM      7  C   UNL     1      -1.938  11.568   0.074  0.00  0.00    +0.017 A 
ATOM      8  C   UNL     1      -2.424  12.868   0.084  0.00  0.00    +0.036 A 
ATOM      9  C   UNL     1      -3.793  13.107   0.092  0.00  0.00    +0.056 A 
ATOM     10  C   UNL     1      -4.678  12.053   0.084  0.00  0.00    +0.032 A 
ATOM     11  C   UNL     1      -4.189  10.734   0.080  0.00  0.00    +0.019 A 
ATOM     12 CL   UNL     1      -4.388  14.738   0.103  0.00  0.00    -0.082 Cl
ATOM     13 BR   UNL     1      -1.216  14.322   0.087  0.00  0.00    -0.049 Br
ENDBRANCH   1  11
BRANCH   4  14
ATOM     14  C   UNL     1      -5.914   6.155   0.063  0.00  0.00    +0.176 C 
ATOM     15  N   UNL     1      -4.782   5.456   0.054  0.00  0.00    -0.186 NA
BRANCH  15  16
ATOM     16  N   UNL     1      -4.820   4.166   0.047  0.00  0.00    -0.221 N 
ATOM     17  C   UNL     1      -3.642   3.439   0.038  0.00  0.00    +0.138 A 
ATOM     18  C   UNL     1      -3.690   2.046   0.031  0.00  0.00    +0.047 A 
ATOM     19  C   UNL     1      -2.504   1.332   0.021  0.00  0.00    +0.037 A 
ATOM     20  C   UNL     1      -1.308   2.035   0.019  0.00  0.00    +0.144 A 
ATOM     21  C   UNL     1      -1.334   3.419   0.033  0.00  0.00    +0.145 A 
ATOM     22  N   UNL     1      -2.477   4.074   0.035  0.00  0.00    -0.237 NA
ATOM     23  H   UNL     1      -5.674   3.706   0.049  0.00  0.00    +0.176 HD
BRANCH  20  24
ATOM     24  N   UNL     1      -0.016   1.313   0.009  0.00  0.00    +0.058 N 
ATOM     25  O   UNL     1       0.002  -0.004   0.002  0.00  0.00    -0.126 OA
ATOM     26  O   UNL     1       1.116   1.987   0.002  0.00  0.00    -0.126 OA
ENDBRANCH  20  24
ENDBRANCH  15  16
ENDBRANCH   4  14
TORSDOF 4
