REMARK  Name = ZINC15836211
REMARK  9 active torsions:
REMARK  status: ('A' for Active; 'I' for Inactive)
REMARK    1  A    between atoms: C_1  and  S_2
REMARK    2  A    between atoms: S_2  and  N_5
REMARK    3  A    between atoms: N_5  and  C_6
REMARK    4  A    between atoms: N_5  and  C_18
REMARK    5  A    between atoms: C_6  and  C_7
REMARK    6  A    between atoms: N_9  and  C_10
REMARK    7  A    between atoms: C_15  and  C_16
REMARK    8  A    between atoms: C_21  and  O_24
REMARK    9  A    between atoms: O_24  and  C_25
REMARK                            x       y       z     vdW  Elec       q    Type
REMARK                         _______ _______ _______ _____ _____    ______ ____
ROOT
ATOM      1  N   UNL     1      -5.006   7.738  -0.335  0.00  0.00    -0.199 N 
ENDROOT
BRANCH   1   2
ATOM      2  C   UNL     1      -3.769   7.093  -0.220  0.00  0.00    +0.052 A 
ATOM      3  C   UNL     1      -2.596   7.836  -0.208  0.00  0.00    +0.028 A 
ATOM      4  C   UNL     1      -1.377   7.199  -0.094  0.00  0.00    +0.048 A 
ATOM      5  C   UNL     1      -1.323   5.816   0.009  0.00  0.00    +0.129 A 
ATOM      6  C   UNL     1      -2.494   5.073  -0.007  0.00  0.00    +0.048 A 
ATOM      7  C   UNL     1      -3.715   5.709  -0.116  0.00  0.00    +0.028 A 
BRANCH   5   8
ATOM      8  O   UNL     1      -0.122   5.190   0.122  0.00  0.00    -0.456 OA
BRANCH   8   9
ATOM      9  C   UNL     1      -0.108   3.831   0.111  0.00  0.00    +0.128 A 
ATOM     10  C   UNL     1      -0.487   3.141  -1.032  0.00  0.00    +0.046 A 
ATOM     11  C   UNL     1      -0.471   1.760  -1.041  0.00  0.00    +0.004 A 
ATOM     12  C   UNL     1      -0.078   1.065   0.088  0.00  0.00    +0.000 A 
ATOM     13  C   UNL     1       0.295   1.749   1.230  0.00  0.00    +0.004 A 
ATOM     14  C   UNL     1       0.286   3.131   1.242  0.00  0.00    +0.046 A 
ENDBRANCH   8   9
ENDBRANCH   5   8
ENDBRANCH   1   2
BRANCH   1  16
ATOM     15  C   UNL     1      -7.175   6.258   0.489  0.00  0.00    +0.218 C 
ATOM     16  S   UNL     1      -6.308   6.927  -0.957  0.00  0.00    +0.043 S 
ATOM     17  O   UNL     1      -7.098   7.931  -1.579  0.00  0.00    -0.155 OA
ATOM     18  O   UNL     1      -5.746   5.870  -1.722  0.00  0.00    -0.155 OA
ENDBRANCH   1  16
BRANCH   1  19
ATOM     19  C   UNL     1      -5.148   9.131   0.096  0.00  0.00    +0.227 C 
BRANCH  19  20
ATOM     20  C   UNL     1      -4.728  10.048  -1.024  0.00  0.00    +0.236 C 
ATOM     21  O   UNL     1      -4.348   9.584  -2.078  0.00  0.00    -0.274 OA
ATOM     22  N   UNL     1      -4.775  11.384  -0.855  0.00  0.00    -0.283 N 
ATOM     23  H   UNL     1      -4.999  11.756   0.013  0.00  0.00    +0.155 HD
BRANCH  22  24
ATOM     24  C   UNL     1      -4.503  12.232  -1.926  0.00  0.00    +0.048 A 
ATOM     25  C   UNL     1      -4.697  11.794  -3.229  0.00  0.00    +0.024 A 
ATOM     26  C   UNL     1      -4.432  12.637  -4.289  0.00  0.00    +0.002 A 
ATOM     27  C   UNL     1      -3.961  13.921  -4.063  0.00  0.00    +0.001 A 
ATOM     28  C   UNL     1      -3.758  14.372  -2.777  0.00  0.00    +0.017 A 
ATOM     29  C   UNL     1      -4.027  13.531  -1.694  0.00  0.00    +0.084 A 
BRANCH  29  30
ATOM     30  C   UNL     1      -3.811  14.006  -0.315  0.00  0.00    +0.388 C 
ATOM     31  O   UNL     1      -3.952  13.243   0.620  0.00  0.00    -0.241 OA
ATOM     32  O   UNL     1      -3.456  15.287  -0.092  0.00  0.00    -0.241 OA
ENDBRANCH  29  30
ENDBRANCH  22  24
ENDBRANCH  19  20
ENDBRANCH   1  19
TORSDOF 8
