REMARK  Name = ZINC14923943
REMARK  6 active torsions:
REMARK  status: ('A' for Active; 'I' for Inactive)
REMARK    1  A    between atoms: C_1  and  C_2
REMARK    2  A    between atoms: C_2  and  C_4
REMARK    3  A    between atoms: C_2  and  N_48
REMARK    4  A    between atoms: N_6  and  C_7
REMARK    5  A    between atoms: N_17  and  C_20
REMARK    6  A    between atoms: C_25  and  N_26
REMARK                            x       y       z     vdW  Elec       q    Type
REMARK                         _______ _______ _______ _____ _____    ______ ____
ROOT
ATOM      1  C   UNL     1       4.481   1.057  -1.242  0.00  0.00    -0.059 C 
ATOM      2  C   UNL     1       3.192   1.881  -1.223  0.00  0.00    +0.086 C 
ATOM      3  N   UNL     1       2.403   1.524  -0.035  0.00  0.00    -0.332 N 
ATOM      4  C   UNL     1       3.164   1.782   1.196  0.00  0.00    +0.086 C 
ATOM      5  C   UNL     1       4.454   0.958   1.177  0.00  0.00    -0.059 C 
ATOM      6  N   UNL     1       5.247   1.342  -0.010  0.00  0.00    +0.389 N 
ATOM      7  H   UNL     1       5.447   2.348   0.034  0.00  0.00    -0.081 HD
ENDROOT
BRANCH   3   8
ATOM      8  C   UNL     1       1.183   2.205  -0.021  0.00  0.00    +0.060 A 
ATOM      9  C   UNL     1       1.162   3.594  -0.005  0.00  0.00    +0.025 A 
ATOM     10  C   UNL     1      -0.046   4.264   0.008  0.00  0.00    +0.002 A 
ATOM     11  C   UNL     1      -1.232   3.554   0.006  0.00  0.00    +0.002 A 
ATOM     12  C   UNL     1      -1.214   2.172  -0.015  0.00  0.00    +0.034 A 
ATOM     13  C   UNL     1      -0.010   1.495  -0.024  0.00  0.00    +0.147 A 
BRANCH  13  14
ATOM     14  N   UNL     1       0.008   0.015  -0.041  0.00  0.00    +0.058 N 
ATOM     15  O   UNL     1      -1.039  -0.607  -0.043  0.00  0.00    -0.126 OA
ATOM     16  O   UNL     1       1.071  -0.581  -0.053  0.00  0.00    -0.126 OA
ENDBRANCH  13  14
ENDBRANCH   3   8
BRANCH   6  18
ATOM     17  C   UNL     1       6.267  -0.910  -0.012  0.00  0.00    -0.004 C 
ATOM     18  C   UNL     1       6.525   0.598  -0.026  0.00  0.00    +0.017 C 
BRANCH  18  19
ATOM     19  C   UNL     1       7.328   0.982   1.190  0.00  0.00    +0.203 C 
ATOM     20  O   UNL     1       6.876   1.773   1.990  0.00  0.00    -0.277 OA
ATOM     21  N   UNL     1       8.548   0.445   1.389  0.00  0.00    -0.285 N 
ATOM     22  H   UNL     1       8.876  -0.248   0.794  0.00  0.00    +0.155 HD
BRANCH  21  23
ATOM     23  C   UNL     1       9.343   0.886   2.455  0.00  0.00    +0.069 A 
ATOM     24  C   UNL     1       9.158   2.158   2.980  0.00  0.00    +0.027 A 
ATOM     25  C   UNL     1       9.943   2.591   4.031  0.00  0.00    +0.017 A 
ATOM     26  C   UNL     1      10.913   1.759   4.561  0.00  0.00    +0.021 A 
ATOM     27  C   UNL     1      11.101   0.491   4.041  0.00  0.00    +0.055 A 
ATOM     28  C   UNL     1      10.314   0.049   2.992  0.00  0.00    +0.146 A 
ATOM     29  F   UNL     1      10.494  -1.191   2.488  0.00  0.00    -0.204 F 
ATOM     30 BR   UNL     1      11.985   2.357   6.000  0.00  0.00    -0.050 Br
ENDBRANCH  21  23
ENDBRANCH  18  19
ENDBRANCH   6  18
TORSDOF 5
