REMARK  Name = ZINC05715019
REMARK  4 active torsions:
REMARK  status: ('A' for Active; 'I' for Inactive)
REMARK    1  A    between atoms: C_3  and  N_22
REMARK    2  A    between atoms: C_6  and  C_7
REMARK    3  A    between atoms: C_11  and  C_13
REMARK    4  A    between atoms: C_13  and  C_15
REMARK                            x       y       z     vdW  Elec       q    Type
REMARK                         _______ _______ _______ _____ _____    ______ ____
ROOT
ATOM      1  C   UNL     1       3.683   6.245   0.312  0.00  0.00    +0.170 C 
ATOM      2  N   UNL     1       4.771   5.492   0.287  0.00  0.00    -0.063 NA
ATOM      3  O   UNL     1       4.734   4.288   0.188  0.00  0.00    -0.359 OA
ATOM      4  C   UNL     1       3.703   3.648   0.102  0.00  0.00    +0.255 C 
ATOM      5  C   UNL     1       2.450   4.313   0.114  0.00  0.00    +0.118 C 
ATOM      6  N   UNL     1       2.466   5.655   0.218  0.00  0.00    -0.291 N 
ATOM      7  H   UNL     1       1.647   6.175   0.228  0.00  0.00    +0.154 HD
ENDROOT
BRANCH   1  13
ATOM      8  C   UNL     1       2.642   8.504   0.456  0.00  0.00    +0.013 A 
ATOM      9  C   UNL     1       2.753   9.873   0.578  0.00  0.00    +0.033 A 
ATOM     10  C   UNL     1       4.002  10.464   0.668  0.00  0.00    +0.126 A 
ATOM     11  C   UNL     1       5.147   9.686   0.642  0.00  0.00    +0.033 A 
ATOM     12  C   UNL     1       5.051   8.316   0.527  0.00  0.00    +0.013 A 
ATOM     13  C   UNL     1       3.794   7.712   0.436  0.00  0.00    +0.018 A 
BRANCH  10  14
ATOM     14  N   UNL     1       4.113  11.935   0.791  0.00  0.00    +0.056 N 
ATOM     15  O   UNL     1       5.299  12.501   0.877  0.00  0.00    -0.126 OA
ATOM     16  O   UNL     1       3.026  12.678   0.816  0.00  0.00    -0.126 OA
ENDBRANCH  10  14
ENDBRANCH   1  13
BRANCH   5  17
ATOM     17  C   UNL     1       1.175   3.561   0.010  0.00  0.00    +0.210 C 
ATOM     18  O   UNL     1       0.124   4.160  -0.094  0.00  0.00    -0.285 OA
BRANCH  17  19
ATOM     19  C   UNL     1       1.185   2.087   0.033  0.00  0.00    +0.024 A 
ATOM     20  C   UNL     1       0.246   1.366  -0.713  0.00  0.00    +0.013 A 
ATOM     21  C   UNL     1       0.260  -0.012  -0.686  0.00  0.00    +0.016 A 
ATOM     22  C   UNL     1       1.202  -0.683   0.076  0.00  0.00    +0.018 A 
ATOM     23  C   UNL     1       2.135   0.024   0.818  0.00  0.00    +0.016 A 
ATOM     24  C   UNL     1       2.132   1.402   0.801  0.00  0.00    +0.013 A 
ATOM     25 BR   UNL     1       1.214  -2.574   0.107  0.00  0.00    -0.050 Br
ENDBRANCH  17  19
ENDBRANCH   5  17
TORSDOF 4
