REMARK  Name = ZINC12565399
REMARK  7 active torsions:
REMARK  status: ('A' for Active; 'I' for Inactive)
REMARK    1  A    between atoms: C_1  and  O_2
REMARK    2  A    between atoms: O_2  and  C_3
REMARK    3  A    between atoms: C_6  and  C_9
REMARK    4  A    between atoms: C_12  and  C_32
REMARK    5  A    between atoms: C_15  and  C_17
REMARK    6  A    between atoms: C_17  and  N_18
REMARK    7  A    between atoms: C_20  and  C_29
REMARK                            x       y       z     vdW  Elec       q    Type
REMARK                         _______ _______ _______ _____ _____    ______ ____
ROOT
ATOM      1  C   UNL     1      -0.062   1.436  -0.563  0.00  0.00    +0.137 C 
ATOM      2  C   UNL     1       1.420   1.853  -0.483  0.00  0.00    +0.087 C 
ATOM      3  C   UNL     1       2.146   0.561  -0.184  0.00  0.00    +0.069 C 
ATOM      4  N   UNL     1       1.296  -0.403  -0.104  0.00  0.00    -0.181 NA
ATOM      5  N   UNL     1      -0.027  -0.013  -0.307  0.00  0.00    -0.184 N 
ATOM      6  C   UNL     1      -1.098  -0.830  -0.275  0.00  0.00    +0.253 C 
ATOM      7  O   UNL     1      -2.209  -0.381  -0.467  0.00  0.00    -0.272 OA
ENDROOT
BRANCH   1  11
ATOM      8  C   UNL     1      -1.644   2.239  -4.451  0.00  0.00    +0.120 A 
ATOM      9  C   UNL     1      -1.970   3.064  -3.384  0.00  0.00    +0.046 A 
ATOM     10  C   UNL     1      -1.458   2.802  -2.128  0.00  0.00    +0.009 A 
ATOM     11  C   UNL     1      -0.620   1.719  -1.934  0.00  0.00    -0.024 A 
ATOM     12  C   UNL     1      -0.289   0.899  -2.997  0.00  0.00    +0.009 A 
ATOM     13  C   UNL     1      -0.803   1.153  -4.253  0.00  0.00    +0.046 A 
BRANCH   8  15
ATOM     14  C   UNL     1      -1.769   1.604  -6.738  0.00  0.00    +0.277 C 
ATOM     15  O   UNL     1      -2.147   2.495  -5.687  0.00  0.00    -0.495 OA
ENDBRANCH   8  15
ENDBRANCH   1  11
BRANCH   3  16
ATOM     16  C   UNL     1       3.604   0.426  -0.010  0.00  0.00    -0.002 A 
ATOM     17  C   UNL     1       4.432   1.545  -0.125  0.00  0.00    +0.010 A 
ATOM     18  C   UNL     1       5.795   1.412   0.043  0.00  0.00    +0.001 A 
ATOM     19  C   UNL     1       6.343   0.171   0.315  0.00  0.00    +0.000 A 
ATOM     20  C   UNL     1       5.530  -0.943   0.425  0.00  0.00    +0.001 A 
ATOM     21  C   UNL     1       4.165  -0.824   0.264  0.00  0.00    +0.010 A 
ENDBRANCH   3  16
BRANCH   6  22
ATOM     22  C   UNL     1      -0.917  -2.301  -0.001  0.00  0.00    +0.203 C 
BRANCH  22  23
ATOM     23  N   UNL     1      -2.233  -2.941   0.129  0.00  0.00    -0.314 N 
ATOM     24  C   UNL     1      -2.981  -2.379   1.260  0.00  0.00    +0.160 C 
ATOM     25  C   UNL     1      -4.386  -2.994   1.270  0.00  0.00    +0.275 C 
ATOM     26  O   UNL     1      -5.048  -2.599   0.065  0.00  0.00    -0.476 OA
ATOM     27  C   UNL     1      -4.330  -2.698  -1.088  0.00  0.00    +0.143 A 
ATOM     28  C   UNL     1      -2.950  -2.860  -1.069  0.00  0.00    +0.073 A 
ATOM     29  C   UNL     1      -2.253  -2.947  -2.269  0.00  0.00    +0.027 A 
ATOM     30  C   UNL     1      -2.928  -2.875  -3.472  0.00  0.00    +0.002 A 
ATOM     31  C   UNL     1      -4.301  -2.717  -3.489  0.00  0.00    +0.004 A 
ATOM     32  C   UNL     1      -5.001  -2.629  -2.300  0.00  0.00    +0.047 A 
BRANCH  25  33
ATOM     33  C   UNL     1      -5.156  -2.489   2.464  0.00  0.00    +0.253 C 
ATOM     34  O   UNL     1      -6.124  -1.775   2.304  0.00  0.00    -0.272 OA
ATOM     35  N   UNL     1      -4.769  -2.831   3.709  0.00  0.00    -0.326 N 
ATOM     36  H   UNL     1      -3.996  -3.402   3.837  0.00  0.00    +0.145 HD
ATOM     37  H   UNL     1      -5.265  -2.506   4.477  0.00  0.00    +0.145 HD
ENDBRANCH  25  33
ENDBRANCH  22  23
ENDBRANCH   6  22
TORSDOF 6
