REMARK  Name = ZINC39560741
REMARK  8 active torsions:
REMARK  status: ('A' for Active; 'I' for Inactive)
REMARK    1  A    between atoms: C_1  and  O_2
REMARK    2  A    between atoms: O_2  and  C_3
REMARK    3  A    between atoms: C_3  and  C_5
REMARK    4  A    between atoms: C_20  and  C_34
REMARK    5  A    between atoms: C_23  and  N_26
REMARK    6  A    between atoms: N_26  and  C_27
REMARK    7  A    between atoms: C_27  and  C_28
REMARK    8  A    between atoms: C_28  and  N_29
REMARK                            x       y       z     vdW  Elec       q    Type
REMARK                         _______ _______ _______ _____ _____    ______ ____
ROOT
ATOM      1  C   UNL     1      -1.244  -2.135   0.003  0.00  0.00    +0.049 C 
ATOM      2  C   UNL     1      -0.661  -2.663  -1.318  0.00  0.00    +0.033 C 
ATOM      3  C   UNL     1      -1.633  -2.317  -2.419  0.00  0.00    -0.023 C 
ATOM      4  C   UNL     1      -1.468  -2.319  -3.749  0.00  0.00    -0.014 C 
ATOM      5  C   UNL     1      -0.274  -2.666  -4.593  0.00  0.00    +0.064 C 
ATOM      6  C   UNL     1      -0.615  -2.507  -6.047  0.00  0.00    -0.022 C 
ATOM      7  C   UNL     1      -1.797  -2.116  -6.512  0.00  0.00    -0.002 C 
ATOM      8  C   UNL     1      -2.895  -1.796  -5.685  0.00  0.00    +0.028 C 
ATOM      9  C   UNL     1      -2.716  -1.904  -4.307  0.00  0.00    +0.068 C 
ATOM     10  N   UNL     1      -3.566  -1.673  -3.296  0.00  0.00    -0.253 NA
ATOM     11  C   UNL     1      -2.962  -1.909  -2.160  0.00  0.00    +0.032 C 
ATOM     12  C   UNL     1      -3.511  -1.801  -0.760  0.00  0.00    -0.015 C 
ATOM     13  N   UNL     1      -2.637  -2.570   0.137  0.00  0.00    +0.399 N 
ATOM     14  C   UNL     1      -3.092  -2.404   1.522  0.00  0.00    -0.034 C 
ATOM     15  C   UNL     1      -4.495  -2.999   1.670  0.00  0.00    +0.008 C 
ATOM     16  C   UNL     1      -5.457  -2.281   0.719  0.00  0.00    +0.051 C 
ATOM     17  C   UNL     1      -4.930  -2.370  -0.712  0.00  0.00    +0.009 C 
ATOM     18  H   UNL     1      -2.700  -3.548  -0.103  0.00  0.00    -0.079 HD
ENDROOT
BRANCH  14  19
ATOM     19  C   UNL     1      -2.143  -3.116   2.451  0.00  0.00    -0.061 A 
ATOM     20  C   UNL     1      -1.618  -4.344   2.095  0.00  0.00    +0.002 A 
ATOM     21  C   UNL     1      -0.748  -4.997   2.948  0.00  0.00    +0.000 A 
ATOM     22  C   UNL     1      -0.402  -4.421   4.156  0.00  0.00    +0.000 A 
ATOM     23  C   UNL     1      -0.926  -3.193   4.512  0.00  0.00    +0.000 A 
ATOM     24  C   UNL     1      -1.794  -2.538   3.657  0.00  0.00    +0.002 A 
ENDBRANCH  14  19
BRANCH   1  25
ATOM     25  C   UNL     1      -1.185  -0.630   0.010  0.00  0.00    +0.294 C 
ATOM     26  O   UNL     1      -1.848   0.005  -0.776  0.00  0.00    -0.253 OA
BRANCH  25  28
ATOM     27  C   UNL     1      -0.391   1.435   0.841  0.00  0.00    +0.280 C 
ATOM     28  O   UNL     1      -0.397   0.007   0.890  0.00  0.00    -0.469 OA
ENDBRANCH  25  28
ENDBRANCH   1  25
BRANCH  16  29
ATOM     29  N   UNL     1      -6.783  -2.908   0.797  0.00  0.00    -0.315 NA
ATOM     30  H   UNL     1      -7.278  -2.814  -0.077  0.00  0.00    +0.122 HD
BRANCH  29  31
ATOM     31  C   UNL     1      -7.565  -2.349   1.908  0.00  0.00    +0.062 C 
BRANCH  31  32
ATOM     32  C   UNL     1      -8.937  -3.025   1.956  0.00  0.00    -0.064 C 
BRANCH  32  33
ATOM     33  N   UNL     1      -9.719  -2.467   3.067  0.00  0.00    +0.381 N 
ATOM     34  C   UNL     1     -10.081  -1.055   2.780  0.00  0.00    -0.079 C 
ATOM     35  C   UNL     1     -11.307  -0.811   3.694  0.00  0.00    -0.020 C 
ATOM     36  C   UNL     1     -12.060  -2.160   3.630  0.00  0.00    -0.020 C 
ATOM     37  C   UNL     1     -11.001  -3.192   3.204  0.00  0.00    -0.079 C 
ATOM     38  H   UNL     1      -9.193  -2.525   3.927  0.00  0.00    -0.082 HD
ENDBRANCH  32  33
ENDBRANCH  31  32
ENDBRANCH  29  31
ENDBRANCH  16  29
TORSDOF 7
