REMARK  Name = ZINC63213149
REMARK  4 active torsions:
REMARK  status: ('A' for Active; 'I' for Inactive)
REMARK    1  A    between atoms: C_3  and  S_9
REMARK    2  A    between atoms: S_9  and  N_12
REMARK    3  A    between atoms: N_12  and  C_13
REMARK    4  A    between atoms: C_20  and  N_22
REMARK                            x       y       z     vdW  Elec       q    Type
REMARK                         _______ _______ _______ _____ _____    ______ ____
ROOT
ATOM      1  N   UNL     1       4.603   2.094   1.455  0.00  0.00    -0.188 NA
ATOM      2  H   UNL     1       4.563   2.801   2.118  0.00  0.00    +0.148 HD
ENDROOT
BRANCH   1   3
ATOM      3  C   UNL     1       5.155   0.785   1.814  0.00  0.00    +0.062 C 
ATOM      4  C   UNL     1       6.676   0.804   1.569  0.00  0.00    +0.019 C 
ATOM      5  C   UNL     1       7.388  -0.314   2.282  0.00  0.00    +0.001 C 
ATOM      6  C   UNL     1       7.889   0.214   3.642  0.00  0.00    -0.000 C 
ATOM      7  C   UNL     1       6.837   0.246   4.647  0.00  0.00    -0.002 C 
ATOM      8  C   UNL     1       5.681   1.190   4.258  0.00  0.00    -0.015 C 
ATOM      9  C   UNL     1       4.792   0.477   3.279  0.00  0.00    -0.056 C 
BRANCH   9  10
ATOM     10  N   UNL     1       3.401   0.885   3.519  0.00  0.00    +0.381 N 
ATOM     11  H   UNL     1       2.789   0.374   2.901  0.00  0.00    -0.090 HD
ATOM     12  H   UNL     1       3.153   0.687   4.477  0.00  0.00    -0.090 HD
ATOM     13  H   UNL     1       3.306   1.874   3.345  0.00  0.00    -0.090 HD
ENDBRANCH   9  10
ENDBRANCH   1   3
BRANCH   1  14
ATOM     14  S   UNL     1       4.046   2.365  -0.081  0.00  0.00    +0.060 S 
ATOM     15  O   UNL     1       5.054   1.896  -0.966  0.00  0.00    -0.153 OA
ATOM     16  O   UNL     1       3.570   3.704  -0.109  0.00  0.00    -0.153 OA
BRANCH  14  19
ATOM     17  C   UNL     1       1.591  -0.514  -1.431  0.00  0.00    +0.017 A 
ATOM     18  C   UNL     1       2.691   0.302  -1.245  0.00  0.00    +0.031 A 
ATOM     19  C   UNL     1       2.643   1.326  -0.318  0.00  0.00    +0.119 A 
ATOM     20  C   UNL     1       1.494   1.535   0.424  0.00  0.00    +0.045 A 
ATOM     21  C   UNL     1       0.394   0.719   0.238  0.00  0.00    +0.032 A 
ATOM     22  C   UNL     1       0.442  -0.306  -0.690  0.00  0.00    +0.019 A 
ATOM     23 BR   UNL     1      -1.064  -1.421  -0.945  0.00  0.00    -0.050 Br
ATOM     24 BR   UNL     1       1.430   2.936   1.693  0.00  0.00    -0.048 Br
ENDBRANCH  14  19
ENDBRANCH   1  14
TORSDOF 4
