REMARK  Name = ZINC39125344
REMARK  7 active torsions:
REMARK  status: ('A' for Active; 'I' for Inactive)
REMARK    1  A    between atoms: C_1  and  C_2
REMARK    2  A    between atoms: C_2  and  N_3
REMARK    3  A    between atoms: C_6  and  N_19
REMARK    4  A    between atoms: C_7  and  N_18
REMARK    5  A    between atoms: N_8  and  C_11
REMARK    6  A    between atoms: C_11  and  C_12
REMARK    7  A    between atoms: C_20  and  C_22
REMARK                            x       y       z     vdW  Elec       q    Type
REMARK                         _______ _______ _______ _____ _____    ______ ____
ROOT
ATOM      1  N   UNL     1       0.674  -0.472  -1.201  0.00  0.00    -0.260 N 
ATOM      2  C   UNL     1      -0.029  -0.697  -2.329  0.00  0.00    +0.280 A 
ATOM      3  O   UNL     1      -1.234  -0.512  -2.347  0.00  0.00    -0.265 OA
ATOM      4  C   UNL     1       0.637  -1.146  -3.485  0.00  0.00    +0.137 A 
ATOM      5  C   UNL     1       2.001  -1.345  -3.432  0.00  0.00    +0.127 A 
ATOM      6  N   UNL     1       2.671  -1.100  -2.256  0.00  0.00    -0.280 N 
ATOM      7  C   UNL     1       2.004  -0.667  -1.171  0.00  0.00    +0.333 A 
ATOM      8  O   UNL     1       2.615  -0.452  -0.141  0.00  0.00    -0.246 OA
ENDROOT
BRANCH   4   9
ATOM      9  N   UNL     1      -0.079  -1.388  -4.676  0.00  0.00    -0.279 N 
ATOM     10  C   UNL     1      -1.074  -2.299  -4.692  0.00  0.00    +0.214 C 
ATOM     11  O   UNL     1      -1.411  -2.848  -3.664  0.00  0.00    -0.276 OA
ATOM     12  C   UNL     1      -1.767  -2.635  -5.987  0.00  0.00    +0.109 C 
ATOM     13  H   UNL     1       0.145  -0.900  -5.484  0.00  0.00    +0.155 HD
ENDBRANCH   4   9
BRANCH   5  14
ATOM     14  N   UNL     1       2.683  -1.783  -4.542  0.00  0.00    -0.343 N 
ATOM     15  H   UNL     1       2.205  -1.954  -5.369  0.00  0.00    +0.144 HD
ATOM     16  H   UNL     1       3.642  -1.921  -4.499  0.00  0.00    +0.144 HD
ENDBRANCH   5  14
BRANCH   1  18
ATOM     17  C   UNL     1      -0.049   1.525   0.011  0.00  0.00    +0.027 C 
ATOM     18  C   UNL     1      -0.017  -0.005   0.003  0.00  0.00    +0.126 C 
ENDBRANCH   1  18
BRANCH   6  19
ATOM     19  C   UNL     1       4.120  -1.307  -2.186  0.00  0.00    +0.131 C 
BRANCH  19  20
ATOM     20  C   UNL     1       4.839  -0.012  -2.569  0.00  0.00    +0.009 C 
ATOM     21  C   UNL     1       4.548   0.320  -4.034  0.00  0.00    +0.005 C 
ATOM     22  C   UNL     1       5.267   1.615  -4.416  0.00  0.00    +0.000 C 
ATOM     23  C   UNL     1       6.774   1.437  -4.224  0.00  0.00    +0.000 C 
ATOM     24  C   UNL     1       7.066   1.105  -2.759  0.00  0.00    +0.000 C 
ATOM     25  C   UNL     1       6.346  -0.190  -2.376  0.00  0.00    +0.005 C 
ENDBRANCH  19  20
ENDBRANCH   6  19
TORSDOF 5
