REMARK  Name = ZINC13546539
REMARK  7 active torsions:
REMARK  status: ('A' for Active; 'I' for Inactive)
REMARK    1  A    between atoms: C_1  and  O_2
REMARK    2  A    between atoms: O_2  and  C_3
REMARK    3  A    between atoms: C_5  and  C_21
REMARK    4  A    between atoms: C_8  and  O_9
REMARK    5  A    between atoms: O_9  and  C_10
REMARK    6  A    between atoms: C_10  and  C_11
REMARK    7  A    between atoms: C_14  and  N_17
REMARK                            x       y       z     vdW  Elec       q    Type
REMARK                         _______ _______ _______ _____ _____    ______ ____
ROOT
ATOM      1  C   UNL     1      -0.046  -0.053   0.133  0.00  0.00    +0.164 A 
ATOM      2  C   UNL     1       1.170  -0.704   0.061  0.00  0.00    +0.057 A 
ATOM      3  C   UNL     1       1.212  -2.103   0.041  0.00  0.00    -0.018 A 
ATOM      4  C   UNL     1       0.020  -2.835   0.094  0.00  0.00    +0.032 A 
ATOM      5  C   UNL     1      -1.190  -2.178   0.166  0.00  0.00    +0.087 A 
ATOM      6  C   UNL     1      -1.229  -0.789   0.191  0.00  0.00    +0.181 A 
ATOM      7 CL   UNL     1      -2.667  -3.087   0.233  0.00  0.00    -0.080 Cl
ENDROOT
BRANCH   3   8
ATOM      8  C   UNL     1       2.502  -2.800  -0.036  0.00  0.00    +0.036 C 
ATOM      9  C   UNL     1       2.564  -4.058  -0.539  0.00  0.00    +0.098 C 
ATOM     10  C   UNL     1       3.726  -4.960  -0.549  0.00  0.00    +0.266 C 
ATOM     11  O   UNL     1       4.835  -4.729  -0.104  0.00  0.00    -0.268 OA
ATOM     12  N   UNL     1       3.315  -6.096  -1.148  0.00  0.00    -0.235 N 
ATOM     13  C   UNL     1       2.028  -5.980  -1.511  0.00  0.00    +0.311 C 
ATOM     14  O   UNL     1       1.391  -6.847  -2.077  0.00  0.00    -0.252 OA
ATOM     15  N   UNL     1       1.537  -4.776  -1.167  0.00  0.00    -0.265 N 
ATOM     16  H   UNL     1       3.867  -6.880  -1.297  0.00  0.00    +0.159 HD
ATOM     17  H   UNL     1       0.633  -4.461  -1.326  0.00  0.00    +0.157 HD
ENDBRANCH   3   8
BRANCH   1  19
ATOM     18  C   UNL     1       1.160   1.996   0.097  0.00  0.00    +0.277 C 
ATOM     19  O   UNL     1      -0.090   1.306   0.153  0.00  0.00    -0.491 OA
ENDBRANCH   1  19
BRANCH   6  20
ATOM     20  O   UNL     1      -2.424  -0.146   0.268  0.00  0.00    -0.482 OA
BRANCH  20  21
ATOM     21  C   UNL     1      -3.067   0.176  -0.967  0.00  0.00    +0.264 C 
BRANCH  21  22
ATOM     22  C   UNL     1      -4.369   0.880  -0.686  0.00  0.00    -0.010 A 
ATOM     23  C   UNL     1      -5.533   0.149  -0.543  0.00  0.00    +0.009 A 
ATOM     24  C   UNL     1      -6.727   0.795  -0.281  0.00  0.00    +0.033 A 
ATOM     25  C   UNL     1      -6.758   2.172  -0.171  0.00  0.00    +0.126 A 
ATOM     26  C   UNL     1      -5.595   2.904  -0.318  0.00  0.00    +0.033 A 
ATOM     27  C   UNL     1      -4.400   2.258  -0.576  0.00  0.00    +0.009 A 
BRANCH  25  28
ATOM     28  N   UNL     1      -8.038   2.864   0.106  0.00  0.00    +0.056 N 
ATOM     29  O   UNL     1      -8.065   4.078   0.203  0.00  0.00    -0.126 OA
ATOM     30  O   UNL     1      -9.063   2.219   0.235  0.00  0.00    -0.126 OA
ENDBRANCH  25  28
ENDBRANCH  21  22
ENDBRANCH  20  21
ENDBRANCH   6  20
TORSDOF 6
