REMARK  Name = ZINC29522380
REMARK  7 active torsions:
REMARK  status: ('A' for Active; 'I' for Inactive)
REMARK    1  A    between atoms: C_1  and  C_2
REMARK    2  A    between atoms: C_2  and  C_4
REMARK    3  A    between atoms: C_2  and  N_14
REMARK    4  A    between atoms: C_15  and  C_17
REMARK    5  A    between atoms: C_17  and  N_18
REMARK    6  A    between atoms: N_21  and  C_24
REMARK    7  A    between atoms: C_24  and  C_25
REMARK                            x       y       z     vdW  Elec       q    Type
REMARK                         _______ _______ _______ _____ _____    ______ ____
ROOT
ATOM      1  N   UNL     1      -0.613  -1.158   4.628  0.00  0.00    -0.292 NA
ATOM      2  C   UNL     1      -1.102   0.202   4.892  0.00  0.00    +0.100 C 
ATOM      3  C   UNL     1      -2.294   0.137   5.849  0.00  0.00    +0.100 C 
ATOM      4  N   UNL     1      -1.881  -0.522   7.096  0.00  0.00    -0.294 NA
ATOM      5  C   UNL     1      -1.393  -1.883   6.833  0.00  0.00    +0.100 C 
ATOM      6  C   UNL     1      -0.201  -1.817   5.875  0.00  0.00    +0.100 C 
ENDROOT
BRANCH   1   7
ATOM      7  C   UNL     1       0.485  -1.143   3.652  0.00  0.00    +0.180 C 
BRANCH   7   9
ATOM      8  N   UNL     1       0.796  -0.596   1.260  0.00  0.00    -0.308 N 
ATOM      9  C   UNL     1      -0.038  -0.688   2.314  0.00  0.00    +0.228 C 
ATOM     10  O   UNL     1      -1.210  -0.404   2.186  0.00  0.00    -0.274 OA
ATOM     11  H   UNL     1       1.734  -0.823   1.363  0.00  0.00    +0.149 HD
BRANCH   8  13
ATOM     12  C   UNL     1       0.371   1.371  -0.129  0.00  0.00    +0.033 C 
ATOM     13  C   UNL     1       0.288  -0.154  -0.041  0.00  0.00    +0.101 C 
BRANCH  13  14
ATOM     14  C   UNL     1       1.117  -0.767  -1.139  0.00  0.00    -0.020 A 
ATOM     15  C   UNL     1       2.419  -1.095  -0.912  0.00  0.00    +0.006 A 
ATOM     16  C   UNL     1       3.201  -1.662  -1.916  0.00  0.00    +0.001 A 
ATOM     17  C   UNL     1       2.687  -1.906  -3.152  0.00  0.00    +0.008 A 
ATOM     18  C   UNL     1       1.347  -1.581  -3.424  0.00  0.00    -0.018 A 
ATOM     19  C   UNL     1       0.549  -1.010  -2.401  0.00  0.00    -0.013 A 
ATOM     20  C   UNL     1      -0.793  -0.691  -2.672  0.00  0.00    +0.009 A 
ATOM     21  C   UNL     1      -1.309  -0.940  -3.906  0.00  0.00    +0.001 A 
ATOM     22  C   UNL     1      -0.526  -1.508  -4.910  0.00  0.00    +0.001 A 
ATOM     23  C   UNL     1       0.781  -1.817  -4.689  0.00  0.00    +0.008 A 
ENDBRANCH  13  14
ENDBRANCH   8  13
ENDBRANCH   7   9
ENDBRANCH   1   7
BRANCH   4  24
ATOM     24  C   UNL     1      -2.979  -0.538   8.072  0.00  0.00    +0.137 C 
BRANCH  24  25
ATOM     25  C   UNL     1      -3.259   0.869   8.536  0.00  0.00    +0.037 A 
ATOM     26  C   UNL     1      -4.476   1.459   8.255  0.00  0.00    +0.093 A 
ATOM     27  C   UNL     1      -4.713   2.766   8.696  0.00  0.00    +0.258 A 
ATOM     28  O   UNL     1      -5.778   3.315   8.465  0.00  0.00    -0.267 OA
ATOM     29  N   UNL     1      -3.744   3.410   9.382  0.00  0.00    -0.270 N 
ATOM     30  C   UNL     1      -3.959   4.682   9.817  0.00  0.00    +0.096 A 
ATOM     31  C   UNL     1      -3.004   5.347  10.505  0.00  0.00    +0.018 A 
ATOM     32  C   UNL     1      -1.775   4.731  10.779  0.00  0.00    +0.005 A 
ATOM     33  C   UNL     1      -1.550   3.458  10.347  0.00  0.00    +0.045 A 
ATOM     34  C   UNL     1      -2.556   2.782   9.634  0.00  0.00    +0.118 A 
ATOM     35  N   UNL     1      -2.340   1.536   9.215  0.00  0.00    -0.343 N 
ATOM     36  H   UNL     1      -1.490   1.111   9.410  0.00  0.00    +0.167 HD
ENDBRANCH  24  25
ENDBRANCH   4  24
TORSDOF 6
