REMARK  Name = ZINC08940214
REMARK  6 active torsions:
REMARK  status: ('A' for Active; 'I' for Inactive)
REMARK    1  A    between atoms: C_1  and  C_2
REMARK    2  A    between atoms: N_11  and  C_15
REMARK    3  A    between atoms: C_15  and  C_16
REMARK    4  A    between atoms: N_18  and  C_19
REMARK    5  A    between atoms: C_22  and  O_26
REMARK    6  A    between atoms: O_26  and  C_27
REMARK                            x       y       z     vdW  Elec       q    Type
REMARK                         _______ _______ _______ _____ _____    ______ ____
ROOT
ATOM      1  C   UNL     1       3.624   6.653  -0.213  0.00  0.00    +0.214 C 
ENDROOT
BRANCH   1  11
ATOM      2  C   UNL     1       0.439   9.705  -0.852  0.00  0.00    +0.010 C 
ATOM      3  C   UNL     1       1.483  10.622  -1.493  0.00  0.00    +0.018 C 
ATOM      4  C   UNL     1       1.235  12.066  -1.049  0.00  0.00    +0.006 C 
ATOM      5  C   UNL     1       2.292  12.979  -1.675  0.00  0.00    +0.000 C 
ATOM      6  C   UNL     1       3.684  12.544  -1.212  0.00  0.00    +0.003 C 
ATOM      7  C   UNL     1       3.940  11.101  -1.657  0.00  0.00    +0.035 C 
ATOM      8  C   UNL     1       2.878  10.187  -1.058  0.00  0.00    +0.115 C 
ATOM      9  C   UNL     1       3.136   8.752  -1.456  0.00  0.00    +0.247 C 
ATOM     10  O   UNL     1       3.156   8.294  -2.579  0.00  0.00    -0.273 OA
ATOM     11  N   UNL     1       3.338   8.088  -0.299  0.00  0.00    -0.215 N 
ATOM     12  C   UNL     1       3.249   8.902   0.759  0.00  0.00    +0.310 C 
ATOM     13  O   UNL     1       3.397   8.536   1.908  0.00  0.00    -0.252 OA
ATOM     14  N   UNL     1       2.978  10.174   0.407  0.00  0.00    -0.285 N 
ATOM     15  H   UNL     1       2.870  10.931   1.004  0.00  0.00    +0.151 HD
ENDBRANCH   1  11
BRANCH   1  16
ATOM     16  C   UNL     1       2.331   5.889  -0.091  0.00  0.00    +0.235 C 
ATOM     17  O   UNL     1       1.274   6.484  -0.077  0.00  0.00    -0.274 OA
ATOM     18  N   UNL     1       2.349   4.545   0.004  0.00  0.00    -0.284 N 
ATOM     19  H   UNL     1       3.196   4.074   0.060  0.00  0.00    +0.155 HD
BRANCH  18  20
ATOM     20  C   UNL     1       1.146   3.828   0.020  0.00  0.00    +0.035 A 
ATOM     21  C   UNL     1       0.027   4.363   0.644  0.00  0.00    +0.027 A 
ATOM     22  C   UNL     1      -1.159   3.656   0.659  0.00  0.00    +0.049 A 
ATOM     23  C   UNL     1      -1.235   2.414   0.046  0.00  0.00    +0.145 A 
ATOM     24  C   UNL     1      -0.116   1.875  -0.573  0.00  0.00    +0.084 A 
ATOM     25  C   UNL     1       1.072   2.582  -0.589  0.00  0.00    +0.047 A 
ATOM     26 CL   UNL     1      -0.209   0.317  -1.333  0.00  0.00    -0.080 Cl
BRANCH  23  27
ATOM     27  O   UNL     1      -2.405   1.721   0.057  0.00  0.00    -0.433 OA
BRANCH  27  28
ATOM     28  C   UNL     1      -3.517   2.335   0.712  0.00  0.00    +0.541 C 
ATOM     29  F   UNL     1      -3.201   2.559   2.056  0.00  0.00    -0.166 F 
ATOM     30  F   UNL     1      -3.808   3.555   0.092  0.00  0.00    -0.166 F 
ENDBRANCH  27  28
ENDBRANCH  23  27
ENDBRANCH  18  20
ENDBRANCH   1  16
TORSDOF 5
