REMARK  Name = ZINC32655090
REMARK  9 active torsions:
REMARK  status: ('A' for Active; 'I' for Inactive)
REMARK    1  A    between atoms: C_1  and  C_2
REMARK    2  A    between atoms: C_2  and  O_3
REMARK    3  A    between atoms: O_3  and  C_4
REMARK    4  A    between atoms: C_9  and  C_10
REMARK    5  A    between atoms: C_23  and  C_31
REMARK    6  A    between atoms: C_24  and  C_25
REMARK    7  A    between atoms: C_25  and  O_27
REMARK    8  A    between atoms: O_27  and  C_28
REMARK    9  A    between atoms: C_28  and  C_29
REMARK                            x       y       z     vdW  Elec       q    Type
REMARK                         _______ _______ _______ _____ _____    ______ ____
ROOT
ATOM      1  C   UNL     1      -2.002   2.315   3.557  0.00  0.00    +0.099 C 
ATOM      2  C   UNL     1      -3.081   1.615   4.332  0.00  0.00    +0.067 A 
ATOM      3  C   UNL     1      -3.485   2.075   5.549  0.00  0.00    +0.113 A 
ATOM      4  N   UNL     1      -4.471   1.406   6.234  0.00  0.00    -0.295 N 
ATOM      5  H   UNL     1      -4.801   1.769   7.218  0.00  0.00    +0.172 HD
ATOM      6  C   UNL     1      -5.037   0.305   5.706  0.00  0.00    +0.328 A 
ATOM      7  O   UNL     1      -5.908  -0.276   6.325  0.00  0.00    -0.247 OA
ATOM      8  N   UNL     1      -4.654  -0.163   4.505  0.00  0.00    -0.275 N 
ATOM      9  H   UNL     1      -5.129  -1.063   4.088  0.00  0.00    +0.173 HD
ATOM     10  C   UNL     1      -3.688   0.462   3.802  0.00  0.00    +0.260 A 
ATOM     11  O   UNL     1      -3.345   0.032   2.715  0.00  0.00    -0.267 OA
ATOM     12  N   UNL     1      -2.916   3.202   6.092  0.00  0.00    -0.304 N 
ATOM     13  C   UNL     1      -2.220   4.074   5.300  0.00  0.00    +0.017 C 
ATOM     14  C   UNL     1      -1.771   3.700   4.090  0.00  0.00    +0.065 C 
ATOM     15  C   UNL     1      -1.953   5.473   5.792  0.00  0.00    +0.061 C 
ATOM     16  H   UNL     1      -3.019   3.406   7.168  0.00  0.00    +0.153 HD
ENDROOT
BRANCH   1  22
ATOM     17  C   UNL     1      -0.133   1.004   2.520  0.00  0.00    +0.125 A 
ATOM     18  C   UNL     1       1.042   0.272   2.622  0.00  0.00    +0.046 A 
ATOM     19  C   UNL     1       1.626   0.072   3.857  0.00  0.00    +0.004 A 
ATOM     20  C   UNL     1       1.035   0.593   4.994  0.00  0.00    +0.001 A 
ATOM     21  C   UNL     1      -0.138   1.318   4.897  0.00  0.00    +0.008 A 
ATOM     22  C   UNL     1      -0.723   1.525   3.663  0.00  0.00    +0.007 A 
BRANCH  17  23
ATOM     23  O   UNL     1      -0.706   1.206   1.305  0.00  0.00    -0.492 OA
BRANCH  23  25
ATOM     24  C   UNL     1      -0.831   0.970  -1.097  0.00  0.00    +0.048 C 
ATOM     25  C   UNL     1      -0.043   0.640   0.173  0.00  0.00    +0.225 C 
ENDBRANCH  23  25
ENDBRANCH  17  23
ENDBRANCH   1  22
BRANCH  14  26
ATOM     26  C   UNL     1      -1.064   4.634   3.299  0.00  0.00    +0.338 C 
ATOM     27  O   UNL     1      -1.635   5.232   2.407  0.00  0.00    -0.245 OA
BRANCH  26  28
ATOM     28  O   UNL     1       0.246   4.862   3.533  0.00  0.00    -0.457 OA
BRANCH  28  29
ATOM     29  C   UNL     1       0.897   5.819   2.696  0.00  0.00    +0.259 C 
BRANCH  29  30
ATOM     30  C   UNL     1       2.343   5.941   3.102  0.00  0.00    +0.006 C 
ATOM     31  C   UNL     1       3.282   5.957   2.188  0.00  0.00    +0.007 C 
ENDBRANCH  29  30
ENDBRANCH  28  29
ENDBRANCH  26  28
ENDBRANCH  14  26
TORSDOF 7
