REMARK  Name = ZINC12524892
REMARK  8 active torsions:
REMARK  status: ('A' for Active; 'I' for Inactive)
REMARK    1  A    between atoms: C_1  and  N_2
REMARK    2  A    between atoms: C_11  and  C_12
REMARK    3  A    between atoms: C_11  and  C_14
REMARK    4  A    between atoms: C_14  and  C_16
REMARK    5  A    between atoms: C_16  and  S_17
REMARK    6  A    between atoms: S_17  and  C_18
REMARK    7  A    between atoms: C_21  and  C_29
REMARK    8  A    between atoms: N_22  and  C_23
REMARK                            x       y       z     vdW  Elec       q    Type
REMARK                         _______ _______ _______ _____ _____    ______ ____
ROOT
ATOM      1  S   UNL     1       3.941   3.610  -0.228  0.00  0.00    -0.078 S 
ENDROOT
BRANCH   1   2
ATOM      2  C   UNL     1       5.611   4.056  -0.571  0.00  0.00    +0.197 A 
ATOM      3  N   UNL     1       6.595   3.232  -0.855  0.00  0.00    -0.122 NA
ATOM      4  N   UNL     1       7.681   3.889  -1.050  0.00  0.00    -0.125 NA
ATOM      5  C   UNL     1       7.461   5.177  -0.902  0.00  0.00    +0.205 A 
ATOM      6  N   UNL     1       6.124   5.325  -0.596  0.00  0.00    -0.268 N 
BRANCH   6   7
ATOM      7  C   UNL     1       5.436   6.522  -0.357  0.00  0.00    +0.051 A 
ATOM      8  C   UNL     1       5.281   7.450  -1.378  0.00  0.00    +0.026 A 
ATOM      9  C   UNL     1       4.602   8.629  -1.140  0.00  0.00    +0.002 A 
ATOM     10  C   UNL     1       4.078   8.886   0.113  0.00  0.00    +0.000 A 
ATOM     11  C   UNL     1       4.232   7.964   1.132  0.00  0.00    +0.002 A 
ATOM     12  C   UNL     1       4.904   6.781   0.899  0.00  0.00    +0.026 A 
ENDBRANCH   6   7
BRANCH   5  13
ATOM     13  C   UNL     1       8.451   6.256  -1.043  0.00  0.00    +0.172 A 
ATOM     14  C   UNL     1       9.678   6.145  -1.626  0.00  0.00    +0.053 A 
ATOM     15  C   UNL     1      10.283   7.414  -1.540  0.00  0.00    +0.042 A 
ATOM     16  C   UNL     1       9.409   8.228  -0.916  0.00  0.00    +0.196 A 
ATOM     17  O   UNL     1       8.301   7.527  -0.622  0.00  0.00    -0.460 OA
ENDBRANCH   5  13
ENDBRANCH   1   2
BRANCH   1  18
ATOM     18  C   UNL     1       3.934   1.801  -0.355  0.00  0.00    +0.157 C 
BRANCH  18  19
ATOM     19  C   UNL     1       2.546   1.283  -0.081  0.00  0.00    +0.186 C 
ATOM     20  O   UNL     1       1.647   2.061   0.175  0.00  0.00    -0.290 OA
BRANCH  19  31
ATOM     21  C   UNL     1       2.284   1.091   2.588  0.00  0.00    +0.136 C 
ATOM     22  N   UNL     1       1.903  -0.299   2.323  0.00  0.00    -0.296 N 
ATOM     23  C   UNL     1       1.513  -1.119   3.363  0.00  0.00    +0.048 A 
ATOM     24  C   UNL     1       1.411  -0.829   4.731  0.00  0.00    +0.024 A 
ATOM     25  C   UNL     1       0.999  -1.791   5.622  0.00  0.00    +0.002 A 
ATOM     26  C   UNL     1       0.673  -3.069   5.199  0.00  0.00    +0.001 A 
ATOM     27  C   UNL     1       0.764  -3.382   3.854  0.00  0.00    +0.017 A 
ATOM     28  C   UNL     1       1.177  -2.421   2.962  0.00  0.00    +0.035 A 
ATOM     29  S   UNL     1       1.432  -2.379   1.207  0.00  0.00    -0.071 S 
ATOM     30  C   UNL     1       1.928  -0.781   1.055  0.00  0.00    +0.094 C 
ATOM     31  C   UNL     1       2.290  -0.097  -0.121  0.00  0.00    +0.123 C 
BRANCH  31  32
ATOM     32  C   UNL     1       2.398  -0.810  -1.358  0.00  0.00    +0.105 C 
ATOM     33  N   UNL     1       2.484  -1.375  -2.340  0.00  0.00    -0.191 NA
ENDBRANCH  31  32
ENDBRANCH  19  31
ENDBRANCH  18  19
ENDBRANCH   1  18
TORSDOF 7
