REMARK  Name = ZINC01789749
REMARK  9 active torsions:
REMARK  status: ('A' for Active; 'I' for Inactive)
REMARK    1  A    between atoms: C_1  and  C_2
REMARK    2  A    between atoms: C_3  and  N_15
REMARK    3  A    between atoms: N_6  and  C_9
REMARK    4  A    between atoms: N_7  and  C_8
REMARK    5  A    between atoms: C_19  and  C_20
REMARK    6  A    between atoms: C_23  and  O_26
REMARK    7  A    between atoms: O_26  and  C_27
REMARK    8  A    between atoms: C_27  and  C_29
REMARK    9  A    between atoms: C_33  and  N_35
REMARK                            x       y       z     vdW  Elec       q    Type
REMARK                         _______ _______ _______ _____ _____    ______ ____
ROOT
ATOM      1  N   UNL     1       0.750  -0.316  -2.517  0.00  0.00    -0.217 N 
ATOM      2  C   UNL     1       0.047  -0.656  -3.584  0.00  0.00    +0.263 C 
ATOM      3  O   UNL     1      -0.600  -1.687  -3.622  0.00  0.00    -0.269 OA
ATOM      4  C   UNL     1       0.084   0.279  -4.727  0.00  0.00    +0.078 C 
ATOM      5  C   UNL     1      -0.529   0.195  -5.934  0.00  0.00    +0.028 C 
ATOM      6  S   UNL     1       1.160   1.553  -4.082  0.00  0.00    -0.061 S 
ATOM      7  C   UNL     1       1.460   0.830  -2.477  0.00  0.00    +0.125 C 
ATOM      8  S   UNL     1       2.418   1.442  -1.197  0.00  0.00    -0.027 S 
ENDROOT
BRANCH   1  11
ATOM      9  C   UNL     1       1.948  -3.135  -2.482  0.00  0.00    +0.067 C 
ATOM     10  C   UNL     1       1.272  -2.414  -1.344  0.00  0.00    +0.060 A 
ATOM     11  C   UNL     1       0.753  -1.168  -1.394  0.00  0.00    +0.129 A 
ATOM     12  C   UNL     1       0.212  -0.867  -0.117  0.00  0.00    +0.294 A 
ATOM     13  O   UNL     1      -0.338   0.172   0.204  0.00  0.00    -0.264 OA
ATOM     14  N   UNL     1       0.416  -1.938   0.676  0.00  0.00    -0.216 N 
ATOM     15  N   UNL     1       1.073  -2.914  -0.084  0.00  0.00    -0.282 N 
ATOM     16  C   UNL     1       1.481  -4.239   0.389  0.00  0.00    +0.171 C 
BRANCH  14  17
ATOM     17  C   UNL     1       0.034  -2.055   2.016  0.00  0.00    +0.067 A 
ATOM     18  C   UNL     1       0.945  -2.505   2.963  0.00  0.00    +0.028 A 
ATOM     19  C   UNL     1       0.565  -2.619   4.286  0.00  0.00    +0.002 A 
ATOM     20  C   UNL     1      -0.722  -2.288   4.668  0.00  0.00    +0.000 A 
ATOM     21  C   UNL     1      -1.632  -1.840   3.728  0.00  0.00    +0.002 A 
ATOM     22  C   UNL     1      -1.256  -1.717   2.404  0.00  0.00    +0.028 A 
ENDBRANCH  14  17
ENDBRANCH   1  11
BRANCH   5  23
ATOM     23  C   UNL     1      -0.192   1.150  -6.998  0.00  0.00    -0.024 A 
ATOM     24  C   UNL     1       0.885   2.030  -6.836  0.00  0.00    +0.011 A 
ATOM     25  C   UNL     1       1.197   2.923  -7.836  0.00  0.00    +0.047 A 
ATOM     26  C   UNL     1       0.445   2.952  -9.005  0.00  0.00    +0.132 A 
ATOM     27  C   UNL     1      -0.625   2.081  -9.171  0.00  0.00    +0.047 A 
ATOM     28  C   UNL     1      -0.943   1.180  -8.179  0.00  0.00    +0.011 A 
BRANCH  26  29
ATOM     29  O   UNL     1       0.757   3.836  -9.988  0.00  0.00    -0.422 OA
BRANCH  29  30
ATOM     30  C   UNL     1       1.821   3.564 -10.769  0.00  0.00    +0.345 C 
ATOM     31  O   UNL     1       2.412   2.510 -10.644  0.00  0.00    -0.245 OA
BRANCH  30  32
ATOM     32  C   UNL     1       2.268   4.547 -11.776  0.00  0.00    +0.062 A 
ATOM     33  C   UNL     1       1.595   5.762 -11.918  0.00  0.00    +0.015 A 
ATOM     34  C   UNL     1       2.018   6.676 -12.860  0.00  0.00    +0.003 A 
ATOM     35  C   UNL     1       3.108   6.391 -13.664  0.00  0.00    +0.033 A 
ATOM     36  C   UNL     1       3.780   5.189 -13.529  0.00  0.00    +0.127 A 
ATOM     37  C   UNL     1       3.371   4.269 -12.586  0.00  0.00    +0.047 A 
BRANCH  36  38
ATOM     38  N   UNL     1       4.945   4.894 -14.393  0.00  0.00    +0.056 N 
ATOM     39  O   UNL     1       5.308   5.702 -15.216  0.00  0.00    -0.126 OA
ATOM     40  O   UNL     1       5.533   3.844 -14.276  0.00  0.00    -0.126 OA
ENDBRANCH  36  38
ENDBRANCH  30  32
ENDBRANCH  29  30
ENDBRANCH  26  29
ENDBRANCH   5  23
TORSDOF 7
