REMARK  Name = ZINC09662024
REMARK  8 active torsions:
REMARK  status: ('A' for Active; 'I' for Inactive)
REMARK    1  A    between atoms: C_1  and  N_2
REMARK    2  A    between atoms: N_2  and  C_3
REMARK    3  A    between atoms: N_2  and  S_4
REMARK    4  A    between atoms: S_4  and  C_7
REMARK    5  A    between atoms: C_10  and  C_13
REMARK    6  A    between atoms: N_15  and  C_16
REMARK    7  A    between atoms: C_19  and  S_22
REMARK    8  A    between atoms: S_22  and  N_25
REMARK                            x       y       z     vdW  Elec       q    Type
REMARK                         _______ _______ _______ _____ _____    ______ ____
ROOT
ATOM      1  C   UNL     1       7.755  -2.829  -2.964  0.00  0.00    +0.034 A 
ATOM      2  C   UNL     1       8.381  -1.798  -3.654  0.00  0.00    +0.025 A 
ATOM      3  C   UNL     1       9.721  -1.896  -3.971  0.00  0.00    +0.031 A 
ATOM      4  C   UNL     1      10.440  -3.018  -3.603  0.00  0.00    +0.113 A 
ATOM      5  C   UNL     1       9.820  -4.046  -2.917  0.00  0.00    +0.031 A 
ATOM      6  C   UNL     1       8.482  -3.952  -2.591  0.00  0.00    +0.025 A 
ENDROOT
BRANCH   1   9
ATOM      7  C   UNL     1       5.944  -3.245  -1.480  0.00  0.00    +0.248 C 
ATOM      8  O   UNL     1       6.696  -3.864  -0.753  0.00  0.00    -0.270 OA
ATOM      9  N   UNL     1       6.398  -2.733  -2.641  0.00  0.00    -0.282 N 
ATOM     10  H   UNL     1       5.783  -2.297  -3.252  0.00  0.00    +0.155 HD
BRANCH   7  14
ATOM     11  C   UNL     1       1.883  -2.696  -0.360  0.00  0.00    +0.105 A 
ATOM     12  C   UNL     1       2.737  -3.402   0.469  0.00  0.00    +0.029 A 
ATOM     13  C   UNL     1       4.057  -3.584   0.111  0.00  0.00    +0.015 A 
ATOM     14  C   UNL     1       4.531  -3.054  -1.090  0.00  0.00    +0.037 A 
ATOM     15  C   UNL     1       3.664  -2.344  -1.922  0.00  0.00    +0.015 A 
ATOM     16  C   UNL     1       2.345  -2.174  -1.555  0.00  0.00    +0.029 A 
BRANCH  11  17
ATOM     17  S   UNL     1       0.199  -2.469   0.104  0.00  0.00    +0.060 S 
ATOM     18  O   UNL     1      -0.259  -1.313  -0.584  0.00  0.00    -0.153 OA
ATOM     19  O   UNL     1       0.149  -2.582   1.520  0.00  0.00    -0.153 OA
BRANCH  17  21
ATOM     20  C   UNL     1      -0.824  -4.965   0.299  0.00  0.00    +0.131 C 
ATOM     21  N   UNL     1      -0.654  -3.751  -0.504  0.00  0.00    -0.183 NA
ATOM     22  C   UNL     1      -1.240  -3.672  -1.844  0.00  0.00    +0.131 C 
ENDBRANCH  17  21
ENDBRANCH  11  17
ENDBRANCH   7  14
ENDBRANCH   1   9
BRANCH   4  23
ATOM     23  S   UNL     1      12.150  -3.139  -4.010  0.00  0.00    +0.100 S 
ATOM     24  O   UNL     1      12.465  -4.524  -4.034  0.00  0.00    -0.146 OA
ATOM     25  O   UNL     1      12.362  -2.290  -5.130  0.00  0.00    -0.146 OA
BRANCH  23  26
ATOM     26  N   UNL     1      13.001  -2.482  -2.751  0.00  0.00    -0.118 NA
ATOM     27  C   UNL     1      14.293  -2.443  -2.794  0.00  0.00    +0.117 C 
ATOM     28  C   UNL     1      15.036  -2.997  -4.007  0.00  0.00    +0.073 C 
ATOM     29  C   UNL     1      15.641  -1.819  -4.741  0.00  0.00    +0.008 C 
ATOM     30  C   UNL     1      17.035  -1.439  -4.238  0.00  0.00    +0.002 C 
ATOM     31  C   UNL     1      17.148  -1.457  -2.713  0.00  0.00    +0.019 C 
ATOM     32  C   UNL     1      15.954  -0.838  -2.019  0.00  0.00    +0.102 C 
ATOM     33  N   UNL     1      14.972  -1.920  -1.792  0.00  0.00    -0.331 N 
ATOM     34  H   UNL     1      14.828  -2.249  -0.891  0.00  0.00    +0.147 HD
ENDBRANCH  23  26
ENDBRANCH   4  23
TORSDOF 6
