REMARK  Name = ZINC12293645
REMARK  6 active torsions:
REMARK  status: ('A' for Active; 'I' for Inactive)
REMARK    1  A    between atoms: C_6  and  C_7
REMARK    2  A    between atoms: C_7  and  C_9
REMARK    3  A    between atoms: C_7  and  O_27
REMARK    4  A    between atoms: C_9  and  N_51
REMARK    5  A    between atoms: C_16  and  O_26
REMARK    6  A    between atoms: C_20  and  O_25
REMARK                            x       y       z     vdW  Elec       q    Type
REMARK                         _______ _______ _______ _____ _____    ______ ____
ROOT
ATOM      1  C   UNL     1       5.209   4.490   0.541  0.00  0.00    -0.075 C 
ATOM      2  C   UNL     1       6.545   5.238   0.543  0.00  0.00    +0.029 C 
ATOM      3  C   UNL     1       6.836   5.751   1.954  0.00  0.00    +0.110 C 
ATOM      4  C   UNL     1       6.845   4.574   2.932  0.00  0.00    +0.029 C 
ATOM      5  C   UNL     1       5.500   3.847   2.860  0.00  0.00    -0.075 C 
ATOM      6  C   UNL     1       8.201   6.447   1.976  0.00  0.00    +0.084 C 
ATOM      7  C   UNL     1       8.513   6.849   3.420  0.00  0.00    +0.152 C 
ATOM      8  C   UNL     1       7.318   7.538   4.027  0.00  0.00    +0.026 A 
ATOM      9  C   UNL     1       7.498   8.297   5.172  0.00  0.00    +0.055 A 
ATOM     10  C   UNL     1       6.421   8.935   5.765  0.00  0.00    +0.117 A 
ATOM     11  C   UNL     1       5.156   8.814   5.209  0.00  0.00    +0.049 A 
ATOM     12  C   UNL     1       4.975   8.060   4.067  0.00  0.00    +0.049 A 
ATOM     13  C   UNL     1       6.057   7.421   3.470  0.00  0.00    +0.127 A 
ATOM     14  O   UNL     1       5.837   6.693   2.343  0.00  0.00    -0.485 OA
ATOM     15  N   UNL     1       5.296   3.353   1.482  0.00  0.00    +0.382 N 
ATOM     16  H   UNL     1       6.093   2.762   1.218  0.00  0.00    -0.082 HD
ENDROOT
BRANCH  10  17
ATOM     17  O   UNL     1       6.603   9.677   6.889  0.00  0.00    -0.507 OA
ATOM     18  H   UNL     1       6.806  10.607   6.718  0.00  0.00    +0.292 HD
ENDBRANCH  10  17
BRANCH   7  19
ATOM     19  O   UNL     1       9.632   7.738   3.433  0.00  0.00    -0.387 OA
ATOM     20  H   UNL     1       9.890   8.032   4.317  0.00  0.00    +0.210 HD
ENDBRANCH   7  19
BRANCH  15  21
ATOM     21  C   UNL     1       4.059   2.546   1.413  0.00  0.00    -0.042 C 
BRANCH  21  22
ATOM     22  C   UNL     1       4.266   1.259   2.215  0.00  0.00    +0.128 C 
BRANCH  22  28
ATOM     23  C   UNL     1       2.853  -0.447   1.050  0.00  0.00    +0.007 A 
ATOM     24  C   UNL     1       1.717  -1.230   0.965  0.00  0.00    +0.022 A 
ATOM     25  C   UNL     1       0.753  -1.160   1.954  0.00  0.00    +0.059 A 
ATOM     26  C   UNL     1       0.927  -0.305   3.030  0.00  0.00    +0.060 A 
ATOM     27  C   UNL     1       2.064   0.478   3.113  0.00  0.00    +0.027 A 
ATOM     28  C   UNL     1       3.027   0.407   2.123  0.00  0.00    -0.019 A 
ATOM     29 CL   UNL     1      -0.281  -0.216   4.273  0.00  0.00    -0.082 Cl
ATOM     30 CL   UNL     1      -0.673  -2.144   1.849  0.00  0.00    -0.082 Cl
ENDBRANCH  22  28
BRANCH  22  31
ATOM     31  O   UNL     1       5.380   0.540   1.681  0.00  0.00    -0.389 OA
ATOM     32  H   UNL     1       5.276   0.286   0.754  0.00  0.00    +0.210 HD
ENDBRANCH  22  31
ENDBRANCH  21  22
ENDBRANCH  15  21
TORSDOF 6
