REMARK  Name = ZINC12154495
REMARK  8 active torsions:
REMARK  status: ('A' for Active; 'I' for Inactive)
REMARK    1  A    between atoms: C_1  and  C_2
REMARK    2  A    between atoms: C_2  and  C_3
REMARK    3  A    between atoms: C_3  and  N_60
REMARK    4  A    between atoms: C_6  and  C_9
REMARK    5  A    between atoms: C_9  and  C_28
REMARK    6  A    between atoms: N_12  and  C_16
REMARK    7  A    between atoms: C_16  and  C_17
REMARK    8  A    between atoms: C_28  and  C_29
REMARK                            x       y       z     vdW  Elec       q    Type
REMARK                         _______ _______ _______ _____ _____    ______ ____
ROOT
ATOM      1  C   UNL     1      -4.310   0.575   1.077  0.00  0.00    +0.115 C 
ATOM      2  C   UNL     1      -3.178   1.536   0.771  0.00  0.00    +0.247 C 
ATOM      3  O   UNL     1      -3.249   2.580   0.160  0.00  0.00    -0.273 OA
ATOM      4  N   UNL     1      -2.076   0.985   1.317  0.00  0.00    -0.221 N 
ATOM      5  C   UNL     1      -2.353  -0.173   1.926  0.00  0.00    +0.309 C 
ATOM      6  O   UNL     1      -1.522  -0.853   2.495  0.00  0.00    -0.252 OA
ATOM      7  N   UNL     1      -3.655  -0.502   1.838  0.00  0.00    -0.285 N 
ATOM      8  H   UNL     1      -4.079  -1.294   2.204  0.00  0.00    +0.151 HD
ENDROOT
BRANCH   1  11
ATOM      9  C   UNL     1      -4.456  -1.212  -2.330  0.00  0.00    -0.078 C 
ATOM     10  C   UNL     1      -3.828  -0.612  -1.070  0.00  0.00    -0.013 C 
ATOM     11  C   UNL     1      -4.924   0.027  -0.213  0.00  0.00    +0.018 C 
ATOM     12  C   UNL     1      -5.976  -1.032   0.131  0.00  0.00    -0.013 C 
ATOM     13  C   UNL     1      -6.541  -1.621  -1.164  0.00  0.00    -0.078 C 
ATOM     14  N   UNL     1      -5.440  -2.241  -1.931  0.00  0.00    +0.380 N 
ATOM     15  H   UNL     1      -4.972  -2.938  -1.339  0.00  0.00    -0.082 HD
BRANCH  14  16
ATOM     16  C   UNL     1      -5.978  -2.916  -3.130  0.00  0.00    -0.079 C 
BRANCH  16  18
ATOM     17  C   UNL     1      -7.364  -4.840  -3.917  0.00  0.00    +0.002 C 
ATOM     18  C   UNL     1      -6.817  -4.116  -2.686  0.00  0.00    -0.022 C 
ENDBRANCH  16  18
ENDBRANCH  14  16
ENDBRANCH   1  11
BRANCH   1  19
ATOM     19  C   UNL     1      -5.379   1.263   1.929  0.00  0.00    +0.032 C 
ATOM     20  C   UNL     1      -4.730   1.848   3.185  0.00  0.00    +0.006 C 
ENDBRANCH   1  19
BRANCH   4  21
ATOM     21  C   UNL     1      -0.741   1.585   1.258  0.00  0.00    +0.166 C 
BRANCH  21  22
ATOM     22  C   UNL     1      -0.013   1.086   0.008  0.00  0.00    +0.229 C 
ATOM     23  C   UNL     1       1.425   1.623  -0.003  0.00  0.00    +0.275 C 
ATOM     24  O   UNL     1       2.072   1.148  -1.189  0.00  0.00    -0.485 OA
ATOM     25  C   UNL     1       1.373   1.258  -2.352  0.00  0.00    +0.162 A 
ATOM     26  C   UNL     1       2.046   1.163  -3.561  0.00  0.00    +0.049 A 
ATOM     27  C   UNL     1       1.351   1.271  -4.751  0.00  0.00    +0.004 A 
ATOM     28  C   UNL     1      -0.017   1.471  -4.739  0.00  0.00    +0.004 A 
ATOM     29  C   UNL     1      -0.693   1.567  -3.537  0.00  0.00    +0.049 A 
ATOM     30  C   UNL     1      -0.001   1.463  -2.340  0.00  0.00    +0.163 A 
ATOM     31  O   UNL     1      -0.679   1.566  -1.164  0.00  0.00    -0.480 OA
ENDBRANCH  21  22
ENDBRANCH   4  21
TORSDOF 6
