REMARK  Name = ZINC09167801
REMARK  10 active torsions:
REMARK  status: ('A' for Active; 'I' for Inactive)
REMARK    1  A    between atoms: C_1  and  C_2
REMARK    2  A    between atoms: C_2  and  C_3
REMARK    3  A    between atoms: C_3  and  N_4
REMARK    4  A    between atoms: C_8  and  N_18
REMARK    5  A    between atoms: C_13  and  C_16
REMARK    6  A    between atoms: C_13  and  C_17
REMARK    7  A    between atoms: N_18  and  S_19
REMARK    8  A    between atoms: S_19  and  C_22
REMARK    9  A    between atoms: C_25  and  N_29
REMARK   10  A    between atoms: C_30  and  C_32
REMARK                            x       y       z     vdW  Elec       q    Type
REMARK                         _______ _______ _______ _____ _____    ______ ____
ROOT
ATOM      1  N   UNL     1       0.780   5.713  -4.584  0.00  0.00    -0.268 N 
ATOM      2  C   UNL     1       1.576   4.783  -3.897  0.00  0.00    +0.078 A 
ATOM      3  C   UNL     1       2.106   5.092  -2.655  0.00  0.00    +0.029 A 
ATOM      4  C   UNL     1       2.895   4.170  -1.993  0.00  0.00    +0.026 A 
ATOM      5  C   UNL     1       3.156   2.934  -2.571  0.00  0.00    +0.052 A 
ATOM      6  C   UNL     1       2.629   2.623  -3.818  0.00  0.00    +0.072 A 
ATOM      7  C   UNL     1       1.834   3.543  -4.479  0.00  0.00    +0.144 A 
ATOM      8  O   UNL     1       1.302   3.245  -5.694  0.00  0.00    -0.489 OA
ATOM      9  C   UNL     1      -0.088   2.930  -5.737  0.00  0.00    +0.244 C 
ATOM     10  C   UNL     1      -0.884   3.906  -4.873  0.00  0.00    +0.076 C 
ATOM     11  C   UNL     1      -0.402   5.315  -5.106  0.00  0.00    +0.229 C 
ATOM     12  O   UNL     1      -1.071   6.088  -5.759  0.00  0.00    -0.275 OA
ATOM     13  C   UNL     1      -2.367   3.811  -5.235  0.00  0.00    +0.024 C 
ATOM     14  C   UNL     1      -0.697   3.547  -3.398  0.00  0.00    +0.024 C 
ENDROOT
BRANCH   5  15
ATOM     15  N   UNL     1       3.957   2.004  -1.899  0.00  0.00    -0.216 N 
ATOM     16  H   UNL     1       4.650   1.524  -2.379  0.00  0.00    +0.174 HD
BRANCH  15  17
ATOM     17  S   UNL     1       3.720   1.722  -0.285  0.00  0.00    +0.072 S 
ATOM     18  O   UNL     1       3.667   2.993   0.346  0.00  0.00    -0.150 OA
ATOM     19  O   UNL     1       4.656   0.721   0.094  0.00  0.00    -0.150 OA
BRANCH  17  20
ATOM     20  C   UNL     1       2.119   1.006  -0.110  0.00  0.00    +0.111 A 
ATOM     21  C   UNL     1       1.017   1.819   0.079  0.00  0.00    +0.031 A 
ATOM     22  C   UNL     1      -0.239   1.262   0.217  0.00  0.00    +0.028 A 
ATOM     23  C   UNL     1      -0.396  -0.116   0.165  0.00  0.00    +0.069 A 
ATOM     24  C   UNL     1       0.713  -0.932  -0.026  0.00  0.00    +0.146 A 
ATOM     25  C   UNL     1       1.969  -0.368  -0.164  0.00  0.00    +0.069 A 
ATOM     26  F   UNL     1       0.566  -2.274  -0.077  0.00  0.00    -0.203 F 
BRANCH  23  27
ATOM     27  N   UNL     1      -1.669  -0.684   0.304  0.00  0.00    -0.283 N 
ATOM     28  C   UNL     1      -2.618  -0.043   1.015  0.00  0.00    +0.214 C 
ATOM     29  O   UNL     1      -2.397   1.061   1.465  0.00  0.00    -0.276 OA
ATOM     30  C   UNL     1      -3.954  -0.700   1.252  0.00  0.00    +0.109 C 
ATOM     31  H   UNL     1      -1.867  -1.537  -0.111  0.00  0.00    +0.155 HD
ENDBRANCH  23  27
ENDBRANCH  17  20
ENDBRANCH  15  17
ENDBRANCH   5  15
BRANCH   1  32
ATOM     32  C   UNL     1       1.225   7.101  -4.734  0.00  0.00    +0.113 C 
BRANCH  32  34
ATOM     33  C   UNL     1       2.507   8.687  -6.176  0.00  0.00    +0.005 C 
ATOM     34  C   UNL     1       2.042   7.238  -6.020  0.00  0.00    +0.016 C 
ENDBRANCH  32  34
ENDBRANCH   1  32
TORSDOF 6
