REMARK  Name = ZINC09463434
REMARK  5 active torsions:
REMARK  status: ('A' for Active; 'I' for Inactive)
REMARK    1  A    between atoms: C_4  and  C_7
REMARK    2  A    between atoms: C_8  and  S_9
REMARK    3  A    between atoms: S_9  and  N_12
REMARK    4  A    between atoms: C_15  and  C_18
REMARK    5  A    between atoms: N_23  and  C_26
REMARK                            x       y       z     vdW  Elec       q    Type
REMARK                         _______ _______ _______ _____ _____    ______ ____
ROOT
ATOM      1  N   UNL     1      -0.876   1.885   1.353  0.00  0.00    -0.177 NA
ATOM      2  C   UNL     1      -0.652   3.200   1.969  0.00  0.00    +0.110 C 
ATOM      3  C   UNL     1      -0.339   3.008   3.452  0.00  0.00    +0.030 C 
ATOM      4  C   UNL     1      -1.455   2.189   4.104  0.00  0.00    +0.078 C 
ATOM      5  C   UNL     1      -1.533   0.811   3.443  0.00  0.00    +0.030 C 
ATOM      6  C   UNL     1      -1.863   0.980   1.957  0.00  0.00    +0.110 C 
ENDROOT
BRANCH   4   7
ATOM      7  C   UNL     1      -1.163   2.024   5.574  0.00  0.00    +0.219 C 
ATOM      8  O   UNL     1      -0.018   1.910   5.956  0.00  0.00    -0.275 OA
ATOM      9  N   UNL     1      -2.175   2.005   6.464  0.00  0.00    -0.298 N 
ATOM     10  C   UNL     1      -3.576   2.030   6.015  0.00  0.00    +0.126 C 
ATOM     11  C   UNL     1      -4.323   0.876   6.701  0.00  0.00    +0.125 C 
ATOM     12  N   UNL     1      -4.135   0.974   8.155  0.00  0.00    -0.314 N 
ATOM     13  C   UNL     1      -2.721   0.817   8.522  0.00  0.00    +0.125 C 
ATOM     14  C   UNL     1      -1.909   1.963   7.910  0.00  0.00    +0.126 C 
BRANCH  12  15
ATOM     15  C   UNL     1      -4.929   0.049   8.823  0.00  0.00    +0.099 A 
ATOM     16  C   UNL     1      -6.303   0.036   8.609  0.00  0.00    +0.042 A 
ATOM     17  C   UNL     1      -7.081  -0.890   9.280  0.00  0.00    +0.005 A 
ATOM     18  C   UNL     1      -6.455  -1.776  10.147  0.00  0.00    +0.018 A 
ATOM     19  C   UNL     1      -5.086  -1.708  10.312  0.00  0.00    +0.084 A 
ATOM     20  N   UNL     1      -4.290  -0.815   9.665  0.00  0.00    -0.350 N 
ATOM     21  H   UNL     1      -3.273  -0.793   9.800  0.00  0.00    +0.166 HD
ENDBRANCH  12  15
ENDBRANCH   4   7
BRANCH   1  22
ATOM     22  S   UNL     1      -0.026   1.428   0.007  0.00  0.00    +0.054 S 
ATOM     23  O   UNL     1      -0.018   0.007  -0.006  0.00  0.00    -0.153 OA
ATOM     24  O   UNL     1       1.170   2.196   0.002  0.00  0.00    -0.153 OA
BRANCH  22  26
ATOM     25  C   UNL     1      -0.473   2.864  -2.215  0.00  0.00    +0.028 C 
ATOM     26  C   UNL     1      -0.959   1.940  -1.397  0.00  0.00    +0.153 C 
BRANCH  25  30
ATOM     27  C   UNL     1      -2.722   4.098  -5.600  0.00  0.00    +0.000 A 
ATOM     28  C   UNL     1      -1.483   4.661  -5.354  0.00  0.00    +0.001 A 
ATOM     29  C   UNL     1      -0.747   4.265  -4.256  0.00  0.00    +0.008 A 
ATOM     30  C   UNL     1      -1.256   3.293  -3.393  0.00  0.00    -0.024 A 
ATOM     31  C   UNL     1      -2.504   2.725  -3.650  0.00  0.00    +0.008 A 
ATOM     32  C   UNL     1      -3.232   3.134  -4.748  0.00  0.00    +0.001 A 
ENDBRANCH  25  30
ENDBRANCH  22  26
ENDBRANCH   1  22
TORSDOF 5
