REMARK  Name = ZINC20234032
REMARK  14 active torsions:
REMARK  status: ('A' for Active; 'I' for Inactive)
REMARK    1  A    between atoms: C_1  and  C_2
REMARK    2  A    between atoms: C_2  and  C_3
REMARK    3  A    between atoms: C_2  and  C_4
REMARK    4  A    between atoms: C_2  and  C_27
REMARK    5  A    between atoms: C_4  and  N_5
REMARK    6  A    between atoms: N_5  and  C_6
REMARK    7  A    between atoms: C_12  and  C_16
REMARK    8  A    between atoms: N_14  and  C_15
REMARK    9  A    between atoms: N_18  and  C_19
REMARK   10  A    between atoms: N_18  and  C_20
REMARK   11  A    between atoms: C_20  and  C_21
REMARK   12  A    between atoms: C_27  and  N_28
REMARK   13  A    between atoms: N_28  and  C_29
REMARK   14  A    between atoms: N_28  and  C_30
REMARK                            x       y       z     vdW  Elec       q    Type
REMARK                         _______ _______ _______ _____ _____    ______ ____
ROOT
ATOM      1  C   UNL     1      -1.722   2.145   0.277  0.00  0.00    -0.067 C 
ATOM      2  C   UNL     1      -0.217   2.201   0.561  0.00  0.00    -0.009 C 
ATOM      3  C   UNL     1       0.548   2.397  -0.754  0.00  0.00    +0.054 C 
ATOM      4  C   UNL     1      -0.074   3.552  -1.497  0.00  0.00    +0.043 A 
ATOM      5  C   UNL     1      -1.302   4.056  -1.219  0.00  0.00    +0.004 A 
ATOM      6  C   UNL     1      -1.500   5.111  -2.126  0.00  0.00    +0.151 A 
ATOM      7  N   UNL     1      -0.412   5.176  -2.874  0.00  0.00    -0.166 NA
ATOM      8  N   UNL     1       0.428   4.268  -2.516  0.00  0.00    -0.270 N 
ATOM      9  C   UNL     1       1.740   4.049  -3.130  0.00  0.00    +0.172 C 
ATOM     10  C   UNL     1      -2.215   3.536  -0.144  0.00  0.00    +0.023 C 
ENDROOT
BRANCH   6  11
ATOM     11  C   UNL     1      -2.692   5.978  -2.223  0.00  0.00    +0.267 C 
ATOM     12  O   UNL     1      -3.649   5.779  -1.501  0.00  0.00    -0.268 OA
ATOM     13  N   UNL     1      -2.718   6.989  -3.114  0.00  0.00    -0.292 N 
ATOM     14  C   UNL     1      -1.617   7.157  -4.065  0.00  0.00    +0.133 C 
BRANCH  13  15
ATOM     15  C   UNL     1      -3.848   7.922  -3.130  0.00  0.00    +0.182 C 
BRANCH  15  16
ATOM     16  C   UNL     1      -3.559   9.077  -2.206  0.00  0.00    +0.122 A 
ATOM     17  C   UNL     1      -2.948  10.225  -2.549  0.00  0.00    +0.046 A 
ATOM     18  C   UNL     1      -2.886  11.020  -1.383  0.00  0.00    +0.041 A 
ATOM     19  C   UNL     1      -3.463  10.312  -0.396  0.00  0.00    +0.195 A 
ATOM     20  O   UNL     1      -3.875   9.137  -0.902  0.00  0.00    -0.466 OA
ENDBRANCH  15  16
ENDBRANCH  13  15
ENDBRANCH   6  11
BRANCH   1  21
ATOM     21  N   UNL     1      -2.433   1.720   1.490  0.00  0.00    +0.381 N 
ATOM     22  H   UNL     1      -3.462   2.105   1.449  0.00  0.00    -0.085 HD
ATOM     23  H   UNL     1      -1.919   2.141   2.367  0.00  0.00    -0.085 HD
BRANCH  21  24
ATOM     24  C   UNL     1      -2.462   0.255   1.597  0.00  0.00    -0.078 C 
BRANCH  24  26
ATOM     25  C   UNL     1      -2.494   0.437   4.088  0.00  0.00    +0.007 C 
ATOM     26  C   UNL     1      -3.209  -0.149   2.869  0.00  0.00    -0.065 C 
ATOM     27  C   UNL     1      -4.641   0.387   2.811  0.00  0.00    +0.007 C 
BRANCH  26  28
ATOM     28  C   UNL     1      -3.240  -1.675   2.980  0.00  0.00    -0.075 C 
BRANCH  28  29
ATOM     29  N   UNL     1      -3.935  -2.062   4.215  0.00  0.00    +0.376 N 
ATOM     30  C   UNL     1      -5.383  -2.172   3.991  0.00  0.00    -0.097 C 
ATOM     31  C   UNL     1      -3.390  -3.315   4.755  0.00  0.00    -0.097 C 
ATOM     32  H   UNL     1      -3.767  -1.271   4.960  0.00  0.00    -0.083 HD
ENDBRANCH  28  29
ENDBRANCH  26  28
ENDBRANCH  24  26
ENDBRANCH  21  24
ENDBRANCH   1  21
TORSDOF 8
