REMARK  Name = ZINC61721007
REMARK  10 active torsions:
REMARK  status: ('A' for Active; 'I' for Inactive)
REMARK    1  A    between atoms: C_1  and  O_2
REMARK    2  A    between atoms: O_2  and  C_3
REMARK    3  A    between atoms: C_5  and  C_13
REMARK    4  A    between atoms: C_6  and  O_11
REMARK    5  A    between atoms: C_8  and  O_9
REMARK    6  A    between atoms: O_9  and  C_10
REMARK    7  A    between atoms: O_11  and  C_12
REMARK    8  A    between atoms: C_16  and  O_33
REMARK    9  A    between atoms: N_20  and  C_26
REMARK   10  A    between atoms: C_22  and  C_23
REMARK                            x       y       z     vdW  Elec       q    Type
REMARK                         _______ _______ _______ _____ _____    ______ ____
ROOT
ATOM      1  C   UNL     1      -4.871   0.262   0.039  0.00  0.00    +0.081 C 
ATOM      2  C   UNL     1      -4.925   1.165  -1.198  0.00  0.00    +0.110 C 
ATOM      3  C   UNL     1      -4.045   2.370  -1.042  0.00  0.00    +0.189 C 
ATOM      4  N   UNL     1      -3.827   2.948   0.102  0.00  0.00    -0.215 NA
ATOM      5  C   UNL     1      -4.396   2.417   1.227  0.00  0.00    +0.103 A 
ATOM      6  C   UNL     1      -4.905   1.148   1.260  0.00  0.00    +0.058 A 
ATOM      7  N   UNL     1      -5.393   0.902   2.502  0.00  0.00    -0.314 N 
ATOM      8  C   UNL     1      -5.224   1.982   3.297  0.00  0.00    +0.109 A 
ATOM      9  C   UNL     1      -4.602   2.980   2.561  0.00  0.00    +0.107 A 
ENDROOT
BRANCH   7  10
ATOM     10  C   UNL     1      -5.987  -0.302   2.905  0.00  0.00    +0.082 A 
ATOM     11  C   UNL     1      -7.330  -0.331   3.256  0.00  0.00    +0.029 A 
ATOM     12  C   UNL     1      -7.914  -1.519   3.652  0.00  0.00    +0.002 A 
ATOM     13  C   UNL     1      -7.163  -2.679   3.698  0.00  0.00    +0.003 A 
ATOM     14  C   UNL     1      -5.825  -2.655   3.349  0.00  0.00    +0.040 A 
ATOM     15  C   UNL     1      -5.236  -1.470   2.946  0.00  0.00    +0.147 A 
ATOM     16  F   UNL     1      -3.930  -1.448   2.600  0.00  0.00    -0.203 F 
ENDBRANCH   7  10
BRANCH   1  19
ATOM     17  C   UNL     1      -1.202  -0.638   0.010  0.00  0.00    +0.162 A 
ATOM     18  C   UNL     1      -2.374   0.100   0.019  0.00  0.00    +0.057 A 
ATOM     19  C   UNL     1      -3.597  -0.543   0.028  0.00  0.00    +0.007 A 
ATOM     20  C   UNL     1      -3.654  -1.929   0.027  0.00  0.00    +0.128 A 
ATOM     21  C   UNL     1      -2.483  -2.672   0.017  0.00  0.00    +0.095 A 
ATOM     22  C   UNL     1      -1.256  -2.029   0.003  0.00  0.00    +0.165 A 
BRANCH  17  24
ATOM     23  C   UNL     1      -0.017   1.425   0.010  0.00  0.00    +0.277 C 
ATOM     24  O   UNL     1       0.002  -0.004   0.002  0.00  0.00    -0.491 OA
ENDBRANCH  17  24
BRANCH  22  25
ATOM     25  O   UNL     1      -0.107  -2.755  -0.012  0.00  0.00    -0.491 OA
ATOM     26  C   UNL     1      -0.238  -4.178  -0.019  0.00  0.00    +0.277 C 
ENDBRANCH  22  25
BRANCH  20  27
ATOM     27  O   UNL     1      -4.859  -2.560   0.035  0.00  0.00    -0.495 OA
ATOM     28  C   UNL     1      -4.843  -3.989   0.034  0.00  0.00    +0.277 C 
ENDBRANCH  20  27
ENDBRANCH   1  19
BRANCH   9  29
ATOM     29  C   UNL     1      -4.227   4.319   3.023  0.00  0.00    +0.390 C 
ATOM     30  O   UNL     1      -4.463   4.657   4.176  0.00  0.00    -0.240 OA
ATOM     31  O   UNL     1      -3.678   5.101   2.257  0.00  0.00    -0.240 OA
ENDBRANCH   9  29
BRANCH   3  32
ATOM     32  O   UNL     1      -3.450   2.879  -2.142  0.00  0.00    -0.495 OA
ATOM     33  H   UNL     1      -2.899   3.654  -1.968  0.00  0.00    +0.293 HD
ENDBRANCH   3  32
TORSDOF 7
