REMARK  Name = ZINC05728863
REMARK  1 active torsions:
REMARK  status: ('A' for Active; 'I' for Inactive)
REMARK    1  A    between atoms: C_3  and  C_8
REMARK                            x       y       z     vdW  Elec       q    Type
REMARK                         _______ _______ _______ _____ _____    ______ ____
ROOT
ATOM      1  C   UNL     1       3.656   2.161  -0.022  0.00  0.00    +0.142 A 
ATOM      2  N   UNL     1       4.843   1.482  -0.042  0.00  0.00    -0.306 N 
ATOM      3  C   UNL     1       6.020   2.134  -0.050  0.00  0.00    +0.260 A 
ATOM      4  C   UNL     1       6.020   3.568  -0.036  0.00  0.00    +0.075 A 
ATOM      5  C   UNL     1       7.174   4.470  -0.041  0.00  0.00    -0.023 A 
ATOM      6  C   UNL     1       6.910   5.793  -0.020  0.00  0.00    -0.004 A 
ATOM      7  S   UNL     1       5.139   5.912  -0.005  0.00  0.00    -0.073 S 
ATOM      8  C   UNL     1       4.756   4.180  -0.016  0.00  0.00    +0.116 A 
ATOM      9  N   UNL     1       3.630   3.477  -0.015  0.00  0.00    -0.222 NA
ATOM     10  C   UNL     1       7.889   6.926  -0.000  0.00  0.00    +0.043 C 
ATOM     11  C   UNL     1       8.940   6.705  -1.096  0.00  0.00    +0.005 C 
ATOM     12  C   UNL     1      10.090   5.896  -0.505  0.00  0.00    +0.001 C 
ATOM     13  C   UNL     1       9.559   4.927   0.550  0.00  0.00    +0.005 C 
ATOM     14  C   UNL     1       8.599   3.925  -0.079  0.00  0.00    +0.037 C 
ATOM     15  O   UNL     1       7.070   1.516  -0.068  0.00  0.00    -0.267 OA
ATOM     16  H   UNL     1       4.836   0.512  -0.052  0.00  0.00    +0.170 HD
ENDROOT
BRANCH   1  19
ATOM     17  C   UNL     1      -0.017   1.379   0.010  0.00  0.00    +0.002 A 
ATOM     18  C   UNL     1       1.167   2.088   0.002  0.00  0.00    +0.011 A 
ATOM     19  C   UNL     1       2.385   1.408  -0.013  0.00  0.00    +0.018 A 
ATOM     20  C   UNL     1       2.398   0.011  -0.021  0.00  0.00    +0.026 A 
ATOM     21  C   UNL     1       1.207  -0.686  -0.013  0.00  0.00    +0.019 A 
ATOM     22  C   UNL     1       0.002  -0.004   0.002  0.00  0.00    +0.015 A 
ATOM     23 BR   UNL     1       1.221  -2.577  -0.024  0.00  0.00    -0.050 Br
ENDBRANCH   1  19
TORSDOF 1
