REMARK  Name = ZINC45714693
REMARK  6 active torsions:
REMARK  status: ('A' for Active; 'I' for Inactive)
REMARK    1  A    between atoms: C_1  and  C_2
REMARK    2  A    between atoms: C_5  and  C_26
REMARK    3  A    between atoms: C_12  and  C_14
REMARK    4  A    between atoms: C_14  and  C_15
REMARK    5  A    between atoms: C_18  and  C_20
REMARK    6  A    between atoms: C_23  and  C_25
REMARK                            x       y       z     vdW  Elec       q    Type
REMARK                         _______ _______ _______ _____ _____    ______ ____
ROOT
ATOM      1  C   UNL     1      -0.018   1.503   0.010  0.00  0.00    +0.046 C 
ATOM      2  C   UNL     1       0.002  -0.004   0.002  0.00  0.00    -0.024 A 
ATOM      3  C   UNL     1       0.005  -0.675  -1.193  0.00  0.00    +0.006 A 
ATOM      4  C   UNL     1       0.024  -2.061  -1.246  0.00  0.00    +0.005 A 
ATOM      5  C   UNL     1       0.040  -2.784  -0.067  0.00  0.00    -0.035 A 
ATOM      6  C   UNL     1       0.036  -2.121   1.134  0.00  0.00    +0.044 A 
ATOM      7  C   UNL     1       0.023  -0.710   1.227  0.00  0.00    +0.083 A 
ATOM      8  N   UNL     1       0.027  -0.206   2.480  0.00  0.00    -0.224 NA
ATOM      9  C   UNL     1       0.047  -0.969   3.547  0.00  0.00    +0.165 A 
ATOM     10  S   UNL     1       0.051  -2.611   2.842  0.00  0.00    -0.052 S 
ATOM     11  N   UNL     1       0.054  -0.597   4.882  0.00  0.00    -0.264 N 
ATOM     12  C   UNL     1       0.075  -1.540   5.845  0.00  0.00    +0.224 C 
ATOM     13  O   UNL     1       0.088  -2.714   5.543  0.00  0.00    -0.275 OA
ATOM     14  C   UNL     1       0.059  -4.290  -0.101  0.00  0.00    +0.045 C 
ATOM     15  H   UNL     1       0.044   0.343   5.123  0.00  0.00    +0.157 HD
ENDROOT
BRANCH  12  16
ATOM     16  C   UNL     1       0.083  -1.135   7.296  0.00  0.00    +0.152 C 
BRANCH  16  17
ATOM     17  C   UNL     1       0.107  -2.368   8.162  0.00  0.00    +0.058 A 
ATOM     18  C   UNL     1       1.079  -2.522   9.100  0.00  0.00    +0.071 A 
ATOM     19  S   UNL     1       0.621  -4.106   9.793  0.00  0.00    -0.072 S 
ATOM     20  C   UNL     1      -0.811  -4.390   8.761  0.00  0.00    +0.144 A 
ATOM     21  N   UNL     1      -0.813  -3.292   8.014  0.00  0.00    -0.240 NA
BRANCH  20  22
ATOM     22  C   UNL     1      -1.740  -5.531   8.747  0.00  0.00    +0.160 A 
ATOM     23  C   UNL     1      -1.677  -6.624   9.558  0.00  0.00    +0.052 A 
ATOM     24  C   UNL     1      -2.756  -7.456   9.201  0.00  0.00    +0.045 A 
ATOM     25  C   UNL     1      -3.417  -6.839   8.201  0.00  0.00    +0.103 A 
ATOM     26  O   UNL     1      -2.805  -5.675   7.933  0.00  0.00    -0.458 OA
ATOM     27  C   UNL     1      -4.644  -7.367   7.503  0.00  0.00    +0.086 C 
ENDBRANCH  20  22
ENDBRANCH  16  17
ENDBRANCH  12  16
TORSDOF 3
