REMARK  Name = ZINC17180926
REMARK  2 active torsions:
REMARK  status: ('A' for Active; 'I' for Inactive)
REMARK    1  A    between atoms: C_11  and  C_16
REMARK    2  A    between atoms: N_21  and  C_24
REMARK                            x       y       z     vdW  Elec       q    Type
REMARK                         _______ _______ _______ _____ _____    ______ ____
ROOT
ATOM      1  C   UNL     1       6.195   5.914   2.831  0.00  0.00    +0.001 A 
ATOM      2  C   UNL     1       6.600   4.714   2.269  0.00  0.00    +0.002 A 
ATOM      3  C   UNL     1       5.942   3.522   2.520  0.00  0.00    +0.026 A 
ATOM      4  C   UNL     1       4.841   3.576   3.371  0.00  0.00    +0.047 A 
ATOM      5  C   UNL     1       4.430   4.808   3.945  0.00  0.00    +0.003 A 
ATOM      6  C   UNL     1       5.114   5.997   3.673  0.00  0.00    +0.010 A 
ATOM      7  C   UNL     1       3.278   4.501   4.762  0.00  0.00    -0.022 A 
ATOM      8  C   UNL     1       3.053   3.172   4.652  0.00  0.00    +0.011 A 
ATOM      9  N   UNL     1       3.984   2.612   3.822  0.00  0.00    -0.359 N 
ATOM     10  H   UNL     1       4.114   1.568   3.501  0.00  0.00    +0.166 HD
ATOM     11  C   UNL     1       1.923   2.467   5.366  0.00  0.00    +0.018 C 
ATOM     12  N   UNL     1       0.950   3.475   5.818  0.00  0.00    +0.388 N 
ATOM     13  C   UNL     1       1.606   4.555   6.568  0.00  0.00    -0.076 C 
ATOM     14  C   UNL     1       2.434   5.421   5.609  0.00  0.00    +0.018 C 
ATOM     15  H   UNL     1       0.444   3.914   4.945  0.00  0.00    -0.084 HD
ATOM     16  H   UNL     1       0.205   2.998   6.472  0.00  0.00    -0.084 HD
ENDROOT
BRANCH  11  17
ATOM     17  C   UNL     1       1.252   1.503   4.423  0.00  0.00    +0.073 A 
ATOM     18  C   UNL     1       1.294   0.161   4.661  0.00  0.00    +0.258 A 
ATOM     19  N   UNL     1       0.676  -0.699   3.790  0.00  0.00    -0.302 N 
ATOM     20  C   UNL     1       0.028  -0.226   2.709  0.00  0.00    +0.164 A 
ATOM     21  S   UNL     1      -0.741  -1.321   1.641  0.00  0.00    -0.013 S 
ATOM     22  N   UNL     1      -0.020   1.094   2.454  0.00  0.00    -0.285 N 
ATOM     23  C   UNL     1       0.574   1.974   3.284  0.00  0.00    +0.261 A 
ATOM     24  O   UNL     1       0.523   3.169   3.051  0.00  0.00    -0.267 OA
ATOM     25  O   UNL     1       1.939  -0.318   5.746  0.00  0.00    -0.267 OA
ATOM     26  H   UNL     1       0.708  -1.784   3.971  0.00  0.00    +0.171 HD
BRANCH  22  27
ATOM     27  C   UNL     1      -0.729   1.579   1.267  0.00  0.00    +0.093 C 
ATOM     28  C   UNL     1      -1.863   2.512   1.696  0.00  0.00    +0.025 C 
ATOM     29  C   UNL     1      -2.603   3.019   0.456  0.00  0.00    +0.002 C 
ATOM     30  C   UNL     1      -1.628   3.781  -0.443  0.00  0.00    +0.000 C 
ATOM     31  C   UNL     1      -0.494   2.848  -0.872  0.00  0.00    +0.002 C 
ATOM     32  C   UNL     1       0.246   2.342   0.367  0.00  0.00    +0.025 C 
ENDBRANCH  22  27
ENDBRANCH  11  17
TORSDOF 2
