REMARK  Name = ZINC39711130
REMARK  10 active torsions:
REMARK  status: ('A' for Active; 'I' for Inactive)
REMARK    1  A    between atoms: C_1  and  C_2
REMARK    2  A    between atoms: C_4  and  C_42
REMARK    3  A    between atoms: C_7  and  C_14
REMARK    4  A    between atoms: C_14  and  C_16
REMARK    5  A    between atoms: C_14  and  N_28
REMARK    6  A    between atoms: N_21  and  C_22
REMARK    7  A    between atoms: N_28  and  C_29
REMARK    8  A    between atoms: N_28  and  C_36
REMARK    9  A    between atoms: C_29  and  C_30
REMARK   10  A    between atoms: C_36  and  C_37
REMARK                            x       y       z     vdW  Elec       q    Type
REMARK                         _______ _______ _______ _____ _____    ______ ____
ROOT
ATOM      1  C   UNL     1       1.543  -6.128   1.406  0.00  0.00    -0.010 C 
ENDROOT
BRANCH   1   8
ATOM      2  C   UNL     1      -4.901  -6.517  -2.406  0.00  0.00    +0.044 C 
ATOM      3  C   UNL     1      -3.831  -6.439  -1.347  0.00  0.00    -0.048 A 
ATOM      4  C   UNL     1      -3.952  -7.241  -0.212  0.00  0.00    +0.007 A 
ATOM      5  C   UNL     1      -3.020  -7.215   0.775  0.00  0.00    -0.042 A 
ATOM      6  C   UNL     1      -1.868  -6.322   0.635  0.00  0.00    -0.004 A 
ATOM      7  C   UNL     1      -0.908  -6.263   1.601  0.00  0.00    -0.006 C 
ATOM      8  C   UNL     1       0.250  -5.311   1.372  0.00  0.00    +0.088 C 
ATOM      9  C   UNL     1       0.245  -4.505   0.092  0.00  0.00    +0.223 C 
ATOM     10  O   UNL     1       1.149  -3.727  -0.143  0.00  0.00    -0.275 OA
ATOM     11  N   UNL     1      -0.747  -4.651  -0.771  0.00  0.00    -0.285 N 
ATOM     12  C   UNL     1      -1.766  -5.487  -0.574  0.00  0.00    +0.041 A 
ATOM     13  C   UNL     1      -2.784  -5.594  -1.539  0.00  0.00    +0.027 A 
ATOM     14  C   UNL     1      -3.169  -8.089   1.994  0.00  0.00    +0.044 C 
ATOM     15  H   UNL     1      -0.731  -4.125  -1.586  0.00  0.00    +0.155 HD
ENDBRANCH   1   8
BRANCH   1  16
ATOM     16  C   UNL     1       2.730  -5.193   1.653  0.00  0.00    +0.183 C 
ATOM     17  N   UNL     1       2.400  -4.190   2.683  0.00  0.00    -0.229 N 
ATOM     18  N   UNL     1       2.497  -2.945   2.050  0.00  0.00    -0.064 NA
ATOM     19  N   UNL     1       2.815  -3.039   0.868  0.00  0.00    -0.061 NA
ATOM     20  N   UNL     1       3.002  -4.369   0.460  0.00  0.00    -0.213 N 
ATOM     21  H   UNL     1       2.163  -4.359   3.608  0.00  0.00    +0.172 HD
BRANCH  20  22
ATOM     22  C   UNL     1       3.385  -4.843  -0.872  0.00  0.00    +0.096 C 
ATOM     23  C   UNL     1       2.407  -4.292  -1.911  0.00  0.00    +0.024 C 
ATOM     24  C   UNL     1       2.807  -4.787  -3.302  0.00  0.00    +0.002 C 
ATOM     25  C   UNL     1       4.222  -4.304  -3.628  0.00  0.00    +0.000 C 
ATOM     26  C   UNL     1       5.201  -4.855  -2.589  0.00  0.00    +0.002 C 
ATOM     27  C   UNL     1       4.800  -4.360  -1.198  0.00  0.00    +0.024 C 
ENDBRANCH  20  22
ENDBRANCH   1  16
BRANCH   1  28
ATOM     28  N   UNL     1       1.468  -7.119   2.488  0.00  0.00    +0.392 N 
ATOM     29  H   UNL     1       0.582  -7.600   2.442  0.00  0.00    -0.080 HD
BRANCH  28  30
ATOM     30  C   UNL     1       1.589  -6.439   3.784  0.00  0.00    -0.040 C 
BRANCH  30  31
ATOM     31  C   UNL     1       0.259  -5.841   4.165  0.00  0.00    -0.046 A 
ATOM     32  C   UNL     1      -0.052  -4.537   3.809  0.00  0.00    +0.005 A 
ATOM     33  C   UNL     1      -1.287  -4.029   4.180  0.00  0.00    +0.020 A 
ATOM     34  C   UNL     1      -2.161  -4.832   4.888  0.00  0.00    +0.111 A 
ATOM     35  N   UNL     1      -1.831  -6.068   5.209  0.00  0.00    -0.263 NA
ATOM     36  C   UNL     1      -0.668  -6.586   4.868  0.00  0.00    +0.112 A 
ENDBRANCH  30  31
ENDBRANCH  28  30
BRANCH  28  37
ATOM     37  C   UNL     1       2.560  -8.089   2.340  0.00  0.00    -0.002 C 
BRANCH  37  38
ATOM     38  C   UNL     1       2.398  -8.833   1.039  0.00  0.00    +0.089 A 
ATOM     39  C   UNL     1       3.005  -8.528  -0.122  0.00  0.00    +0.042 A 
ATOM     40  C   UNL     1       2.571  -9.480  -1.074  0.00  0.00    +0.041 A 
ATOM     41  C   UNL     1       1.724 -10.309  -0.437  0.00  0.00    +0.195 A 
ATOM     42  O   UNL     1       1.628  -9.916   0.844  0.00  0.00    -0.470 OA
ENDBRANCH  37  38
ENDBRANCH  28  37
ENDBRANCH   1  28
TORSDOF 8
