REMARK  Name = ZINC49512484
REMARK  7 active torsions:
REMARK  status: ('A' for Active; 'I' for Inactive)
REMARK    1  A    between atoms: C_1  and  C_2
REMARK    2  A    between atoms: C_2  and  C_4
REMARK    3  A    between atoms: C_2  and  N_11
REMARK    4  A    between atoms: N_11  and  S_12
REMARK    5  A    between atoms: S_12  and  C_15
REMARK    6  A    between atoms: C_18  and  C_20
REMARK    7  A    between atoms: C_20  and  N_21
REMARK                            x       y       z     vdW  Elec       q    Type
REMARK                         _______ _______ _______ _____ _____    ______ ____
ROOT
ATOM      1  S   UNL     1      -2.092  -0.923   1.446  0.00  0.00    +0.065 S 
ATOM      2  O   UNL     1      -3.411  -1.347   1.131  0.00  0.00    -0.153 OA
ATOM      3  O   UNL     1      -1.170  -1.752   2.140  0.00  0.00    -0.153 OA
ENDROOT
BRANCH   1   4
ATOM      4  C   UNL     1      -2.251   0.555   2.392  0.00  0.00    +0.143 A 
ATOM      5  C   UNL     1      -3.278   1.439   2.428  0.00  0.00    +0.036 A 
ATOM      6  C   UNL     1      -3.184   2.542   3.256  0.00  0.00    +0.011 A 
ATOM      7  C   UNL     1      -2.068   2.707   4.008  0.00  0.00    -0.026 A 
ATOM      8  S   UNL     1      -1.105   1.272   3.558  0.00  0.00    -0.075 S 
BRANCH   7   9
ATOM      9  C   UNL     1      -1.731   3.811   4.976  0.00  0.00    -0.043 C 
BRANCH   9  10
ATOM     10  N   UNL     1      -2.206   3.449   6.318  0.00  0.00    +0.381 N 
ATOM     11  H   UNL     1      -3.206   3.315   6.295  0.00  0.00    -0.090 HD
ATOM     12  H   UNL     1      -1.759   2.594   6.613  0.00  0.00    -0.090 HD
ATOM     13  H   UNL     1      -1.980   4.188   6.966  0.00  0.00    -0.090 HD
ENDBRANCH   9  10
ENDBRANCH   7   9
ENDBRANCH   1   4
BRANCH   1  14
ATOM     14  N   UNL     1      -1.372  -0.511   0.012  0.00  0.00    -0.182 NA
ATOM     15  H   UNL     1      -1.861  -0.606  -0.820  0.00  0.00    +0.149 HD
BRANCH  14  17
ATOM     16  C   UNL     1      -0.019   1.526   0.010  0.00  0.00    +0.031 C 
ATOM     17  C   UNL     1       0.002  -0.004   0.002  0.00  0.00    +0.105 C 
BRANCH  17  18
ATOM     18  C   UNL     1       0.707  -0.490  -1.238  0.00  0.00    -0.011 A 
ATOM     19  C   UNL     1      -0.023  -0.817  -2.365  0.00  0.00    +0.006 A 
ATOM     20  C   UNL     1       0.624  -1.263  -3.502  0.00  0.00    +0.000 A 
ATOM     21  C   UNL     1       2.002  -1.382  -3.513  0.00  0.00    +0.001 A 
ATOM     22  C   UNL     1       2.733  -1.055  -2.387  0.00  0.00    +0.020 A 
ATOM     23  C   UNL     1       2.086  -0.604  -1.250  0.00  0.00    +0.046 A 
ATOM     24 CL   UNL     1       3.004  -0.187   0.163  0.00  0.00    -0.083 Cl
ENDBRANCH  17  18
ENDBRANCH  14  17
ENDBRANCH   1  14
TORSDOF 6
