REMARK  Name = ZINC04494992
REMARK  4 active torsions:
REMARK  status: ('A' for Active; 'I' for Inactive)
REMARK    1  A    between atoms: C_10  and  C_12
REMARK    2  A    between atoms: C_12  and  O_14
REMARK    3  A    between atoms: O_14  and  C_15
REMARK    4  A    between atoms: C_15  and  C_16
REMARK                            x       y       z     vdW  Elec       q    Type
REMARK                         _______ _______ _______ _____ _____    ______ ____
ROOT
ATOM      1  C   UNL     1      -2.513   7.269   0.302  0.00  0.00    +0.001 A 
ATOM      2  C   UNL     1      -1.513   8.185   0.025  0.00  0.00    +0.004 A 
ATOM      3  C   UNL     1      -0.227   7.763  -0.256  0.00  0.00    +0.046 A 
ATOM      4  C   UNL     1       0.075   6.414  -0.266  0.00  0.00    +0.129 A 
ATOM      5  C   UNL     1      -0.945   5.482   0.032  0.00  0.00    +0.031 A 
ATOM      6  C   UNL     1      -2.232   5.916   0.306  0.00  0.00    +0.012 A 
ATOM      7  C   UNL     1      -0.537   4.083   0.027  0.00  0.00    +0.030 A 
ATOM      8  C   UNL     1       0.812   3.693   0.015  0.00  0.00    +0.005 A 
ATOM      9  C   UNL     1       1.052   2.345   0.005  0.00  0.00    +0.030 A 
ATOM     10  C   UNL     1      -0.018   1.458   0.010  0.00  0.00    +0.097 A 
ATOM     11  S   UNL     1      -1.425   2.562   0.021  0.00  0.00    -0.081 S 
ATOM     12  C   UNL     1       1.861   4.800   0.022  0.00  0.00    +0.265 C 
ATOM     13  O   UNL     1       1.314   5.971  -0.581  0.00  0.00    -0.487 OA
ENDROOT
BRANCH  10  14
ATOM     14  C   UNL     1       0.002  -0.004   0.002  0.00  0.00    +0.346 C 
ATOM     15  O   UNL     1       1.064  -0.598  -0.011  0.00  0.00    -0.244 OA
BRANCH  14  16
ATOM     16  O   UNL     1      -1.157  -0.695   0.009  0.00  0.00    -0.451 OA
BRANCH  16  17
ATOM     17  C   UNL     1      -1.063  -2.120   0.001  0.00  0.00    +0.328 C 
BRANCH  17  18
ATOM     18  C   UNL     1      -2.448  -2.715   0.011  0.00  0.00    +0.258 C 
ATOM     19  O   UNL     1      -3.419  -1.990   0.024  0.00  0.00    -0.272 OA
ATOM     20  N   UNL     1      -2.606  -4.054   0.005  0.00  0.00    -0.238 N 
ATOM     21  C   UNL     1      -3.844  -4.586   0.014  0.00  0.00    +0.303 C 
ATOM     22  O   UNL     1      -4.818  -3.859   0.027  0.00  0.00    -0.253 OA
ATOM     23  N   UNL     1      -4.003  -5.924   0.009  0.00  0.00    -0.313 N 
ATOM     24  H   UNL     1      -1.829  -4.634  -0.005  0.00  0.00    +0.159 HD
ATOM     25  H   UNL     1      -3.226  -6.505  -0.002  0.00  0.00    +0.146 HD
ATOM     26  H   UNL     1      -4.894  -6.307   0.015  0.00  0.00    +0.146 HD
ENDBRANCH  17  18
ENDBRANCH  16  17
ENDBRANCH  14  16
ENDBRANCH  10  14
TORSDOF 4
