REMARK  Name = ZINC16682957
REMARK  8 active torsions:
REMARK  status: ('A' for Active; 'I' for Inactive)
REMARK    1  A    between atoms: C_1  and  C_2
REMARK    2  A    between atoms: C_2  and  O_3
REMARK    3  A    between atoms: O_3  and  C_4
REMARK    4  A    between atoms: N_6  and  C_7
REMARK    5  A    between atoms: C_7  and  C_9
REMARK    6  A    between atoms: C_7  and  O_13
REMARK    7  A    between atoms: O_13  and  N_14
REMARK    8  A    between atoms: C_22  and  O_26
REMARK                            x       y       z     vdW  Elec       q    Type
REMARK                         _______ _______ _______ _____ _____    ______ ____
ROOT
ATOM      1  O   UNL     1      -1.234   2.043   0.025  0.00  0.00    -0.245 OA
ENDROOT
BRANCH   1   2
ATOM      2  N   UNL     1      -0.084   2.832  -0.221  0.00  0.00    -0.138 N 
ATOM      3  C   UNL     1       1.194   2.340   0.078  0.00  0.00    +0.106 A 
ATOM      4  C   UNL     1       1.397   0.989   0.309  0.00  0.00    +0.029 A 
ATOM      5  C   UNL     1       2.666   0.524   0.603  0.00  0.00    +0.002 A 
ATOM      6  C   UNL     1       3.731   1.404   0.667  0.00  0.00    +0.004 A 
ATOM      7  C   UNL     1       3.535   2.754   0.438  0.00  0.00    +0.048 A 
ATOM      8  C   UNL     1       2.268   3.226   0.143  0.00  0.00    +0.148 A 
ATOM      9  O   UNL     1       2.058   4.550  -0.086  0.00  0.00    -0.453 OA
ATOM     10  C   UNL     1       1.035   4.885  -1.028  0.00  0.00    +0.395 C 
ATOM     11  C   UNL     1      -0.202   4.072  -0.743  0.00  0.00    +0.312 C 
ATOM     12  O   UNL     1      -1.300   4.530  -0.981  0.00  0.00    -0.266 OA
BRANCH  10  13
ATOM     13  O   UNL     1       0.726   6.276  -0.920  0.00  0.00    -0.351 OA
ATOM     14  H   UNL     1       1.477   6.860  -1.091  0.00  0.00    +0.214 HD
ENDBRANCH  10  13
ENDBRANCH   1   2
BRANCH   1  15
ATOM     15  C   UNL     1      -1.801   2.231   1.323  0.00  0.00    +0.287 C 
BRANCH  15  18
ATOM     16  C   UNL     1      -2.205   4.606   1.693  0.00  0.00    +0.402 C 
ATOM     17  O   UNL     1      -1.050   4.716   2.054  0.00  0.00    -0.226 OA
ATOM     18  N   UNL     1      -2.678   3.404   1.307  0.00  0.00    -0.250 N 
ATOM     19  H   UNL     1      -3.600   3.316   1.020  0.00  0.00    +0.155 HD
BRANCH  16  20
ATOM     20  O   UNL     1      -3.011   5.683   1.678  0.00  0.00    -0.451 OA
BRANCH  20  22
ATOM     21  C   UNL     1      -3.493   8.046   2.023  0.00  0.00    +0.048 C 
ATOM     22  C   UNL     1      -2.433   6.945   2.107  0.00  0.00    +0.230 C 
ENDBRANCH  20  22
ENDBRANCH  16  20
ENDBRANCH  15  18
BRANCH  15  23
ATOM     23  C   UNL     1      -2.612   0.993   1.710  0.00  0.00    +0.235 C 
ATOM     24 CL   UNL     1      -1.509  -0.426   1.855  0.00  0.00    -0.079 Cl
ATOM     25 CL   UNL     1      -3.432   1.281   3.290  0.00  0.00    -0.079 Cl
ATOM     26 CL   UNL     1      -3.850   0.664   0.442  0.00  0.00    -0.079 Cl
ENDBRANCH  15  23
ENDBRANCH   1  15
TORSDOF 7
