REMARK  Name = ZINC24709915
REMARK  6 active torsions:
REMARK  status: ('A' for Active; 'I' for Inactive)
REMARK    1  A    between atoms: C_1  and  C_2
REMARK    2  A    between atoms: C_2  and  C_3
REMARK    3  A    between atoms: C_3  and  C_4
REMARK    4  A    between atoms: C_4  and  C_26
REMARK    5  A    between atoms: N_7  and  C_11
REMARK    6  A    between atoms: C_11  and  C_12
REMARK                            x       y       z     vdW  Elec       q    Type
REMARK                         _______ _______ _______ _____ _____    ______ ____
ROOT
ATOM      1  C   UNL     1      -0.070   5.347   0.032  0.00  0.00    +0.138 C 
ATOM      2  C   UNL     1      -0.048   5.872   1.454  0.00  0.00    +0.251 C 
ATOM      3  O   UNL     1      -0.876   5.681   2.318  0.00  0.00    -0.272 OA
ATOM      4  N   UNL     1       1.085   6.595   1.558  0.00  0.00    -0.218 N 
ATOM      5  C   UNL     1       1.774   6.600   0.411  0.00  0.00    +0.310 C 
ATOM      6  O   UNL     1       2.829   7.184   0.259  0.00  0.00    -0.252 OA
ATOM      7  N   UNL     1       1.168   5.886  -0.556  0.00  0.00    -0.281 N 
ATOM      8  H   UNL     1       1.422   5.663  -1.603  0.00  0.00    +0.152 HD
ENDROOT
BRANCH   1   9
ATOM      9  C   UNL     1      -0.050   3.840   0.023  0.00  0.00    -0.015 A 
ATOM     10  C   UNL     1       1.156   3.165   0.008  0.00  0.00    +0.006 A 
ATOM     11  C   UNL     1       1.175   1.783   0.000  0.00  0.00    +0.000 A 
ATOM     12  C   UNL     1      -0.013   1.076   0.008  0.00  0.00    +0.000 A 
ATOM     13  C   UNL     1      -1.219   1.751   0.017  0.00  0.00    +0.000 A 
ATOM     14  C   UNL     1      -1.238   3.133   0.029  0.00  0.00    +0.006 A 
ENDBRANCH   1   9
BRANCH   1  15
ATOM     15  C   UNL     1      -1.298   5.872  -0.716  0.00  0.00    +0.040 C 
BRANCH  15  17
ATOM     16  C   UNL     1      -2.457   7.923  -1.548  0.00  0.00    +0.004 C 
ATOM     17  C   UNL     1      -1.230   7.398  -0.800  0.00  0.00    -0.000 C 
ENDBRANCH  15  17
ENDBRANCH   1  15
BRANCH   4  18
ATOM     18  C   UNL     1       1.510   7.289   2.776  0.00  0.00    +0.173 C 
BRANCH  18  19
ATOM     19  C   UNL     1       2.359   6.365   3.610  0.00  0.00    +0.067 A 
ATOM     20  C   UNL     1       3.689   6.647   3.835  0.00  0.00    +0.095 A 
ATOM     21  C   UNL     1       4.460   5.781   4.611  0.00  0.00    +0.259 A 
ATOM     22  O   UNL     1       5.639   6.025   4.814  0.00  0.00    -0.267 OA
ATOM     23  N   UNL     1       3.892   4.657   5.144  0.00  0.00    -0.259 N 
ATOM     24  C   UNL     1       4.545   3.719   5.931  0.00  0.00    +0.039 A 
ATOM     25  C   UNL     1       3.846   2.667   6.378  0.00  0.00    +0.013 A 
ATOM     26  S   UNL     1       2.220   2.929   5.720  0.00  0.00    -0.054 S 
ATOM     27  C   UNL     1       2.568   4.455   4.870  0.00  0.00    +0.181 A 
ATOM     28  N   UNL     1       1.836   5.266   4.147  0.00  0.00    -0.226 NA
ATOM     29  C   UNL     1       4.328   1.539   7.232  0.00  0.00    +0.044 C 
ATOM     30  C   UNL     1       5.864   1.559   7.241  0.00  0.00    +0.006 C 
ATOM     31  C   UNL     1       6.331   2.995   7.501  0.00  0.00    +0.006 C 
ATOM     32  C   UNL     1       6.022   3.870   6.287  0.00  0.00    +0.055 C 
ENDBRANCH  18  19
ENDBRANCH   4  18
TORSDOF 5
