REMARK  Name = ZINC43147126
REMARK  8 active torsions:
REMARK  status: ('A' for Active; 'I' for Inactive)
REMARK    1  A    between atoms: C_1  and  C_2
REMARK    2  A    between atoms: C_2  and  O_3
REMARK    3  A    between atoms: O_3  and  C_4
REMARK    4  A    between atoms: N_14  and  C_15
REMARK    5  A    between atoms: C_15  and  C_16
REMARK    6  A    between atoms: C_16  and  N_21
REMARK    7  A    between atoms: N_21  and  C_22
REMARK    8  A    between atoms: N_21  and  C_23
REMARK                            x       y       z     vdW  Elec       q    Type
REMARK                         _______ _______ _______ _____ _____    ______ ____
ROOT
ATOM      1  C   UNL     1       0.876  -1.752   1.327  0.00  0.00    +0.403 C 
ATOM      2  O   UNL     1       0.397  -2.484   0.484  0.00  0.00    -0.226 OA
ATOM      3  N   UNL     1       1.508  -2.276   2.395  0.00  0.00    -0.264 N 
ATOM      4  C   UNL     1       2.087  -1.402   3.425  0.00  0.00    +0.130 C 
ATOM      5  C   UNL     1       1.506  -1.798   4.788  0.00  0.00    +0.128 C 
ATOM      6  N   UNL     1       1.628  -3.255   4.945  0.00  0.00    -0.283 N 
ATOM      7  C   UNL     1       1.049  -4.129   3.915  0.00  0.00    +0.128 C 
ATOM      8  C   UNL     1       1.625  -3.732   2.555  0.00  0.00    +0.130 C 
ATOM      9  C   UNL     1       2.260  -3.779   6.013  0.00  0.00    +0.302 C 
ATOM     10  O   UNL     1       2.822  -3.049   6.806  0.00  0.00    -0.253 OA
ATOM     11  N   UNL     1       2.268  -5.113   6.203  0.00  0.00    -0.301 N 
ATOM     12  H   UNL     1       1.883  -5.701   5.535  0.00  0.00    +0.150 HD
ENDROOT
BRANCH   1  13
ATOM     13  O   UNL     1       0.776  -0.416   1.192  0.00  0.00    -0.451 OA
BRANCH  13  15
ATOM     14  C   UNL     1       0.081   1.601   0.056  0.00  0.00    +0.048 C 
ATOM     15  C   UNL     1       0.094   0.071   0.035  0.00  0.00    +0.230 C 
ENDBRANCH  13  15
ENDBRANCH   1  13
BRANCH  11  16
ATOM     16  C   UNL     1       2.860  -5.676   7.420  0.00  0.00    +0.094 C 
BRANCH  16  17
ATOM     17  C   UNL     1       2.855  -7.204   7.329  0.00  0.00    -0.050 C 
ATOM     18  C   UNL     1       1.406  -7.731   7.377  0.00  0.00    -0.010 C 
ATOM     19  C   UNL     1       1.505  -9.038   8.203  0.00  0.00    -0.001 C 
ATOM     20  C   UNL     1       2.550  -8.678   9.288  0.00  0.00    -0.001 C 
ATOM     21  C   UNL     1       3.582  -7.806   8.544  0.00  0.00    -0.010 C 
BRANCH  17  22
ATOM     22  N   UNL     1       3.509  -7.636   6.087  0.00  0.00    +0.381 N 
ATOM     23  C   UNL     1       4.924  -7.244   6.116  0.00  0.00    -0.096 C 
ATOM     24  C   UNL     1       3.408  -9.096   5.963  0.00  0.00    -0.096 C 
ATOM     25  H   UNL     1       3.054  -7.200   5.298  0.00  0.00    -0.082 HD
ENDBRANCH  17  22
ENDBRANCH  16  17
ENDBRANCH  11  16
TORSDOF 5
