REMARK  Name = ZINC12712888
REMARK  13 active torsions:
REMARK  status: ('A' for Active; 'I' for Inactive)
REMARK    1  A    between atoms: C_1  and  C_2
REMARK    2  A    between atoms: C_2  and  C_3
REMARK    3  A    between atoms: C_3  and  C_4
REMARK    4  A    between atoms: C_3  and  C_5
REMARK    5  A    between atoms: C_3  and  N_6
REMARK    6  A    between atoms: C_7  and  C_11
REMARK    7  A    between atoms: C_11  and  C_13
REMARK    8  A    between atoms: C_11  and  N_67
REMARK    9  A    between atoms: C_17  and  O_27
REMARK   10  A    between atoms: C_18  and  O_25
REMARK   11  A    between atoms: O_25  and  C_26
REMARK   12  A    between atoms: O_27  and  C_28
REMARK   13  A    between atoms: C_32  and  C_35
REMARK                            x       y       z     vdW  Elec       q    Type
REMARK                         _______ _______ _______ _____ _____    ______ ____
ROOT
ATOM      1  C   UNL     1      -0.196   1.038   4.852  0.00  0.00    +0.039 C 
ENDROOT
BRANCH   1   2
ATOM      2  C   UNL     1       1.159   1.661   4.635  0.00  0.00    +0.011 A 
ATOM      3  C   UNL     1       2.267   0.878   4.608  0.00  0.00    +0.017 A 
ATOM      4  C   UNL     1       3.567   1.513   4.395  0.00  0.00    +0.002 A 
ATOM      5  C   UNL     1       4.744   0.754   4.359  0.00  0.00    +0.059 A 
ATOM      6  C   UNL     1       5.953   1.381   4.157  0.00  0.00    +0.162 A 
ATOM      7  C   UNL     1       6.008   2.769   3.987  0.00  0.00    +0.163 A 
ATOM      8  C   UNL     1       4.853   3.527   4.021  0.00  0.00    +0.075 A 
ATOM      9  C   UNL     1       3.625   2.910   4.225  0.00  0.00    +0.053 A 
ATOM     10  N   UNL     1       2.460   3.649   4.262  0.00  0.00    -0.322 N 
ATOM     11  H   UNL     1       2.500   4.611   4.145  0.00  0.00    +0.169 HD
ATOM     12  C   UNL     1       1.269   3.055   4.454  0.00  0.00    +0.251 A 
ATOM     13  O   UNL     1       0.260   3.739   4.476  0.00  0.00    -0.268 OA
BRANCH   7  14
ATOM     14  O   UNL     1       7.207   3.376   3.789  0.00  0.00    -0.491 OA
ATOM     15  C   UNL     1       7.196   4.795   3.623  0.00  0.00    +0.277 C 
ENDBRANCH   7  14
BRANCH   6  16
ATOM     16  O   UNL     1       7.099   0.648   4.121  0.00  0.00    -0.491 OA
ATOM     17  C   UNL     1       6.971  -0.764   4.301  0.00  0.00    +0.277 C 
ENDBRANCH   6  16
ENDBRANCH   1   2
BRANCH   1  24
ATOM     18  C   UNL     1      -0.495   1.105   2.450  0.00  0.00    -0.077 C 
ATOM     19  C   UNL     1      -1.388   1.648   1.332  0.00  0.00    -0.018 C 
ATOM     20  C   UNL     1      -2.778   1.014   1.444  0.00  0.00    -0.001 C 
ATOM     21  C   UNL     1      -3.359   1.318   2.827  0.00  0.00    -0.031 C 
ATOM     22  C   UNL     1      -2.408   0.785   3.902  0.00  0.00    -0.074 C 
ATOM     23  C   UNL     1      -4.722   0.638   2.969  0.00  0.00    +0.005 C 
ATOM     24  N   UNL     1      -1.097   1.451   3.756  0.00  0.00    +0.389 N 
ATOM     25  H   UNL     1      -1.232   2.468   3.801  0.00  0.00    -0.080 HD
ENDBRANCH   1  24
BRANCH   1  27
ATOM     26  N   UNL     1      -0.965   0.788   7.271  0.00  0.00    -0.225 N 
ATOM     27  C   UNL     1      -0.768   1.522   6.160  0.00  0.00    +0.143 A 
ATOM     28  N   UNL     1      -1.175   2.737   6.434  0.00  0.00    -0.115 NA
ATOM     29  N   UNL     1      -1.595   2.751   7.652  0.00  0.00    -0.023 NA
ATOM     30  N   UNL     1      -1.466   1.576   8.162  0.00  0.00    -0.043 NA
BRANCH  26  31
ATOM     31  C   UNL     1      -0.662  -0.635   7.439  0.00  0.00    +0.061 C 
ATOM     32  C   UNL     1      -1.503  -1.454   6.457  0.00  0.00    +0.036 C 
ATOM     33  C   UNL     1       0.823  -0.877   7.164  0.00  0.00    +0.036 C 
BRANCH  31  35
ATOM     34  C   UNL     1      -0.676  -2.548   9.046  0.00  0.00    +0.006 C 
ATOM     35  C   UNL     1      -0.992  -1.061   8.871  0.00  0.00    +0.026 C 
ENDBRANCH  31  35
ENDBRANCH  26  31
ENDBRANCH   1  27
TORSDOF 7
