REMARK  Name = ZINC51169830
REMARK  3 active torsions:
REMARK  status: ('A' for Active; 'I' for Inactive)
REMARK    1  A    between atoms: C_7  and  N_15
REMARK    2  A    between atoms: C_9  and  C_11
REMARK    3  A    between atoms: N_15  and  N_16
REMARK                            x       y       z     vdW  Elec       q    Type
REMARK                         _______ _______ _______ _____ _____    ______ ____
ROOT
ATOM      1  C   UNL     1      -0.017   1.397   0.010  0.00  0.00    +0.027 A 
ATOM      2  C   UNL     1       1.159   2.088   0.002  0.00  0.00    +0.021 A 
ATOM      3  C   UNL     1       2.380   1.419  -0.013  0.00  0.00    +0.055 A 
ATOM      4  C   UNL     1       2.434   0.057  -0.022  0.00  0.00    +0.150 A 
ATOM      5  C   UNL     1       1.240  -0.689  -0.014  0.00  0.00    +0.109 A 
ATOM      6  C   UNL     1       0.002  -0.004   0.002  0.00  0.00    +0.026 A 
ATOM      7  C   UNL     1      -1.197  -0.757   0.009  0.00  0.00    +0.052 A 
ATOM      8  C   UNL     1      -1.095  -2.139   0.000  0.00  0.00    +0.057 A 
ATOM      9  C   UNL     1       0.159  -2.736  -0.015  0.00  0.00    +0.146 A 
ATOM     10  N   UNL     1       1.264  -2.027  -0.022  0.00  0.00    -0.240 NA
ATOM     11  F   UNL     1       3.628  -0.575  -0.038  0.00  0.00    -0.203 F 
ATOM     12 BR   UNL     1       1.130   3.979   0.013  0.00  0.00    -0.050 Br
ENDROOT
BRANCH   9  13
ATOM     13  C   UNL     1       0.254  -4.240  -0.024  0.00  0.00    +0.434 C 
ATOM     14  F   UNL     1       0.271  -4.697  -1.346  0.00  0.00    -0.164 F 
ATOM     15  F   UNL     1       1.429  -4.637   0.622  0.00  0.00    -0.164 F 
ATOM     16  F   UNL     1      -0.851  -4.781   0.642  0.00  0.00    -0.164 F 
ENDBRANCH   9  13
BRANCH   7  17
ATOM     17  N   UNL     1      -2.434  -0.131   0.025  0.00  0.00    -0.282 N 
ATOM     18  H   UNL     1      -2.488   0.837   0.031  0.00  0.00    +0.166 HD
BRANCH  17  19
ATOM     19  N   UNL     1      -3.578  -0.879   0.031  0.00  0.00    -0.256 NA
ATOM     20  H   UNL     1      -4.396  -0.288   0.042  0.00  0.00    +0.140 HD
ATOM     21  H   UNL     1      -3.600  -1.512  -0.754  0.00  0.00    +0.140 HD
ENDBRANCH  17  19
ENDBRANCH   7  17
TORSDOF 3
