REMARK  Name = ZINC67305288
REMARK  11 active torsions:
REMARK  status: ('A' for Active; 'I' for Inactive)
REMARK    1  A    between atoms: C_1  and  C_2
REMARK    2  A    between atoms: C_3  and  C_9
REMARK    3  A    between atoms: C_4  and  C_8
REMARK    4  A    between atoms: N_5  and  C_7
REMARK    5  A    between atoms: C_9  and  C_11
REMARK    6  A    between atoms: C_9  and  N_12
REMARK    7  A    between atoms: C_13  and  C_15
REMARK    8  A    between atoms: C_15  and  C_17
REMARK    9  A    between atoms: C_18  and  C_24
REMARK   10  A    between atoms: N_20  and  C_23
REMARK   11  A    between atoms: C_21  and  C_22
REMARK                            x       y       z     vdW  Elec       q    Type
REMARK                         _______ _______ _______ _____ _____    ______ ____
ROOT
ATOM      1  N   UNL     1       0.959   0.757  -2.720  0.00  0.00    -0.302 N 
ATOM      2  C   UNL     1       1.493   1.010  -3.932  0.00  0.00    +0.285 C 
ATOM      3  O   UNL     1       1.175   0.334  -4.888  0.00  0.00    -0.267 OA
ATOM      4  H   UNL     1       1.213   1.298  -1.956  0.00  0.00    +0.150 HD
ENDROOT
BRANCH   1   5
ATOM      5  C   UNL     1      -0.005  -0.334  -2.558  0.00  0.00    +0.104 C 
ATOM      6  C   UNL     1      -1.407   0.167  -2.909  0.00  0.00    +0.033 C 
BRANCH   5   9
ATOM      7  C   UNL     1       0.003   1.504   0.023  0.00  0.00    +0.068 C 
ATOM      8  C   UNL     1       0.018  -0.003   0.010  0.00  0.00    +0.065 A 
ATOM      9  C   UNL     1       0.015  -0.813  -1.129  0.00  0.00    +0.016 A 
ATOM     10  C   UNL     1       0.032  -2.104  -0.722  0.00  0.00    +0.041 A 
ATOM     11  N   UNL     1       0.045  -2.109   0.627  0.00  0.00    -0.271 N 
ATOM     12  N   UNL     1       0.041  -0.778   1.064  0.00  0.00    -0.176 NA
ATOM     13  C   UNL     1       0.065  -3.297   1.484  0.00  0.00    +0.172 C 
ATOM     14  C   UNL     1       0.035  -3.317  -1.616  0.00  0.00    +0.065 C 
ENDBRANCH   5   9
ENDBRANCH   1   5
BRANCH   2  15
ATOM     15  C   UNL     1       2.475   2.122  -4.097  0.00  0.00    +0.251 C 
ATOM     16  O   UNL     1       2.722   2.858  -3.164  0.00  0.00    -0.282 OA
BRANCH  15  17
ATOM     17  C   UNL     1       3.144   2.325  -5.389  0.00  0.00    +0.070 A 
ATOM     18  C   UNL     1       2.740   3.212  -6.416  0.00  0.00    +0.071 A 
ATOM     19  N   UNL     1       3.589   3.104  -7.399  0.00  0.00    -0.176 NA
ATOM     20  N   UNL     1       4.563   2.159  -7.059  0.00  0.00    -0.271 N 
ATOM     21  C   UNL     1       4.294   1.690  -5.832  0.00  0.00    +0.047 A 
ATOM     22  C   UNL     1       5.091   0.659  -5.076  0.00  0.00    +0.066 C 
ATOM     23  C   UNL     1       5.692   1.754  -7.901  0.00  0.00    +0.172 C 
ATOM     24  C   UNL     1       1.539   4.122  -6.379  0.00  0.00    +0.068 C 
ENDBRANCH  15  17
ENDBRANCH   2  15
TORSDOF 4
