REMARK  Name = ZINC38520178
REMARK  3 active torsions:
REMARK  status: ('A' for Active; 'I' for Inactive)
REMARK    1  A    between atoms: C_1  and  N_2
REMARK    2  A    between atoms: C_8  and  C_10
REMARK    3  A    between atoms: C_18  and  C_24
REMARK                            x       y       z     vdW  Elec       q    Type
REMARK                         _______ _______ _______ _____ _____    ______ ____
ROOT
ATOM      1  C   UNL     1      -0.018   1.461   0.010  0.00  0.00    +0.174 C 
ATOM      2  N   UNL     1       0.002  -0.004   0.002  0.00  0.00    -0.251 N 
ATOM      3  C   UNL     1       0.008  -0.791  -1.090  0.00  0.00    +0.129 A 
ATOM      4  C   UNL     1       0.041  -2.092  -0.665  0.00  0.00    +0.042 A 
ATOM      5  C   UNL     1       0.041  -2.089   0.727  0.00  0.00    +0.153 A 
ATOM      6  N   UNL     1       0.025  -0.837   1.132  0.00  0.00    -0.154 NA
ATOM      7  N   UNL     1       0.063  -3.221   1.552  0.00  0.00    -0.265 N 
ATOM      8  C   UNL     1       0.061  -3.078   2.892  0.00  0.00    +0.251 C 
ATOM      9  O   UNL     1       0.041  -1.967   3.385  0.00  0.00    -0.270 OA
ATOM     10  C   UNL     1       0.078  -3.254  -1.626  0.00  0.00    +0.071 C 
ATOM     11  C   UNL     1      -0.624  -2.831  -2.920  0.00  0.00    +0.109 C 
ATOM     12  C   UNL     1      -0.204  -1.450  -3.340  0.00  0.00    +0.219 C 
ATOM     13  O   UNL     1      -0.043  -1.218  -4.520  0.00  0.00    -0.275 OA
ATOM     14  N   UNL     1       0.001  -0.461  -2.445  0.00  0.00    -0.270 N 
ATOM     15  H   UNL     1       0.079  -4.108   1.158  0.00  0.00    +0.157 HD
ATOM     16  H   UNL     1       0.139   0.454  -2.736  0.00  0.00    +0.156 HD
ENDROOT
BRANCH   8  17
ATOM     17  C   UNL     1       0.084  -4.272   3.762  0.00  0.00    +0.056 A 
ATOM     18  C   UNL     1       0.113  -5.550   3.199  0.00  0.00    +0.029 A 
ATOM     19  C   UNL     1       0.134  -6.660   4.018  0.00  0.00    +0.019 A 
ATOM     20  C   UNL     1       0.126  -6.511   5.394  0.00  0.00    +0.017 A 
ATOM     21  C   UNL     1       0.097  -5.249   5.959  0.00  0.00    +0.022 A 
ATOM     22  C   UNL     1       0.082  -4.128   5.151  0.00  0.00    +0.053 A 
ATOM     23 CL   UNL     1       0.054  -2.544   5.862  0.00  0.00    -0.083 Cl
ATOM     24 BR   UNL     1       0.173  -8.391   3.257  0.00  0.00    -0.050 Br
ENDBRANCH   8  17
BRANCH  10  25
ATOM     25  C   UNL     1      -0.638  -4.435  -1.022  0.00  0.00    -0.002 A 
ATOM     26  C   UNL     1      -0.156  -5.669  -0.734  0.00  0.00    +0.012 A 
ATOM     27  C   UNL     1      -1.005  -6.606  -0.175  0.00  0.00    +0.008 A 
ATOM     28  C   UNL     1      -2.294  -6.264   0.067  0.00  0.00    +0.045 A 
ATOM     29  S   UNL     1      -2.338  -4.570  -0.494  0.00  0.00    -0.101 S 
ENDBRANCH  10  25
TORSDOF 2
