REMARK  Name = ZINC59883312
REMARK  8 active torsions:
REMARK  status: ('A' for Active; 'I' for Inactive)
REMARK    1  A    between atoms: C_1  and  C_2
REMARK    2  A    between atoms: C_2  and  C_4
REMARK    3  A    between atoms: C_2  and  S_11
REMARK    4  A    between atoms: N_6  and  N_7
REMARK    5  A    between atoms: C_8  and  C_10
REMARK    6  A    between atoms: S_11  and  C_12
REMARK    7  A    between atoms: C_15  and  C_18
REMARK    8  A    between atoms: N_16  and  N_17
REMARK                            x       y       z     vdW  Elec       q    Type
REMARK                         _______ _______ _______ _____ _____    ______ ____
ROOT
ATOM      1  C   UNL     1       2.533  -0.042   1.241  0.00  0.00    +0.209 A 
ATOM      2  N   UNL     1       2.984   0.657   0.223  0.00  0.00    -0.121 NA
ATOM      3  N   UNL     1       4.237   0.898   0.374  0.00  0.00    -0.127 NA
ATOM      4  C   UNL     1       4.663   0.368   1.496  0.00  0.00    +0.182 A 
ATOM      5  N   UNL     1       3.584  -0.246   2.089  0.00  0.00    -0.224 N 
ENDROOT
BRANCH   4   6
ATOM      6  C   UNL     1       6.042   0.425   2.027  0.00  0.00    +0.021 A 
ATOM      7  C   UNL     1       6.434  -0.436   3.053  0.00  0.00    +0.013 A 
ATOM      8  C   UNL     1       7.722  -0.378   3.544  0.00  0.00    +0.021 A 
ATOM      9  C   UNL     1       8.625   0.531   3.021  0.00  0.00    +0.041 A 
ATOM     10  C   UNL     1       8.242   1.388   2.002  0.00  0.00    +0.021 A 
ATOM     11  C   UNL     1       6.959   1.336   1.499  0.00  0.00    +0.013 A 
ATOM     12 CL   UNL     1      10.244   0.598   3.643  0.00  0.00    -0.084 Cl
ENDBRANCH   4   6
BRANCH   5  13
ATOM     13  N   UNL     1       3.568  -0.922   3.276  0.00  0.00    -0.295 N 
ATOM     14  H   UNL     1       3.773  -1.900   3.138  0.00  0.00    +0.163 HD
ATOM     15  H   UNL     1       4.208  -0.507   3.936  0.00  0.00    +0.163 HD
ENDBRANCH   5  13
BRANCH   1  16
ATOM     16  S   UNL     1       0.879  -0.605   1.472  0.00  0.00    -0.072 S 
BRANCH  16  18
ATOM     17  C   UNL     1      -0.019   1.526   0.010  0.00  0.00    +0.029 C 
ATOM     18  C   UNL     1       0.002  -0.004   0.002  0.00  0.00    +0.138 C 
BRANCH  18  19
ATOM     19  C   UNL     1      -1.412  -0.526   0.013  0.00  0.00    +0.242 C 
ATOM     20  O   UNL     1      -1.939  -0.827   1.062  0.00  0.00    -0.273 OA
ATOM     21  N   UNL     1      -2.090  -0.657  -1.144  0.00  0.00    -0.233 N 
ATOM     22  H   UNL     1      -1.669  -0.416  -1.984  0.00  0.00    +0.173 HD
BRANCH  21  23
ATOM     23  N   UNL     1      -3.405  -1.142  -1.134  0.00  0.00    -0.235 N 
ATOM     24  C   UNL     1      -4.083  -1.274  -2.291  0.00  0.00    +0.226 C 
ATOM     25  O   UNL     1      -3.556  -0.972  -3.341  0.00  0.00    -0.275 OA
ATOM     26  C   UNL     1      -5.497  -1.795  -2.281  0.00  0.00    +0.110 C 
ATOM     27  H   UNL     1      -3.826  -1.383  -0.295  0.00  0.00    +0.173 HD
ENDBRANCH  21  23
ENDBRANCH  18  19
ENDBRANCH  16  18
ENDBRANCH   1  16
TORSDOF 6
