REMARK  Name = ZINC04110814
REMARK  4 active torsions:
REMARK  status: ('A' for Active; 'I' for Inactive)
REMARK    1  A    between atoms: C_1  and  C_2
REMARK    2  A    between atoms: C_2  and  N_9
REMARK    3  A    between atoms: N_12  and  C_13
REMARK    4  A    between atoms: C_13  and  C_20
REMARK                            x       y       z     vdW  Elec       q    Type
REMARK                         _______ _______ _______ _____ _____    ______ ____
ROOT
ATOM      1  N   UNL     1      -2.085   1.025   1.281  0.00  0.00    -0.293 N 
ATOM      2  C   UNL     1      -2.933   1.293   0.269  0.00  0.00    +0.301 C 
ATOM      3  O   UNL     1      -2.573   1.995  -0.656  0.00  0.00    -0.253 OA
ATOM      4  N   UNL     1      -4.181   0.783   0.282  0.00  0.00    -0.293 N 
ATOM      5  H   UNL     1      -2.372   0.465   2.020  0.00  0.00    +0.151 HD
ATOM      6  H   UNL     1      -4.468   0.223   1.021  0.00  0.00    +0.151 HD
ENDROOT
BRANCH   1   8
ATOM      7  C   UNL     1      -0.013   1.086   0.008  0.00  0.00    +0.033 C 
ATOM      8  C   UNL     1      -0.729   1.579   1.267  0.00  0.00    +0.054 C 
ATOM      9  C   UNL     1      -0.827   3.103   1.209  0.00  0.00    +0.049 C 
ATOM     10  C   UNL     1      -0.864   3.696   2.645  0.00  0.00    +0.168 C 
ATOM     11  S   UNL     1       0.368   2.592   3.466  0.00  0.00    -0.029 S 
ATOM     12  O   UNL     1      -0.015   2.388   4.819  0.00  0.00    -0.174 OA
ATOM     13  O   UNL     1       1.679   3.052   3.168  0.00  0.00    -0.174 OA
ATOM     14  C   UNL     1       0.030   1.059   2.503  0.00  0.00    +0.191 C 
ENDBRANCH   1   8
BRANCH   4  15
ATOM     15  C   UNL     1      -5.103   1.074  -0.818  0.00  0.00    +0.054 C 
ATOM     16  C   UNL     1      -4.479   0.582  -2.123  0.00  0.00    +0.049 C 
ATOM     17  C   UNL     1      -4.892  -0.886  -2.403  0.00  0.00    +0.168 C 
ATOM     18  S   UNL     1      -6.655  -0.817  -1.856  0.00  0.00    -0.029 S 
ATOM     19  O   UNL     1      -7.019  -2.070  -1.292  0.00  0.00    -0.174 OA
ATOM     20  O   UNL     1      -7.445  -0.257  -2.896  0.00  0.00    -0.174 OA
ATOM     21  C   UNL     1      -6.464   0.422  -0.507  0.00  0.00    +0.191 C 
ATOM     22  C   UNL     1      -5.295   2.590  -0.907  0.00  0.00    +0.033 C 
ENDBRANCH   4  15
TORSDOF 2
