REMARK  Name = ZINC62200997
REMARK  8 active torsions:
REMARK  status: ('A' for Active; 'I' for Inactive)
REMARK    1  A    between atoms: C_1  and  C_2
REMARK    2  A    between atoms: C_6  and  C_9
REMARK    3  A    between atoms: C_7  and  C_8
REMARK    4  A    between atoms: C_9  and  C_10
REMARK    5  A    between atoms: C_10  and  C_12
REMARK    6  A    between atoms: C_10  and  N_13
REMARK    7  A    between atoms: C_17  and  C_18
REMARK    8  A    between atoms: C_17  and  C_19
REMARK                            x       y       z     vdW  Elec       q    Type
REMARK                         _______ _______ _______ _____ _____    ______ ____
ROOT
ATOM      1  C   UNL     1      -0.018   1.503   0.010  0.00  0.00    +0.044 C 
ATOM      2  C   UNL     1       0.002  -0.004   0.002  0.00  0.00    -0.047 A 
ATOM      3  C   UNL     1       0.006  -0.692  -1.200  0.00  0.00    +0.010 A 
ATOM      4  C   UNL     1       0.024  -2.068  -1.203  0.00  0.00    -0.011 A 
ATOM      5  C   UNL     1       0.040  -2.782  -0.011  0.00  0.00    +0.041 A 
ATOM      6  C   UNL     1       0.035  -2.083   1.194  0.00  0.00    -0.024 A 
ATOM      7  C   UNL     1       0.023  -0.704   1.194  0.00  0.00    -0.043 A 
ATOM      8  C   UNL     1       0.026   0.045   2.502  0.00  0.00    +0.044 C 
ATOM      9  N   UNL     1       0.058  -4.153  -0.271  0.00  0.00    -0.284 N 
ATOM     10  C   UNL     1       0.056  -4.421  -1.588  0.00  0.00    +0.227 C 
ATOM     11  O   UNL     1       0.068  -5.521  -2.099  0.00  0.00    -0.275 OA
ATOM     12  C   UNL     1       0.034  -3.093  -2.313  0.00  0.00    +0.068 C 
ATOM     13  C   UNL     1      -1.229  -2.970  -3.168  0.00  0.00    +0.025 C 
ATOM     14  C   UNL     1       1.286  -2.934  -3.179  0.00  0.00    +0.025 C 
ATOM     15  H   UNL     1       0.070  -4.834   0.419  0.00  0.00    +0.155 HD
ENDROOT
BRANCH   6  16
ATOM     16  C   UNL     1       0.051  -2.836   2.499  0.00  0.00    +0.021 C 
BRANCH  16  17
ATOM     17  C   UNL     1       1.498  -3.070   2.936  0.00  0.00    -0.074 C 
ATOM     18  C   UNL     1       1.515  -3.723   4.319  0.00  0.00    -0.014 C 
BRANCH  17  19
ATOM     19  N   UNL     1       2.163  -3.954   1.969  0.00  0.00    +0.380 N 
ATOM     20  H   UNL     1       2.153  -3.524   1.057  0.00  0.00    -0.090 HD
ATOM     21  H   UNL     1       3.118  -4.109   2.257  0.00  0.00    -0.090 HD
ATOM     22  H   UNL     1       1.677  -4.837   1.931  0.00  0.00    -0.090 HD
ENDBRANCH  17  19
ENDBRANCH  16  17
ENDBRANCH   6  16
TORSDOF 3
