REMARK  Name = ZINC40450520
REMARK  3 active torsions:
REMARK  status: ('A' for Active; 'I' for Inactive)
REMARK    1  A    between atoms: N_15  and  S_17
REMARK    2  A    between atoms: S_17  and  C_20
REMARK    3  A    between atoms: C_30  and  C_32
REMARK                            x       y       z     vdW  Elec       q    Type
REMARK                         _______ _______ _______ _____ _____    ______ ____
ROOT
ATOM      1  S   UNL     1       3.326   0.500   3.396  0.00  0.00    +0.062 S 
ATOM      2  O   UNL     1       3.938  -0.588   4.074  0.00  0.00    -0.153 OA
ATOM      3  O   UNL     1       3.089   1.753   4.024  0.00  0.00    -0.153 OA
ENDROOT
BRANCH   1  16
ATOM      4  C   UNL     1       7.828  -0.652   4.732  0.00  0.00    +0.007 A 
ATOM      5  C   UNL     1       7.436  -0.751   3.393  0.00  0.00    +0.022 A 
ATOM      6  C   UNL     1       6.938   0.330   2.736  0.00  0.00    +0.026 A 
ATOM      7  N   UNL     1       6.868   1.533   3.352  0.00  0.00    -0.312 N 
ATOM      8  C   UNL     1       7.147   1.632   4.675  0.00  0.00    +0.251 A 
ATOM      9  O   UNL     1       6.938   2.683   5.259  0.00  0.00    -0.268 OA
ATOM     10  C   UNL     1       7.673   0.539   5.378  0.00  0.00    +0.070 A 
ATOM     11  C   UNL     1       6.556   2.776   2.644  0.00  0.00    +0.130 C 
ATOM     12  C   UNL     1       5.843   2.529   1.328  0.00  0.00    +0.025 C 
ATOM     13  C   UNL     1       6.570   1.439   0.540  0.00  0.00    +0.017 C 
ATOM     14  C   UNL     1       6.460   0.125   1.318  0.00  0.00    +0.052 C 
ATOM     15  C   UNL     1       4.976  -0.278   1.378  0.00  0.00    +0.119 C 
ATOM     16  N   UNL     1       4.255   0.809   2.060  0.00  0.00    -0.176 NA
ATOM     17  C   UNL     1       4.382   2.155   1.532  0.00  0.00    +0.114 C 
ENDBRANCH   1  16
BRANCH   1  18
ATOM     18  C   UNL     1       1.764  -0.079   2.821  0.00  0.00    +0.121 A 
ATOM     19  C   UNL     1       1.381  -1.381   3.067  0.00  0.00    +0.053 A 
ATOM     20  C   UNL     1       0.146  -1.848   2.616  0.00  0.00    +0.041 A 
ATOM     21  C   UNL     1      -0.687  -0.986   1.920  0.00  0.00    -0.023 A 
ATOM     22  C   UNL     1      -0.300   0.317   1.675  0.00  0.00    +0.022 A 
ATOM     23  C   UNL     1       0.924   0.775   2.131  0.00  0.00    +0.045 A 
ATOM     24 BR   UNL     1       1.448   2.562   1.803  0.00  0.00    -0.048 Br
ATOM     25  C   UNL     1      -1.949  -1.732   1.548  0.00  0.00    +0.056 C 
ATOM     26  C   UNL     1      -1.746  -3.145   2.119  0.00  0.00    +0.118 C 
ATOM     27  N   UNL     1      -0.427  -3.116   2.757  0.00  0.00    -0.271 N 
ATOM     28  C   UNL     1       0.149  -4.159   3.388  0.00  0.00    +0.223 C 
ATOM     29  O   UNL     1       1.248  -4.034   3.886  0.00  0.00    -0.275 OA
BRANCH  28  30
ATOM     30  C   UNL     1      -0.572  -5.479   3.474  0.00  0.00    +0.076 C 
ATOM     31  C   UNL     1      -1.063  -5.927   4.852  0.00  0.00    +0.013 C 
ATOM     32  C   UNL     1       0.134  -6.624   4.203  0.00  0.00    +0.013 C 
ENDBRANCH  28  30
ENDBRANCH   1  18
TORSDOF 3
