REMARK  Name = ZINC05001602
REMARK  8 active torsions:
REMARK  status: ('A' for Active; 'I' for Inactive)
REMARK    1  A    between atoms: C_1  and  N_2
REMARK    2  A    between atoms: C_3  and  C_15
REMARK    3  A    between atoms: C_6  and  S_7
REMARK    4  A    between atoms: S_7  and  C_8
REMARK    5  A    between atoms: C_8  and  C_9
REMARK    6  A    between atoms: C_9  and  N_10
REMARK    7  A    between atoms: N_20  and  C_21
REMARK    8  A    between atoms: C_21  and  C_22
REMARK                            x       y       z     vdW  Elec       q    Type
REMARK                         _______ _______ _______ _____ _____    ______ ____
ROOT
ATOM      1  C   UNL     1      -0.129  -0.296  -2.516  0.00  0.00    +0.002 C 
ATOM      2  C   UNL     1       1.337  -0.333  -2.997  0.00  0.00    -0.009 C 
ATOM      3  C   UNL     1       1.220  -0.922  -4.427  0.00  0.00    -0.020 C 
ATOM      4  C   UNL     1       0.061  -1.935  -4.255  0.00  0.00    -0.077 C 
ATOM      5  N   UNL     1      -0.881  -1.276  -3.320  0.00  0.00    +0.392 N 
ATOM      6  H   UNL     1      -1.606  -0.805  -3.840  0.00  0.00    -0.080 HD
ENDROOT
BRANCH   1   9
ATOM      7  C   UNL     1      -1.417   1.382  -0.188  0.00  0.00    +0.152 C 
ATOM      8  N   UNL     1      -0.765   0.076  -0.058  0.00  0.00    -0.310 N 
ATOM      9  C   UNL     1      -0.200  -0.667  -1.057  0.00  0.00    +0.120 A 
ATOM     10  N   UNL     1       0.266  -1.756  -0.514  0.00  0.00    -0.135 NA
ATOM     11  N   UNL     1       0.036  -1.752   0.751  0.00  0.00    -0.123 NA
ATOM     12  C   UNL     1      -0.591  -0.648   1.086  0.00  0.00    +0.191 A 
BRANCH  12  13
ATOM     13  S   UNL     1      -1.111  -0.190   2.706  0.00  0.00    -0.088 S 
BRANCH  13  14
ATOM     14  C   UNL     1      -0.576  -1.576   3.747  0.00  0.00    +0.059 C 
BRANCH  14  15
ATOM     15  C   UNL     1      -0.971  -1.304   5.200  0.00  0.00    -0.068 C 
BRANCH  15  16
ATOM     16  N   UNL     1      -0.538  -2.426   6.043  0.00  0.00    +0.380 N 
ATOM     17  C   UNL     1       0.944  -2.461   6.128  0.00  0.00    -0.079 C 
ATOM     18  C   UNL     1       1.207  -3.267   7.425  0.00  0.00    -0.020 C 
ATOM     19  C   UNL     1       0.077  -2.788   8.364  0.00  0.00    -0.020 C 
ATOM     20  C   UNL     1      -1.016  -2.236   7.430  0.00  0.00    -0.079 C 
ATOM     21  H   UNL     1      -0.887  -3.296   5.671  0.00  0.00    -0.082 HD
ENDBRANCH  15  16
ENDBRANCH  14  15
ENDBRANCH  13  14
ENDBRANCH  12  13
ENDBRANCH   1   9
BRANCH   5  22
ATOM     22  C   UNL     1      -1.485  -2.282  -2.435  0.00  0.00    +0.020 C 
BRANCH  22  23
ATOM     23  C   UNL     1      -2.380  -3.188  -3.241  0.00  0.00    +0.199 C 
ATOM     24  O   UNL     1      -2.502  -3.013  -4.436  0.00  0.00    -0.278 OA
ATOM     25  N   UNL     1      -3.044  -4.192  -2.636  0.00  0.00    -0.303 N 
ATOM     26  C   UNL     1      -2.881  -4.370  -1.210  0.00  0.00    +0.107 C 
ATOM     27  C   UNL     1      -1.682  -5.311  -0.938  0.00  0.00    +0.019 C 
ATOM     28  C   UNL     1      -2.018  -6.691  -1.321  0.00  0.00    +0.002 C 
ATOM     29  C   UNL     1      -2.313  -6.876  -2.806  0.00  0.00    +0.002 C 
ATOM     30  C   UNL     1      -3.762  -6.549  -3.073  0.00  0.00    +0.019 C 
ATOM     31  C   UNL     1      -3.912  -5.061  -3.454  0.00  0.00    +0.107 C 
ENDBRANCH  22  23
ENDBRANCH   5  22
TORSDOF 7
