REMARK  Name = ZINC67448498
REMARK  5 active torsions:
REMARK  status: ('A' for Active; 'I' for Inactive)
REMARK    1  A    between atoms: C_4  and  O_10
REMARK    2  A    between atoms: C_5  and  C_7
REMARK    3  A    between atoms: O_10  and  C_11
REMARK    4  A    between atoms: N_15  and  C_18
REMARK    5  A    between atoms: C_22  and  N_24
REMARK                            x       y       z     vdW  Elec       q    Type
REMARK                         _______ _______ _______ _____ _____    ______ ____
ROOT
ATOM      1  C   UNL     1       4.787   0.198  -0.156  0.00  0.00    +0.261 C 
ATOM      2  C   UNL     1       5.877  -0.553  -0.955  0.00  0.00    +0.073 C 
ATOM      3  C   UNL     1       7.165  -0.108  -0.226  0.00  0.00    +0.118 C 
ATOM      4  N   UNL     1       6.742   0.242   1.136  0.00  0.00    -0.268 N 
ATOM      5  C   UNL     1       5.410   0.428   1.203  0.00  0.00    +0.261 C 
ATOM      6  O   UNL     1       4.799   0.733   2.205  0.00  0.00    -0.271 OA
ENDROOT
BRANCH   4   7
ATOM      7  C   UNL     1       7.612   0.369   2.224  0.00  0.00    +0.039 A 
ATOM      8  C   UNL     1       8.976   0.166   2.053  0.00  0.00    +0.023 A 
ATOM      9  C   UNL     1       9.832   0.292   3.129  0.00  0.00    +0.004 A 
ATOM     10  C   UNL     1       9.333   0.622   4.376  0.00  0.00    +0.033 A 
ATOM     11  C   UNL     1       7.977   0.825   4.550  0.00  0.00    +0.128 A 
ATOM     12  C   UNL     1       7.116   0.705   3.477  0.00  0.00    +0.056 A 
BRANCH  11  13
ATOM     13  N   UNL     1       7.447   1.177   5.887  0.00  0.00    +0.056 N 
ATOM     14  O   UNL     1       8.201   1.286   6.826  0.00  0.00    -0.126 OA
ATOM     15  O   UNL     1       6.261   1.355   6.039  0.00  0.00    -0.126 OA
ENDBRANCH  11  13
ENDBRANCH   4   7
BRANCH   1  16
ATOM     16  O   UNL     1       3.611  -0.606  -0.037  0.00  0.00    -0.479 OA
BRANCH  16  20
ATOM     17  C   UNL     1       0.054   1.371   0.684  0.00  0.00    +0.001 A 
ATOM     18  C   UNL     1       1.250   2.069   0.668  0.00  0.00    +0.004 A 
ATOM     19  C   UNL     1       2.440   1.410   0.427  0.00  0.00    +0.046 A 
ATOM     20  C   UNL     1       2.443   0.042   0.200  0.00  0.00    +0.134 A 
ATOM     21  C   UNL     1       1.235  -0.668   0.216  0.00  0.00    +0.078 A 
ATOM     22  C   UNL     1       0.039   0.011   0.461  0.00  0.00    +0.017 A 
BRANCH  21  23
ATOM     23  C   UNL     1       1.227  -2.123  -0.024  0.00  0.00    +0.245 C 
ATOM     24  O   UNL     1       2.270  -2.711  -0.237  0.00  0.00    -0.270 OA
ATOM     25  N   UNL     1       0.062  -2.802  -0.008  0.00  0.00    -0.325 N 
ATOM     26  H   UNL     1      -0.770  -2.334   0.162  0.00  0.00    +0.145 HD
ATOM     27  H   UNL     1       0.057  -3.759  -0.166  0.00  0.00    +0.145 HD
ENDBRANCH  21  23
ENDBRANCH  16  20
ENDBRANCH   1  16
TORSDOF 5
