REMARK  Name = ZINC63425852
REMARK  10 active torsions:
REMARK  status: ('A' for Active; 'I' for Inactive)
REMARK    1  A    between atoms: C_1  and  O_2
REMARK    2  A    between atoms: O_2  and  C_3
REMARK    3  A    between atoms: C_7  and  N_9
REMARK    4  A    between atoms: C_13  and  N_14
REMARK    5  A    between atoms: N_14  and  C_15
REMARK    6  A    between atoms: C_15  and  C_17
REMARK    7  A    between atoms: C_15  and  C_27
REMARK    8  A    between atoms: C_17  and  C_18
REMARK    9  A    between atoms: C_27  and  O_29
REMARK   10  A    between atoms: O_29  and  C_30
REMARK                            x       y       z     vdW  Elec       q    Type
REMARK                         _______ _______ _______ _____ _____    ______ ____
ROOT
ATOM      1  N   UNL     1      -2.539  -4.068   0.032  0.00  0.00    -0.190 N 
ATOM      2  C   UNL     1      -3.737  -4.677   0.151  0.00  0.00    +0.265 C 
ATOM      3  O   UNL     1      -4.757  -4.027   0.288  0.00  0.00    -0.269 OA
ATOM      4  C   UNL     1      -3.777  -6.149   0.111  0.00  0.00    +0.113 C 
ATOM      5  C   UNL     1      -4.968  -6.842   0.226  0.00  0.00    +0.086 C 
ATOM      6  C   UNL     1      -2.492  -6.851  -0.059  0.00  0.00    +0.258 C 
ATOM      7  O   UNL     1      -2.445  -8.066  -0.102  0.00  0.00    -0.270 OA
ATOM      8  N   UNL     1      -1.370  -6.111  -0.165  0.00  0.00    -0.235 N 
ATOM      9  C   UNL     1      -1.409  -4.771  -0.125  0.00  0.00    +0.320 C 
ATOM     10  O   UNL     1      -0.362  -4.162  -0.232  0.00  0.00    -0.251 OA
ATOM     11  H   UNL     1      -0.516  -6.557  -0.277  0.00  0.00    +0.159 HD
ENDROOT
BRANCH   1  16
ATOM     12  C   UNL     1      -2.668  -0.608   1.283  0.00  0.00    +0.122 A 
ATOM     13  C   UNL     1      -2.350   0.098   0.131  0.00  0.00    +0.046 A 
ATOM     14  C   UNL     1      -2.096  -0.578  -1.047  0.00  0.00    +0.005 A 
ATOM     15  C   UNL     1      -2.158  -1.958  -1.082  0.00  0.00    +0.024 A 
ATOM     16  C   UNL     1      -2.475  -2.669   0.068  0.00  0.00    +0.049 A 
ATOM     17  C   UNL     1      -2.725  -1.992   1.253  0.00  0.00    +0.069 A 
BRANCH  12  19
ATOM     18  C   UNL     1      -2.841   1.485   2.398  0.00  0.00    +0.277 C 
ATOM     19  O   UNL     1      -2.918   0.058   2.441  0.00  0.00    -0.495 OA
ENDBRANCH  12  19
ENDBRANCH   1  16
BRANCH   5  20
ATOM     20  N   UNL     1      -4.960  -8.187   0.322  0.00  0.00    -0.336 N 
ATOM     21  H   UNL     1      -4.117  -8.662   0.391  0.00  0.00    +0.146 HD
BRANCH  20  22
ATOM     22  C   UNL     1      -6.222  -8.929   0.322  0.00  0.00    +0.184 C 
BRANCH  22  23
ATOM     23  C   UNL     1      -6.659  -9.178  -1.098  0.00  0.00    +0.328 C 
ATOM     24  O   UNL     1      -5.985  -8.776  -2.017  0.00  0.00    -0.249 OA
BRANCH  23  25
ATOM     25  O   UNL     1      -7.798  -9.846  -1.343  0.00  0.00    -0.467 OA
ATOM     26  C   UNL     1      -8.151 -10.045  -2.713  0.00  0.00    +0.280 C 
ENDBRANCH  23  25
ENDBRANCH  22  23
BRANCH  22  27
ATOM     27  C   UNL     1      -6.027 -10.268   1.037  0.00  0.00    +0.066 C 
BRANCH  27  28
ATOM     28  C   UNL     1      -5.710 -10.020   2.490  0.00  0.00    -0.039 C 
ATOM     29  C   UNL     1      -6.582 -10.012   3.523  0.00  0.00    -0.001 A 
ATOM     30  C   UNL     1      -8.033 -10.224   3.601  0.00  0.00    +0.010 A 
ATOM     31  C   UNL     1      -8.642 -10.152   4.806  0.00  0.00    +0.001 A 
ATOM     32  C   UNL     1      -7.925  -9.881   5.979  0.00  0.00    +0.002 A 
ATOM     33  C   UNL     1      -6.591  -9.675   5.988  0.00  0.00    +0.026 A 
ATOM     34  C   UNL     1      -5.848  -9.728   4.777  0.00  0.00    +0.043 A 
ATOM     35  N   UNL     1      -4.571  -9.565   4.528  0.00  0.00    -0.380 N 
ATOM     36  C   UNL     1      -4.350  -9.735   3.087  0.00  0.00    +0.144 C 
ATOM     37  H   UNL     1      -3.887  -9.370   5.187  0.00  0.00    +0.160 HD
ENDBRANCH  27  28
ENDBRANCH  22  27
ENDBRANCH  20  22
ENDBRANCH   5  20
TORSDOF 8
