REMARK  Name = ZINC17809199
REMARK  8 active torsions:
REMARK  status: ('A' for Active; 'I' for Inactive)
REMARK    1  A    between atoms: C_1  and  C_2
REMARK    2  A    between atoms: C_2  and  C_3
REMARK    3  A    between atoms: C_2  and  N_4
REMARK    4  A    between atoms: C_5  and  C_7
REMARK    5  A    between atoms: C_7  and  N_8
REMARK    6  A    between atoms: C_9  and  C_11
REMARK    7  A    between atoms: C_14  and  C_16
REMARK    8  A    between atoms: C_19  and  N_23
REMARK                            x       y       z     vdW  Elec       q    Type
REMARK                         _______ _______ _______ _____ _____    ______ ____
ROOT
ATOM      1  C   UNL     1      -5.743  -1.699  -4.112  0.00  0.00    +0.190 A 
ATOM      2  C   UNL     1      -7.000  -2.117  -4.492  0.00  0.00    +0.055 A 
ATOM      3  C   UNL     1      -7.061  -2.000  -5.884  0.00  0.00    +0.051 A 
ATOM      4  C   UNL     1      -5.853  -1.520  -6.300  0.00  0.00    +0.137 A 
ATOM      5  O   UNL     1      -5.069  -1.337  -5.224  0.00  0.00    -0.450 OA
ENDROOT
BRANCH   4   6
ATOM      6  C   UNL     1      -5.472  -1.242  -7.700  0.00  0.00    +0.036 A 
ATOM      7  C   UNL     1      -5.685  -2.205  -8.688  0.00  0.00    +0.015 A 
ATOM      8  C   UNL     1      -5.327  -1.939  -9.994  0.00  0.00    +0.033 A 
ATOM      9  C   UNL     1      -4.759  -0.722 -10.325  0.00  0.00    +0.128 A 
ATOM     10  C   UNL     1      -4.545   0.237  -9.352  0.00  0.00    +0.053 A 
ATOM     11  C   UNL     1      -4.904  -0.012  -8.042  0.00  0.00    +0.054 A 
ATOM     12 CL   UNL     1      -4.641   1.195  -6.822  0.00  0.00    -0.083 Cl
BRANCH   9  13
ATOM     13  N   UNL     1      -4.378  -0.444 -11.729  0.00  0.00    +0.056 N 
ATOM     14  O   UNL     1      -4.563  -1.281 -12.582  0.00  0.00    -0.126 OA
ATOM     15  O   UNL     1      -3.881   0.618 -12.022  0.00  0.00    -0.126 OA
ENDBRANCH   9  13
ENDBRANCH   4   6
BRANCH   1  17
ATOM     16  N   UNL     1      -3.978  -1.213  -2.505  0.00  0.00    -0.300 N 
ATOM     17  C   UNL     1      -5.231  -1.650  -2.741  0.00  0.00    +0.280 C 
ATOM     18  O   UNL     1      -5.936  -2.005  -1.815  0.00  0.00    -0.267 OA
ATOM     19  H   UNL     1      -3.416  -0.931  -3.244  0.00  0.00    +0.150 HD
BRANCH  16  20
ATOM     20  C   UNL     1      -3.465  -1.164  -1.134  0.00  0.00    +0.200 C 
BRANCH  20  22
ATOM     21  N   UNL     1      -1.372  -0.511   0.012  0.00  0.00    -0.312 N 
ATOM     22  C   UNL     1      -2.051  -0.643  -1.145  0.00  0.00    +0.230 C 
ATOM     23  O   UNL     1      -1.524  -0.341  -2.194  0.00  0.00    -0.274 OA
ATOM     24  H   UNL     1      -1.794  -0.752   0.852  0.00  0.00    +0.149 HD
BRANCH  21  26
ATOM     25  C   UNL     1      -0.019   1.526   0.010  0.00  0.00    +0.027 C 
ATOM     26  C   UNL     1       0.002  -0.004   0.002  0.00  0.00    +0.067 C 
ATOM     27  C   UNL     1       0.742  -0.511   1.242  0.00  0.00    +0.027 C 
ENDBRANCH  21  26
ENDBRANCH  20  22
ENDBRANCH  16  20
ENDBRANCH   1  17
TORSDOF 6
