REMARK  Name = ZINC55179147
REMARK  3 active torsions:
REMARK  status: ('A' for Active; 'I' for Inactive)
REMARK    1  A    between atoms: C_1  and  C_2
REMARK    2  A    between atoms: N_6  and  C_10
REMARK    3  A    between atoms: C_10  and  C_11
REMARK                            x       y       z     vdW  Elec       q    Type
REMARK                         _______ _______ _______ _____ _____    ______ ____
ROOT
ATOM      1  C   UNL     1      -2.642  -3.390   1.117  0.00  0.00    -0.014 A 
ATOM      2  C   UNL     1      -3.429  -3.722   0.022  0.00  0.00    +0.010 A 
ATOM      3  C   UNL     1      -3.398  -5.025  -0.442  0.00  0.00    +0.042 A 
ATOM      4  C   UNL     1      -2.584  -5.953   0.200  0.00  0.00    +0.099 A 
ATOM      5  N   UNL     1      -1.848  -5.596   1.242  0.00  0.00    -0.349 N 
ATOM      6  C   UNL     1      -1.854  -4.360   1.702  0.00  0.00    +0.089 A 
ATOM      7  N   UNL     1      -2.543  -7.265  -0.256  0.00  0.00    -0.317 N 
ATOM      8  C   UNL     1      -3.238  -7.596  -1.479  0.00  0.00    +0.106 C 
ATOM      9  C   UNL     1      -4.697  -8.001  -1.154  0.00  0.00    +0.019 C 
ATOM     10  C   UNL     1      -4.728  -9.313  -0.491  0.00  0.00    +0.002 C 
ATOM     11  C   UNL     1      -4.016  -9.353   0.858  0.00  0.00    +0.002 C 
ATOM     12  C   UNL     1      -2.544  -9.602   0.639  0.00  0.00    +0.019 C 
ATOM     13  C   UNL     1      -1.786  -8.262   0.527  0.00  0.00    +0.106 C 
ATOM     14  H   UNL     1      -1.288  -6.260   1.674  0.00  0.00    +0.167 HD
ENDROOT
BRANCH   1  15
ATOM     15  C   UNL     1      -2.645  -1.983   1.657  0.00  0.00    +0.152 C 
BRANCH  15  20
ATOM     16  C   UNL     1      -0.596   1.673  -0.465  0.00  0.00    +0.038 C 
ATOM     17  C   UNL     1      -0.477   0.147  -0.478  0.00  0.00    +0.155 C 
ATOM     18  C   UNL     1      -1.811  -0.494  -0.151  0.00  0.00    +0.241 C 
ATOM     19  O   UNL     1      -2.844  -0.395  -0.778  0.00  0.00    -0.273 OA
ATOM     20  N   UNL     1      -1.609  -1.198   0.980  0.00  0.00    -0.248 N 
ATOM     21  C   UNL     1      -0.346  -1.092   1.409  0.00  0.00    +0.140 C 
ATOM     22  S   UNL     1       0.248  -1.861   2.819  0.00  0.00    -0.018 S 
ATOM     23  N   UNL     1       0.407  -0.312   0.607  0.00  0.00    -0.315 N 
ATOM     24  H   UNL     1       1.346  -0.096   0.721  0.00  0.00    +0.148 HD
ENDBRANCH  15  20
ENDBRANCH   1  15
TORSDOF 2
