REMARK  Name = ZINC35340341
REMARK  13 active torsions:
REMARK  status: ('A' for Active; 'I' for Inactive)
REMARK    1  A    between atoms: C_1  and  C_2
REMARK    2  A    between atoms: C_5  and  C_34
REMARK    3  A    between atoms: C_10  and  C_12
REMARK    4  A    between atoms: C_12  and  S_13
REMARK    5  A    between atoms: S_13  and  C_14
REMARK    6  A    between atoms: C_14  and  C_15
REMARK    7  A    between atoms: C_15  and  N_17
REMARK    8  A    between atoms: N_19  and  C_29
REMARK    9  A    between atoms: C_23  and  O_27
REMARK   10  A    between atoms: O_27  and  C_28
REMARK   11  A    between atoms: C_29  and  C_30
REMARK   12  A    between atoms: C_30  and  O_32
REMARK   13  A    between atoms: O_32  and  C_33
REMARK                            x       y       z     vdW  Elec       q    Type
REMARK                         _______ _______ _______ _____ _____    ______ ____
ROOT
ATOM      1  N   UNL     1       2.080   3.286   8.147  0.00  0.00    -0.156 NA
ATOM      2  C   UNL     1       2.755   3.957   9.077  0.00  0.00    +0.167 A 
ATOM      3  N   UNL     1       2.305   4.393  10.280  0.00  0.00    -0.310 N 
ATOM      4  C   UNL     1       3.158   5.080  11.126  0.00  0.00    +0.058 A 
ATOM      5  C   UNL     1       2.902   5.613  12.398  0.00  0.00    +0.030 A 
ATOM      6  C   UNL     1       3.889   6.272  13.093  0.00  0.00    +0.048 A 
ATOM      7  C   UNL     1       5.162   6.430  12.559  0.00  0.00    +0.121 A 
ATOM      8  C   UNL     1       5.438   5.910  11.302  0.00  0.00    +0.062 A 
ATOM      9  C   UNL     1       4.450   5.251  10.609  0.00  0.00    +0.042 A 
ATOM     10  S   UNL     1       4.361   4.450   9.029  0.00  0.00    -0.052 S 
ENDROOT
BRANCH   1  11
ATOM     11  C   UNL     1       2.681   2.929   7.017  0.00  0.00    +0.248 C 
ATOM     12  O   UNL     1       3.848   3.215   6.833  0.00  0.00    -0.273 OA
BRANCH  11  13
ATOM     13  C   UNL     1       1.916   2.169   5.964  0.00  0.00    +0.167 C 
BRANCH  13  14
ATOM     14  S   UNL     1       3.003   1.831   4.553  0.00  0.00    -0.142 S 
BRANCH  14  15
ATOM     15  C   UNL     1       1.946   0.923   3.391  0.00  0.00    +0.165 C 
BRANCH  15  23
ATOM     16  C   UNL     1      -0.019   1.526   0.010  0.00  0.00    +0.009 C 
ATOM     17  C   UNL     1       0.002  -0.004   0.002  0.00  0.00    +0.004 C 
ATOM     18  C   UNL     1       0.720  -0.498  -1.256  0.00  0.00    +0.009 C 
ATOM     19  C   UNL     1       2.145   0.059  -1.285  0.00  0.00    +0.004 C 
ATOM     20  C   UNL     1       2.912  -0.448  -0.060  0.00  0.00    +0.111 C 
ATOM     21  N   UNL     1       2.153  -0.103   1.150  0.00  0.00    -0.300 N 
ATOM     22  C   UNL     1       0.744  -0.512   1.242  0.00  0.00    +0.111 C 
ATOM     23  C   UNL     1       2.738   0.577   2.157  0.00  0.00    +0.225 C 
ATOM     24  O   UNL     1       3.901   0.908   2.069  0.00  0.00    -0.275 OA
ATOM     25  C   UNL     1       2.850  -0.408  -2.559  0.00  0.00    +0.009 C 
ENDBRANCH  15  23
ENDBRANCH  14  15
ENDBRANCH  13  14
ENDBRANCH  11  13
ENDBRANCH   1  11
BRANCH   7  26
ATOM     26  O   UNL     1       6.125   7.085  13.259  0.00  0.00    -0.495 OA
ATOM     27  C   UNL     1       5.762   7.591  14.545  0.00  0.00    +0.277 C 
ENDBRANCH   7  26
BRANCH   3  28
ATOM     28  C   UNL     1       0.920   4.136  10.683  0.00  0.00    +0.244 C 
BRANCH  28  29
ATOM     29  C   UNL     1       0.845   2.821  11.415  0.00  0.00    +0.327 C 
ATOM     30  O   UNL     1       1.846   2.166  11.584  0.00  0.00    -0.249 OA
BRANCH  29  31
ATOM     31  O   UNL     1      -0.334   2.379  11.881  0.00  0.00    -0.467 OA
ATOM     32  C   UNL     1      -0.331   1.124  12.565  0.00  0.00    +0.280 C 
ENDBRANCH  29  31
ENDBRANCH  28  29
ENDBRANCH   3  28
TORSDOF 9
