REMARK  Name = ZINC16694331
REMARK  5 active torsions:
REMARK  status: ('A' for Active; 'I' for Inactive)
REMARK    1  A    between atoms: C_1  and  C_2
REMARK    2  A    between atoms: N_4  and  C_17
REMARK    3  A    between atoms: C_8  and  C_9
REMARK    4  A    between atoms: C_12  and  O_16
REMARK    5  A    between atoms: C_13  and  O_15
REMARK                            x       y       z     vdW  Elec       q    Type
REMARK                         _______ _______ _______ _____ _____    ______ ____
ROOT
ATOM      1  C   UNL     1       1.855  -3.111   0.046  0.00  0.00    +0.068 C 
ATOM      2  C   UNL     1       0.844  -2.032  -0.248  0.00  0.00    +0.069 C 
ATOM      3  N   UNL     1       1.106  -0.797  -0.545  0.00  0.00    -0.177 NA
ATOM      4  N   UNL     1      -0.061  -0.064  -0.755  0.00  0.00    -0.156 N 
ATOM      5  C   UNL     1      -1.141  -0.857  -0.599  0.00  0.00    +0.272 C 
ATOM      6  O   UNL     1      -2.311  -0.536  -0.715  0.00  0.00    -0.268 OA
ATOM      7  C   UNL     1      -0.618  -2.191  -0.258  0.00  0.00    +0.062 C 
ATOM      8  C   UNL     1      -1.343  -3.342  -0.003  0.00  0.00    +0.023 C 
ENDROOT
BRANCH   4   9
ATOM      9  C   UNL     1      -0.107   1.297  -1.087  0.00  0.00    +0.061 A 
ATOM     10  C   UNL     1      -1.330   1.924  -1.285  0.00  0.00    +0.028 A 
ATOM     11  C   UNL     1      -1.373   3.266  -1.607  0.00  0.00    +0.040 A 
ATOM     12  C   UNL     1      -0.196   3.984  -1.742  0.00  0.00    +0.124 A 
ATOM     13  C   UNL     1       1.025   3.360  -1.550  0.00  0.00    +0.040 A 
ATOM     14  C   UNL     1       1.071   2.019  -1.223  0.00  0.00    +0.028 A 
ATOM     15  F   UNL     1      -0.240   5.296  -2.062  0.00  0.00    -0.205 F 
ENDBRANCH   4   9
BRANCH   8  16
ATOM     16  C   UNL     1      -2.798  -3.277   0.121  0.00  0.00    -0.021 A 
ATOM     17  C   UNL     1      -3.596  -4.316  -0.383  0.00  0.00    +0.012 A 
ATOM     18  C   UNL     1      -4.965  -4.250  -0.263  0.00  0.00    +0.050 A 
ATOM     19  C   UNL     1      -5.561  -3.158   0.356  0.00  0.00    +0.158 A 
ATOM     20  C   UNL     1      -4.776  -2.120   0.861  0.00  0.00    +0.159 A 
ATOM     21  C   UNL     1      -3.402  -2.177   0.751  0.00  0.00    +0.057 A 
BRANCH  20  22
ATOM     22  O   UNL     1      -5.366  -1.055   1.466  0.00  0.00    -0.503 OA
ATOM     23  H   UNL     1      -5.488  -1.162   2.419  0.00  0.00    +0.292 HD
ENDBRANCH  20  22
BRANCH  19  24
ATOM     24  O   UNL     1      -6.913  -3.101   0.470  0.00  0.00    -0.503 OA
ATOM     25  H   UNL     1      -7.256  -3.499   1.282  0.00  0.00    +0.292 HD
ENDBRANCH  19  24
ENDBRANCH   8  16
TORSDOF 4
