REMARK  Name = ZINC01291752
REMARK  8 active torsions:
REMARK  status: ('A' for Active; 'I' for Inactive)
REMARK    1  A    between atoms: C_1  and  C_2
REMARK    2  A    between atoms: C_3  and  C_21
REMARK    3  A    between atoms: C_4  and  C_12
REMARK    4  A    between atoms: C_15  and  N_18
REMARK    5  A    between atoms: N_18  and  C_19
REMARK    6  A    between atoms: N_18  and  C_20
REMARK    7  A    between atoms: C_21  and  O_23
REMARK    8  A    between atoms: O_23  and  C_24
REMARK                            x       y       z     vdW  Elec       q    Type
REMARK                         _______ _______ _______ _____ _____    ______ ____
ROOT
ATOM      1  C   UNL     1       0.017   1.494  -0.001  0.00  0.00    +0.061 C 
ATOM      2  C   UNL     1       0.022  -0.013  -0.003  0.00  0.00    +0.020 C 
ATOM      3  C   UNL     1      -1.151  -0.666  -0.003  0.00  0.00    +0.082 C 
ATOM      4  C   UNL     1      -1.256  -2.167  -0.017  0.00  0.00    +0.179 C 
ATOM      5  N   UNL     1       0.054  -2.749   0.262  0.00  0.00    -0.221 N 
ATOM      6  C   UNL     1       1.208  -2.036   0.258  0.00  0.00    +0.218 A 
ATOM      7  N   UNL     1       2.187  -2.852   0.536  0.00  0.00    -0.201 NA
ATOM      8  C   UNL     1       1.702  -4.084   0.727  0.00  0.00    +0.247 A 
ATOM      9  N   UNL     1       0.401  -4.063   0.570  0.00  0.00    -0.156 NA
ATOM     10  N   UNL     1       1.225  -0.673  -0.010  0.00  0.00    -0.287 N 
ATOM     11  H   UNL     1       2.055  -0.205  -0.192  0.00  0.00    +0.155 HD
ENDROOT
BRANCH   4  12
ATOM     12  C   UNL     1      -1.732  -2.625  -1.371  0.00  0.00    -0.018 A 
ATOM     13  C   UNL     1      -0.985  -2.336  -2.498  0.00  0.00    +0.008 A 
ATOM     14  C   UNL     1      -1.417  -2.754  -3.742  0.00  0.00    +0.023 A 
ATOM     15  C   UNL     1      -2.604  -3.466  -3.859  0.00  0.00    +0.029 A 
ATOM     16  C   UNL     1      -3.352  -3.755  -2.724  0.00  0.00    +0.023 A 
ATOM     17  C   UNL     1      -2.911  -3.339  -1.484  0.00  0.00    +0.008 A 
BRANCH  15  18
ATOM     18  N   UNL     1      -3.045  -3.890  -5.115  0.00  0.00    -0.336 N 
ATOM     19  C   UNL     1      -2.324  -3.478  -6.322  0.00  0.00    +0.129 C 
ATOM     20  C   UNL     1      -4.229  -4.746  -5.225  0.00  0.00    +0.129 C 
ENDBRANCH  15  18
ENDBRANCH   4  12
BRANCH   3  21
ATOM     21  C   UNL     1      -2.343   0.093   0.012  0.00  0.00    +0.339 C 
ATOM     22  O   UNL     1      -2.291   1.308   0.024  0.00  0.00    -0.245 OA
BRANCH  21  23
ATOM     23  O   UNL     1      -3.540  -0.531   0.013  0.00  0.00    -0.458 OA
BRANCH  23  24
ATOM     24  C   UNL     1      -4.704   0.298   0.028  0.00  0.00    +0.177 C 
ATOM     25  C   UNL     1      -5.111   0.579   1.475  0.00  0.00    +0.044 C 
ATOM     26  C   UNL     1      -6.357   1.466   1.491  0.00  0.00    +0.004 C 
ATOM     27  C   UNL     1      -7.501   0.752   0.769  0.00  0.00    +0.000 C 
ATOM     28  C   UNL     1      -7.094   0.471  -0.678  0.00  0.00    +0.004 C 
ATOM     29  C   UNL     1      -5.848  -0.417  -0.694  0.00  0.00    +0.044 C 
ENDBRANCH  23  24
ENDBRANCH  21  23
ENDBRANCH   3  21
TORSDOF 5
