REMARK  Name = ZINC32531461
REMARK  11 active torsions:
REMARK  status: ('A' for Active; 'I' for Inactive)
REMARK    1  A    between atoms: C_1  and  C_2
REMARK    2  A    between atoms: C_2  and  C_3
REMARK    3  A    between atoms: C_2  and  C_4
REMARK    4  A    between atoms: C_4  and  N_5
REMARK    5  A    between atoms: C_6  and  N_27
REMARK    6  A    between atoms: C_7  and  N_14
REMARK    7  A    between atoms: N_14  and  C_15
REMARK    8  A    between atoms: C_15  and  C_16
REMARK    9  A    between atoms: C_16  and  C_17
REMARK   10  A    between atoms: C_16  and  C_18
REMARK   11  A    between atoms: C_19  and  C_21
REMARK                            x       y       z     vdW  Elec       q    Type
REMARK                         _______ _______ _______ _____ _____    ______ ____
ROOT
ATOM      1  N   UNL     1      -1.019  -2.210  -0.266  0.00  0.00    -0.280 N 
ATOM      2  C   UNL     1      -1.206  -2.705  -1.536  0.00  0.00    +0.127 A 
ATOM      3  C   UNL     1      -1.358  -4.066  -1.712  0.00  0.00    +0.140 A 
ATOM      4  C   UNL     1      -1.317  -4.906  -0.584  0.00  0.00    +0.277 A 
ATOM      5  O   UNL     1      -1.448  -6.112  -0.711  0.00  0.00    -0.266 OA
ATOM      6  N   UNL     1      -1.131  -4.369   0.638  0.00  0.00    -0.273 N 
ATOM      7  H   UNL     1      -1.103  -4.947   1.416  0.00  0.00    +0.173 HD
ATOM      8  C   UNL     1      -0.980  -3.042   0.790  0.00  0.00    +0.331 A 
ATOM      9  O   UNL     1      -0.809  -2.584   1.904  0.00  0.00    -0.246 OA
ENDROOT
BRANCH   3  10
ATOM     10  N   UNL     1      -1.551  -4.604  -3.002  0.00  0.00    -0.257 N 
ATOM     11  C   UNL     1      -2.692  -5.259  -3.294  0.00  0.00    +0.286 C 
ATOM     12  O   UNL     1      -3.521  -5.457  -2.424  0.00  0.00    -0.266 OA
BRANCH  11  13
ATOM     13  C   UNL     1      -2.936  -5.734  -4.659  0.00  0.00    +0.192 A 
ATOM     14  C   UNL     1      -4.088  -6.309  -5.115  0.00  0.00    +0.056 A 
ATOM     15  C   UNL     1      -3.882  -6.605  -6.471  0.00  0.00    +0.063 A 
ATOM     16  C   UNL     1      -2.628  -6.202  -6.780  0.00  0.00    +0.195 A 
ATOM     17  O   UNL     1      -2.063  -5.673  -5.687  0.00  0.00    -0.439 OA
ATOM     18 CL   UNL     1      -1.877  -6.342  -8.339  0.00  0.00    -0.043 Cl
ENDBRANCH  11  13
BRANCH  10  19
ATOM     19  C   UNL     1      -0.512  -4.452  -4.023  0.00  0.00    +0.117 C 
BRANCH  19  20
ATOM     20  C   UNL     1       0.361  -5.708  -4.053  0.00  0.00    +0.001 C 
ATOM     21  C   UNL     1       1.351  -5.614  -5.215  0.00  0.00    +0.009 C 
ATOM     22  C   UNL     1       1.131  -5.825  -2.736  0.00  0.00    +0.009 C 
ENDBRANCH  19  20
ENDBRANCH  10  19
ENDBRANCH   3  10
BRANCH   2  23
ATOM     23  N   UNL     1      -1.242  -1.856  -2.616  0.00  0.00    -0.343 N 
ATOM     24  H   UNL     1      -1.200  -0.896  -2.479  0.00  0.00    +0.144 HD
ATOM     25  H   UNL     1      -1.307  -2.216  -3.514  0.00  0.00    +0.144 HD
ENDBRANCH   2  23
BRANCH   1  26
ATOM     26  C   UNL     1      -0.857  -0.768  -0.064  0.00  0.00    +0.131 C 
BRANCH  26  28
ATOM     27  C   UNL     1       0.785   1.115  -0.070  0.00  0.00    +0.009 C 
ATOM     28  C   UNL     1       0.626  -0.404  -0.156  0.00  0.00    +0.003 C 
ATOM     29  C   UNL     1       1.386  -1.062   0.998  0.00  0.00    +0.009 C 
ENDBRANCH  26  28
ENDBRANCH   1  26
TORSDOF 7
