REMARK  Name = ZINC07442669
REMARK  4 active torsions:
REMARK  status: ('A' for Active; 'I' for Inactive)
REMARK    1  A    between atoms: C_4  and  C_7
REMARK    2  A    between atoms: C_12  and  C_13
REMARK    3  A    between atoms: C_12  and  N_54
REMARK    4  A    between atoms: N_15  and  N_16
REMARK                            x       y       z     vdW  Elec       q    Type
REMARK                         _______ _______ _______ _____ _____    ______ ____
ROOT
ATOM      1  C   UNL     1      -0.718   1.572   1.248  0.00  0.00    +0.213 C 
ATOM      2  O   UNL     1      -1.714   2.256   1.150  0.00  0.00    -0.276 OA
ATOM      3  N   UNL     1      -0.242   1.246   2.466  0.00  0.00    -0.225 N 
ATOM      4  H   UNL     1       0.555   0.699   2.544  0.00  0.00    +0.173 HD
ENDROOT
BRANCH   3   5
ATOM      5  N   UNL     1      -0.897   1.698   3.618  0.00  0.00    -0.137 N 
ATOM      6  C   UNL     1      -1.667   0.919   4.407  0.00  0.00    +0.263 C 
ATOM      7  O   UNL     1      -1.913  -0.259   4.261  0.00  0.00    -0.271 OA
ATOM      8  C   UNL     1      -2.157   1.826   5.514  0.00  0.00    +0.114 C 
ATOM      9  C   UNL     1      -1.666   1.324   6.867  0.00  0.00    +0.035 C 
ATOM     10  C   UNL     1      -2.149   2.270   7.970  0.00  0.00    +0.003 C 
ATOM     11  C   UNL     1      -3.678   2.332   7.954  0.00  0.00    +0.000 C 
ATOM     12  C   UNL     1      -4.153   2.860   6.599  0.00  0.00    +0.003 C 
ATOM     13  C   UNL     1      -3.679   1.917   5.490  0.00  0.00    +0.035 C 
ATOM     14  N   UNL     1      -1.558   3.129   5.199  0.00  0.00    -0.284 N 
ATOM     15  C   UNL     1      -0.834   2.954   4.077  0.00  0.00    +0.326 C 
ATOM     16  O   UNL     1      -0.197   3.838   3.539  0.00  0.00    -0.251 OA
ATOM     17  H   UNL     1      -1.659   3.952   5.702  0.00  0.00    +0.151 HD
ENDBRANCH   3   5
BRANCH   1  18
ATOM     18  C   UNL     1      -0.013   1.086   0.008  0.00  0.00    +0.021 C 
BRANCH  18  24
ATOM     19  C   UNL     1      -1.487   2.703  -3.588  0.00  0.00    -0.048 C 
ATOM     20  C   UNL     1      -1.256   3.503  -2.570  0.00  0.00    -0.041 C 
ATOM     21  C   UNL     1      -0.640   3.035  -1.283  0.00  0.00    -0.050 C 
ATOM     22  C   UNL     1      -0.195   0.946  -2.405  0.00  0.00    -0.073 C 
ATOM     23  C   UNL     1      -1.161   1.235  -3.556  0.00  0.00    +0.017 C 
ATOM     24  N   UNL     1      -0.747   1.567  -1.184  0.00  0.00    +0.388 N 
ATOM     25  H   UNL     1      -1.736   1.309  -1.094  0.00  0.00    -0.081 HD
BRANCH  19  29
ATOM     26  C   UNL     1      -3.223   4.330  -7.106  0.00  0.00    +0.000 A 
ATOM     27  C   UNL     1      -1.961   4.736  -6.709  0.00  0.00    +0.001 A 
ATOM     28  C   UNL     1      -1.392   4.211  -5.567  0.00  0.00    +0.008 A 
ATOM     29  C   UNL     1      -2.091   3.269  -4.812  0.00  0.00    -0.022 A 
ATOM     30  C   UNL     1      -3.361   2.859  -5.221  0.00  0.00    +0.008 A 
ATOM     31  C   UNL     1      -3.922   3.396  -6.361  0.00  0.00    +0.001 A 
ENDBRANCH  19  29
ENDBRANCH  18  24
ENDBRANCH   1  18
TORSDOF 4
