REMARK  Name = ZINC11420197
REMARK  6 active torsions:
REMARK  status: ('A' for Active; 'I' for Inactive)
REMARK    1  A    between atoms: C_1  and  C_2
REMARK    2  A    between atoms: C_10  and  C_11
REMARK    3  A    between atoms: C_11  and  O_13
REMARK    4  A    between atoms: O_13  and  C_14
REMARK    5  A    between atoms: C_14  and  C_15
REMARK    6  A    between atoms: N_20  and  C_21
REMARK                            x       y       z     vdW  Elec       q    Type
REMARK                         _______ _______ _______ _____ _____    ______ ____
ROOT
ATOM      1  C   UNL     1      -0.014   1.212   0.009  0.00  0.00    +0.376 C 
ATOM      2  O   UNL     1       0.002  -0.004   0.002  0.00  0.00    -0.241 OA
ENDROOT
BRANCH   1  12
ATOM      3  C   UNL     1      -2.817  -0.137   0.002  0.00  0.00    +0.048 C 
ATOM      4  C   UNL     1      -2.521   1.340   0.016  0.00  0.00    +0.010 A 
ATOM      5  C   UNL     1      -3.494   2.432   0.032  0.00  0.00    +0.025 A 
ATOM      6  C   UNL     1      -4.890   2.492   0.039  0.00  0.00    +0.012 A 
ATOM      7  C   UNL     1      -5.516   3.706   0.048  0.00  0.00    +0.002 A 
ATOM      8  C   UNL     1      -4.775   4.880   0.050  0.00  0.00    +0.024 A 
ATOM      9  C   UNL     1      -3.396   4.843   0.043  0.00  0.00    +0.084 A 
ATOM     10  C   UNL     1      -2.737   3.618   0.034  0.00  0.00    +0.154 A 
ATOM     11  O   UNL     1      -1.435   3.271   0.026  0.00  0.00    -0.446 OA
ATOM     12  C   UNL     1      -1.296   1.928   0.019  0.00  0.00    +0.216 A 
ATOM     13 CL   UNL     1      -2.486   6.321   0.047  0.00  0.00    -0.080 Cl
ENDBRANCH   1  12
BRANCH   1  14
ATOM     14  O   UNL     1       1.144   1.902   0.001  0.00  0.00    -0.450 OA
BRANCH  14  15
ATOM     15  C   UNL     1       2.373   1.128  -0.015  0.00  0.00    +0.328 C 
BRANCH  15  16
ATOM     16  C   UNL     1       3.555   2.062  -0.021  0.00  0.00    +0.258 C 
ATOM     17  O   UNL     1       3.380   3.261  -0.013  0.00  0.00    -0.272 OA
ATOM     18  N   UNL     1       4.807   1.564  -0.035  0.00  0.00    -0.237 N 
ATOM     19  C   UNL     1       5.865   2.399  -0.041  0.00  0.00    +0.306 C 
ATOM     20  O   UNL     1       5.689   3.602  -0.033  0.00  0.00    -0.252 OA
ATOM     21  N   UNL     1       7.117   1.901  -0.056  0.00  0.00    -0.302 N 
ATOM     22  C   UNL     1       8.267   2.809  -0.062  0.00  0.00    +0.129 C 
ATOM     23  H   UNL     1       4.947   0.604  -0.042  0.00  0.00    +0.159 HD
ATOM     24  H   UNL     1       7.257   0.941  -0.062  0.00  0.00    +0.150 HD
ENDBRANCH  15  16
ENDBRANCH  14  15
ENDBRANCH   1  14
TORSDOF 4
