REMARK  Name = ZINC05020659
REMARK  6 active torsions:
REMARK  status: ('A' for Active; 'I' for Inactive)
REMARK    1  A    between atoms: C_1  and  C_2
REMARK    2  A    between atoms: C_2  and  C_4
REMARK    3  A    between atoms: C_2  and  O_7
REMARK    4  A    between atoms: O_7  and  C_8
REMARK    5  A    between atoms: C_8  and  C_10
REMARK    6  A    between atoms: C_23  and  C_24
REMARK                            x       y       z     vdW  Elec       q    Type
REMARK                         _______ _______ _______ _____ _____    ______ ____
ROOT
ATOM      1  C   UNL     1       1.306  -2.117   0.181  0.00  0.00    +0.073 A 
ATOM      2  C   UNL     1       1.240  -0.655   0.166  0.00  0.00    +0.015 A 
ATOM      3  C   UNL     1       0.019   0.025   0.221  0.00  0.00    +0.011 A 
ATOM      4  C   UNL     1       0.006   1.389   0.203  0.00  0.00    +0.001 A 
ATOM      5  C   UNL     1       1.195   2.112   0.132  0.00  0.00    +0.002 A 
ATOM      6  C   UNL     1       2.400   1.482   0.078  0.00  0.00    +0.028 A 
ATOM      7  C   UNL     1       2.453   0.075   0.094  0.00  0.00    +0.072 A 
ATOM      8  N   UNL     1       3.616  -0.570   0.041  0.00  0.00    -0.247 NA
ATOM      9  C   UNL     1       3.709  -1.895   0.052  0.00  0.00    +0.072 A 
ATOM     10  C   UNL     1       2.562  -2.703   0.122  0.00  0.00    -0.007 A 
ATOM     11  C   UNL     1       2.961  -4.158   0.120  0.00  0.00    +0.043 C 
ATOM     12  C   UNL     1       4.493  -4.184   0.040  0.00  0.00    +0.042 C 
ATOM     13  C   UNL     1       4.920  -2.738  -0.000  0.00  0.00    -0.021 C 
ATOM     14  C   UNL     1       6.187  -2.292  -0.072  0.00  0.00    +0.013 C 
ENDROOT
BRANCH  14  15
ATOM     15  C   UNL     1       7.308  -3.242   0.021  0.00  0.00    -0.021 A 
ATOM     16  C   UNL     1       8.621  -2.771   0.110  0.00  0.00    +0.012 A 
ATOM     17  C   UNL     1       9.668  -3.662   0.203  0.00  0.00    +0.050 A 
ATOM     18  C   UNL     1       9.425  -5.029   0.197  0.00  0.00    +0.166 A 
ATOM     19  C   UNL     1       8.118  -5.506   0.103  0.00  0.00    +0.167 A 
ATOM     20  C   UNL     1       7.063  -4.619   0.016  0.00  0.00    +0.057 A 
ATOM     21  O   UNL     1       8.150  -6.871   0.119  0.00  0.00    -0.453 OA
ATOM     22  C   UNL     1       9.449  -7.218   0.634  0.00  0.00    +0.466 C 
ATOM     23  O   UNL     1      10.273  -6.095   0.271  0.00  0.00    -0.453 OA
ENDBRANCH  14  15
BRANCH   1  24
ATOM     24  C   UNL     1       0.079  -2.938   0.256  0.00  0.00    +0.341 C 
ATOM     25  O   UNL     1      -0.479  -3.289  -0.764  0.00  0.00    -0.245 OA
BRANCH  24  26
ATOM     26  O   UNL     1      -0.419  -3.298   1.454  0.00  0.00    -0.449 OA
BRANCH  26  28
ATOM     27  C   UNL     1      -2.852  -3.189   1.477  0.00  0.00    +0.062 C 
ATOM     28  C   UNL     1      -1.626  -4.105   1.452  0.00  0.00    +0.259 C 
BRANCH  28  29
ATOM     29  C   UNL     1      -1.639  -4.994   2.668  0.00  0.00    +0.251 C 
ATOM     30  O   UNL     1      -0.768  -4.889   3.505  0.00  0.00    -0.272 OA
ATOM     31  N   UNL     1      -2.618  -5.907   2.825  0.00  0.00    -0.326 N 
ATOM     32  H   UNL     1      -3.314  -5.992   2.155  0.00  0.00    +0.145 HD
ATOM     33  H   UNL     1      -2.626  -6.480   3.608  0.00  0.00    +0.145 HD
ENDBRANCH  28  29
ENDBRANCH  26  28
ENDBRANCH  24  26
ENDBRANCH   1  24
TORSDOF 5
