REMARK  Name = ZINC39982471
REMARK  5 active torsions:
REMARK  status: ('A' for Active; 'I' for Inactive)
REMARK    1  A    between atoms: C_7  and  C_10
REMARK    2  A    between atoms: C_13  and  S_16
REMARK    3  A    between atoms: S_16  and  C_17
REMARK    4  A    between atoms: C_17  and  C_18
REMARK    5  A    between atoms: C_26  and  C_28
REMARK                            x       y       z     vdW  Elec       q    Type
REMARK                         _______ _______ _______ _____ _____    ______ ____
ROOT
ATOM      1  S   UNL     1      -0.068  -6.289   1.479  0.00  0.00    -0.087 S 
ENDROOT
BRANCH   1   5
ATOM      2  C   UNL     1       0.771  -3.136  -0.003  0.00  0.00    +0.238 C 
ATOM      3  N   UNL     1      -0.531  -3.024  -0.010  0.00  0.00    -0.145 NA
ATOM      4  N   UNL     1      -1.125  -4.294  -0.014  0.00  0.00    -0.219 N 
ATOM      5  C   UNL     1      -0.006  -5.253  -0.009  0.00  0.00    +0.339 C 
ATOM      6  O   UNL     1       1.170  -4.432  -0.007  0.00  0.00    -0.443 OA
ATOM      7  H   UNL     1      -2.073  -4.499  -0.020  0.00  0.00    +0.173 HD
BRANCH   2  14
ATOM      8  C   UNL     1       0.051   1.343   0.011  0.00  0.00    +0.001 A 
ATOM      9  C   UNL     1       1.226   2.097   0.015  0.00  0.00    +0.002 A 
ATOM     10  C   UNL     1       2.450   1.515   0.014  0.00  0.00    +0.026 A 
ATOM     11  C   UNL     1       2.558   0.100   0.010  0.00  0.00    +0.043 A 
ATOM     12  N   UNL     1       3.611  -0.695   0.008  0.00  0.00    -0.380 N 
ATOM     13  C   UNL     1       3.164  -2.091   0.003  0.00  0.00    +0.154 C 
ATOM     14  C   UNL     1       1.652  -2.046   0.002  0.00  0.00    +0.043 C 
ATOM     15  C   UNL     1       1.317  -0.691   0.006  0.00  0.00    +0.008 A 
ATOM     16  C   UNL     1       0.078  -0.015   0.006  0.00  0.00    +0.010 A 
ATOM     17  H   UNL     1       4.535  -0.401   0.010  0.00  0.00    +0.160 HD
ENDBRANCH   2  14
ENDBRANCH   1   5
BRANCH   1  18
ATOM     18  C   UNL     1       0.057  -5.102   2.846  0.00  0.00    +0.170 C 
BRANCH  18  19
ATOM     19  C   UNL     1       0.018  -5.842   4.158  0.00  0.00    +0.226 C 
ATOM     20  O   UNL     1      -0.085  -7.050   4.171  0.00  0.00    -0.275 OA
ATOM     21  N   UNL     1       0.097  -5.160   5.318  0.00  0.00    -0.298 N 
ATOM     22  C   UNL     1       0.215  -3.696   5.319  0.00  0.00    +0.127 C 
ATOM     23  C   UNL     1      -0.918  -3.112   6.171  0.00  0.00    +0.127 C 
ATOM     24  N   UNL     1      -0.950  -3.821   7.458  0.00  0.00    -0.292 N 
ATOM     25  C   UNL     1      -1.069  -5.285   7.458  0.00  0.00    +0.127 C 
ATOM     26  C   UNL     1       0.059  -5.868   6.606  0.00  0.00    +0.127 C 
ATOM     27  C   UNL     1      -0.871  -3.139   8.619  0.00  0.00    +0.282 C 
ATOM     28  O   UNL     1      -0.997  -3.724   9.678  0.00  0.00    -0.267 OA
BRANCH  27  29
ATOM     29  C   UNL     1      -0.634  -1.692   8.604  0.00  0.00    +0.189 A 
ATOM     30  C   UNL     1      -0.416  -0.904   9.698  0.00  0.00    +0.054 A 
ATOM     31  C   UNL     1      -0.238   0.405   9.223  0.00  0.00    +0.042 A 
ATOM     32  C   UNL     1      -0.353   0.359   7.877  0.00  0.00    +0.196 A 
ATOM     33  O   UNL     1      -0.587  -0.907   7.508  0.00  0.00    -0.458 OA
ENDBRANCH  27  29
ENDBRANCH  18  19
ENDBRANCH   1  18
TORSDOF 5
