REMARK  Name = ZINC63600855
REMARK  7 active torsions:
REMARK  status: ('A' for Active; 'I' for Inactive)
REMARK    1  A    between atoms: C_1  and  S_2
REMARK    2  A    between atoms: S_2  and  N_5
REMARK    3  A    between atoms: N_5  and  C_6
REMARK    4  A    between atoms: C_12  and  N_16
REMARK    5  A    between atoms: C_17  and  C_19
REMARK    6  A    between atoms: C_19  and  C_20
REMARK    7  A    between atoms: C_20  and  C_21
REMARK                            x       y       z     vdW  Elec       q    Type
REMARK                         _______ _______ _______ _____ _____    ______ ____
ROOT
ATOM      1  N   UNL     1       6.414  -3.542  -4.841  0.00  0.00    -0.285 N 
ATOM      2  C   UNL     1       6.748  -3.588  -6.146  0.00  0.00    +0.217 C 
ATOM      3  O   UNL     1       6.281  -2.780  -6.920  0.00  0.00    -0.275 OA
ATOM      4  H   UNL     1       6.844  -4.139  -4.208  0.00  0.00    +0.155 HD
ENDROOT
BRANCH   1  10
ATOM      5  C   UNL     1       1.433   0.361  -4.124  0.00  0.00    +0.224 C 
ATOM      6  N   UNL     1       2.489   0.095  -3.137  0.00  0.00    -0.318 N 
ATOM      7  C   UNL     1       3.497  -0.801  -3.496  0.00  0.00    +0.043 A 
ATOM      8  C   UNL     1       4.584  -1.177  -2.687  0.00  0.00    +0.026 A 
ATOM      9  C   UNL     1       5.530  -2.070  -3.131  0.00  0.00    +0.025 A 
ATOM     10  C   UNL     1       5.444  -2.633  -4.397  0.00  0.00    +0.035 A 
ATOM     11  C   UNL     1       4.379  -2.278  -5.218  0.00  0.00    +0.040 A 
ATOM     12  C   UNL     1       3.436  -1.383  -4.766  0.00  0.00    +0.034 A 
ATOM     13  S   UNL     1       1.970  -0.709  -5.517  0.00  0.00    -0.084 S 
ATOM     14  H   UNL     1       2.485   0.527  -2.268  0.00  0.00    +0.148 HD
BRANCH   5  15
ATOM     15  N   UNL     1       1.423   1.773  -4.517  0.00  0.00    -0.165 NA
ATOM     16  H   UNL     1       2.238   2.297  -4.462  0.00  0.00    +0.151 HD
BRANCH  15  18
ATOM     17  C   UNL     1      -1.094   2.439  -3.624  0.00  0.00    +0.214 C 
ATOM     18  S   UNL     1       0.022   2.473  -5.054  0.00  0.00    +0.029 S 
ATOM     19  O   UNL     1      -0.455   1.598  -6.067  0.00  0.00    -0.158 OA
ATOM     20  O   UNL     1       0.381   3.812  -5.363  0.00  0.00    -0.158 OA
ENDBRANCH  15  18
ENDBRANCH   5  15
ENDBRANCH   1  10
BRANCH   2  21
ATOM     21  C   UNL     1       7.701  -4.644  -6.642  0.00  0.00    +0.100 C 
BRANCH  21  22
ATOM     22  C   UNL     1       7.910  -4.475  -8.149  0.00  0.00    +0.056 C 
BRANCH  22  23
ATOM     23  C   UNL     1       8.878  -5.547  -8.653  0.00  0.00    +0.174 C 
ATOM     24  N   UNL     1       8.252  -6.872  -8.565  0.00  0.00    -0.363 N 
ATOM     25  C   UNL     1       8.197  -7.359  -9.772  0.00  0.00    +0.060 A 
ATOM     26  C   UNL     1       7.688  -8.625 -10.316  0.00  0.00    +0.027 A 
ATOM     27  C   UNL     1       7.767  -8.859 -11.641  0.00  0.00    +0.002 A 
ATOM     28  C   UNL     1       8.322  -7.933 -12.543  0.00  0.00    +0.002 A 
ATOM     29  C   UNL     1       8.818  -6.743 -12.149  0.00  0.00    +0.027 A 
ATOM     30  C   UNL     1       8.785  -6.379 -10.726  0.00  0.00    +0.060 A 
ATOM     31  N   UNL     1       9.181  -5.325 -10.072  0.00  0.00    -0.363 N 
ATOM     32  H   UNL     1       7.938  -7.306  -7.757  0.00  0.00    +0.162 HD
ATOM     33  H   UNL     1       9.599  -4.537 -10.454  0.00  0.00    +0.162 HD
ENDBRANCH  22  23
ENDBRANCH  21  22
ENDBRANCH   2  21
TORSDOF 6
