REMARK  Name = ZINC63526423
REMARK  6 active torsions:
REMARK  status: ('A' for Active; 'I' for Inactive)
REMARK    1  A    between atoms: C_1  and  N_2
REMARK    2  A    between atoms: C_16  and  S_20
REMARK    3  A    between atoms: S_20  and  C_21
REMARK    4  A    between atoms: C_21  and  C_22
REMARK    5  A    between atoms: C_30  and  N_34
REMARK    6  A    between atoms: C_31  and  C_32
REMARK                            x       y       z     vdW  Elec       q    Type
REMARK                         _______ _______ _______ _____ _____    ______ ____
ROOT
ATOM      1  C   UNL     1      -0.018   1.461   0.010  0.00  0.00    +0.138 C 
ATOM      2  N   UNL     1       0.002  -0.004   0.002  0.00  0.00    -0.273 N 
ATOM      3  C   UNL     1       0.008  -0.771  -1.150  0.00  0.00    +0.040 A 
ATOM      4  C   UNL     1      -0.000  -0.365  -2.485  0.00  0.00    +0.024 A 
ATOM      5  C   UNL     1       0.008  -1.360  -3.450  0.00  0.00    +0.002 A 
ATOM      6  C   UNL     1       0.023  -2.700  -3.119  0.00  0.00    +0.000 A 
ATOM      7  C   UNL     1       0.031  -3.118  -1.792  0.00  0.00    +0.006 A 
ATOM      8  C   UNL     1       0.024  -2.134  -0.827  0.00  0.00    -0.008 A 
ATOM      9  C   UNL     1       0.033  -2.208   0.666  0.00  0.00    +0.114 C 
ATOM     10  C   UNL     1       0.023  -0.765   1.117  0.00  0.00    +0.233 C 
ATOM     11  O   UNL     1       0.030  -0.366   2.263  0.00  0.00    -0.274 OA
ATOM     12  C   UNL     1       1.280  -2.916   1.183  0.00  0.00    +0.166 C 
ATOM     13  C   UNL     1       1.240  -4.352   0.732  0.00  0.00    +0.147 C 
ATOM     14  N   UNL     1       2.317  -4.934   0.254  0.00  0.00    -0.208 NA
ATOM     15  C   UNL     1       3.446  -4.259   0.032  0.00  0.00    +0.182 C 
ATOM     16  N   UNL     1       3.538  -2.948   0.218  0.00  0.00    -0.154 NA
ATOM     17  C   UNL     1       2.538  -2.254   0.720  0.00  0.00    +0.250 C 
ATOM     18  O   UNL     1       2.649  -1.047   0.815  0.00  0.00    -0.273 OA
ATOM     19  N   UNL     1       0.078  -5.010   0.756  0.00  0.00    -0.218 NA
ATOM     20  C   UNL     1      -1.069  -4.417   0.948  0.00  0.00    +0.132 C 
ATOM     21  C   UNL     1      -1.202  -2.939   1.193  0.00  0.00    +0.176 C 
ENDROOT
BRANCH  21  22
ATOM     22  C   UNL     1      -1.336  -2.693   2.638  0.00  0.00    +0.075 C 
ATOM     23  N   UNL     1      -1.439  -2.503   3.754  0.00  0.00    -0.196 NA
ENDBRANCH  21  22
BRANCH  20  24
ATOM     24  N   UNL     1      -2.189  -5.166   0.926  0.00  0.00    -0.252 NA
ATOM     25  H   UNL     1      -2.130  -6.122   0.770  0.00  0.00    +0.171 HD
ENDBRANCH  20  24
BRANCH  15  26
ATOM     26  S   UNL     1       4.866  -5.140  -0.528  0.00  0.00    -0.084 S 
BRANCH  26  27
ATOM     27  C   UNL     1       6.140  -3.859  -0.694  0.00  0.00    +0.112 C 
BRANCH  27  28
ATOM     28  C   UNL     1       7.424  -4.487  -1.173  0.00  0.00    -0.034 A 
ATOM     29  C   UNL     1       8.343  -4.964  -0.257  0.00  0.00    +0.004 A 
ATOM     30  C   UNL     1       9.521  -5.540  -0.695  0.00  0.00    +0.003 A 
ATOM     31  C   UNL     1       9.781  -5.639  -2.048  0.00  0.00    +0.038 A 
ATOM     32  C   UNL     1       8.862  -5.162  -2.966  0.00  0.00    +0.124 A 
ATOM     33  C   UNL     1       7.679  -4.590  -2.527  0.00  0.00    +0.042 A 
ATOM     34  F   UNL     1       9.115  -5.257  -4.290  0.00  0.00    -0.205 F 
ENDBRANCH  27  28
ENDBRANCH  26  27
ENDBRANCH  15  26
TORSDOF 5
