REMARK  Name = ZINC36213670
REMARK  5 active torsions:
REMARK  status: ('A' for Active; 'I' for Inactive)
REMARK    1  A    between atoms: C_6  and  C_7
REMARK    2  A    between atoms: C_7  and  N_8
REMARK    3  A    between atoms: N_11  and  C_14
REMARK    4  A    between atoms: C_17  and  N_23
REMARK    5  A    between atoms: C_19  and  N_20
REMARK                            x       y       z     vdW  Elec       q    Type
REMARK                         _______ _______ _______ _____ _____    ______ ____
ROOT
ATOM      1  C   UNL     1      -2.870  -3.639  -4.361  0.00  0.00    +0.060 A 
ATOM      2  C   UNL     1      -2.595  -4.921  -3.902  0.00  0.00    +0.027 A 
ATOM      3  C   UNL     1      -2.931  -6.017  -4.672  0.00  0.00    +0.026 A 
ATOM      4  C   UNL     1      -3.542  -5.837  -5.906  0.00  0.00    +0.046 A 
ATOM      5  C   UNL     1      -3.816  -4.556  -6.365  0.00  0.00    +0.058 A 
ATOM      6  C   UNL     1      -3.487  -3.461  -5.592  0.00  0.00    +0.149 A 
ENDROOT
BRANCH   4   7
ATOM      7  N   UNL     1      -3.881  -6.951  -6.689  0.00  0.00    -0.210 N 
ATOM      8  C   UNL     1      -3.281  -7.228  -7.852  0.00  0.00    +0.231 C 
ATOM      9  O   UNL     1      -2.396  -6.570  -8.357  0.00  0.00    -0.274 OA
ATOM     10  C   UNL     1      -3.876  -8.487  -8.439  0.00  0.00    +0.095 C 
ATOM     11  C   UNL     1      -4.706  -8.095  -9.702  0.00  0.00    +0.025 C 
ATOM     12  C   UNL     1      -5.873  -9.145  -9.615  0.00  0.00    +0.016 C 
ATOM     13  C   UNL     1      -6.303  -8.684  -8.174  0.00  0.00    +0.025 C 
ATOM     14  C   UNL     1      -4.948  -8.900  -7.388  0.00  0.00    +0.095 C 
ATOM     15  C   UNL     1      -4.828  -7.826  -6.331  0.00  0.00    +0.231 C 
ATOM     16  O   UNL     1      -5.489  -7.765  -5.316  0.00  0.00    -0.274 OA
ATOM     17  C   UNL     1      -6.380  -7.169  -8.396  0.00  0.00    -0.027 C 
ATOM     18  C   UNL     1      -5.443  -6.816  -9.283  0.00  0.00    -0.027 C 
ENDBRANCH   4   7
BRANCH   1  22
ATOM     19  N   UNL     1      -1.538  -1.023  -1.446  0.00  0.00    +0.384 N 
ATOM     20  C   UNL     1      -0.600  -1.735  -2.323  0.00  0.00    -0.059 C 
ATOM     21  C   UNL     1      -1.217  -1.882  -3.718  0.00  0.00    +0.086 C 
ATOM     22  N   UNL     1      -2.531  -2.530  -3.581  0.00  0.00    -0.332 N 
ATOM     23  C   UNL     1      -3.477  -1.976  -2.600  0.00  0.00    +0.086 C 
ATOM     24  C   UNL     1      -2.753  -1.825  -1.258  0.00  0.00    -0.059 C 
ATOM     25  H   UNL     1      -1.782  -0.139  -1.866  0.00  0.00    -0.081 HD
BRANCH  19  26
ATOM     26  C   UNL     1      -0.903  -0.786  -0.143  0.00  0.00    -0.043 C 
BRANCH  26  32
ATOM     27  C   UNL     1       0.099   1.506  -0.223  0.00  0.00    +0.003 A 
ATOM     28  C   UNL     1       1.179   2.354  -0.383  0.00  0.00    +0.020 A 
ATOM     29  C   UNL     1       2.435   1.834  -0.640  0.00  0.00    +0.041 A 
ATOM     30  C   UNL     1       2.609   0.465  -0.735  0.00  0.00    +0.020 A 
ATOM     31  C   UNL     1       1.529  -0.382  -0.575  0.00  0.00    +0.003 A 
ATOM     32  C   UNL     1       0.274   0.138  -0.319  0.00  0.00    -0.064 A 
ATOM     33 CL   UNL     1       3.791   2.898  -0.842  0.00  0.00    -0.084 Cl
ENDBRANCH  26  32
ENDBRANCH  19  26
ENDBRANCH   1  22
BRANCH   6  34
ATOM     34  N   UNL     1      -3.785  -2.095  -6.079  0.00  0.00    +0.058 N 
ATOM     35  O   UNL     1      -4.322  -1.939  -7.151  0.00  0.00    -0.126 OA
ATOM     36  O   UNL     1      -3.492  -1.135  -5.405  0.00  0.00    -0.126 OA
ENDBRANCH   6  34
TORSDOF 5
