REMARK  Name = ZINC41045078
REMARK  3 active torsions:
REMARK  status: ('A' for Active; 'I' for Inactive)
REMARK    1  A    between atoms: C_1  and  C_2
REMARK    2  A    between atoms: N_8  and  C_9
REMARK    3  A    between atoms: C_14  and  C_17
REMARK                            x       y       z     vdW  Elec       q    Type
REMARK                         _______ _______ _______ _____ _____    ______ ____
ROOT
ATOM      1  C   UNL     1      -0.018   1.503   0.010  0.00  0.00    +0.067 C 
ATOM      2  C   UNL     1       0.002  -0.004   0.002  0.00  0.00    +0.061 A 
ATOM      3  C   UNL     1       0.006  -0.691  -1.204  0.00  0.00    +0.028 A 
ATOM      4  C   UNL     1       0.025  -2.076  -1.164  0.00  0.00    +0.047 A 
ATOM      5  C   UNL     1       0.039  -2.693   0.086  0.00  0.00    +0.141 A 
ATOM      6  N   UNL     1       0.034  -1.952   1.184  0.00  0.00    -0.134 NA
ATOM      7  N   UNL     1       0.022  -0.669   1.140  0.00  0.00    -0.153 NA
ATOM      8  N   UNL     1       0.058  -4.081   0.181  0.00  0.00    -0.325 N 
ATOM      9  H   UNL     1       0.068  -4.507   1.052  0.00  0.00    +0.148 HD
ENDROOT
BRANCH   8  10
ATOM     10  C   UNL     1       0.063  -4.897  -1.035  0.00  0.00    +0.072 C 
ATOM     11  C   UNL     1       1.500  -5.059  -1.536  0.00  0.00    +0.022 C 
ATOM     12  C   UNL     1       2.341  -5.744  -0.458  0.00  0.00    +0.002 C 
ATOM     13  C   UNL     1       1.751  -7.121  -0.149  0.00  0.00    +0.003 C 
ATOM     14  C   UNL     1       0.315  -6.960   0.351  0.00  0.00    -0.012 C 
ATOM     15  C   UNL     1      -0.527  -6.275  -0.727  0.00  0.00    +0.025 C 
ATOM     16  C   UNL     1      -0.275  -8.338   0.660  0.00  0.00    +0.007 C 
ENDBRANCH   8  10
TORSDOF 1
