REMARK  Name = ZINC34685699
REMARK  9 active torsions:
REMARK  status: ('A' for Active; 'I' for Inactive)
REMARK    1  A    between atoms: C_1  and  C_2
REMARK    2  A    between atoms: C_6  and  C_8
REMARK    3  A    between atoms: C_12  and  O_26
REMARK    4  A    between atoms: C_19  and  C_21
REMARK    5  A    between atoms: O_26  and  C_27
REMARK    6  A    between atoms: C_27  and  C_29
REMARK    7  A    between atoms: C_27  and  C_30
REMARK    8  A    between atoms: N_35  and  C_38
REMARK    9  A    between atoms: C_38  and  C_39
REMARK                            x       y       z     vdW  Elec       q    Type
REMARK                         _______ _______ _______ _____ _____    ______ ____
ROOT
ATOM      1  C   UNL     1      -0.481  -2.585   3.082  0.00  0.00    +0.137 C 
ATOM      2  C   UNL     1       0.824  -3.302   2.837  0.00  0.00    -0.016 A 
ATOM      3  C   UNL     1       1.995  -2.566   2.942  0.00  0.00    +0.051 A 
ATOM      4  C   UNL     1       3.224  -3.170   2.739  0.00  0.00    +0.122 A 
ATOM      5  C   UNL     1       3.281  -4.521   2.429  0.00  0.00    +0.046 A 
ATOM      6  C   UNL     1       2.115  -5.248   2.322  0.00  0.00    +0.007 A 
ATOM      7  C   UNL     1       0.880  -4.641   2.520  0.00  0.00    -0.040 A 
ATOM      8  C   UNL     1      -0.350  -5.495   2.358  0.00  0.00    +0.054 C 
ATOM      9  C   UNL     1      -1.550  -4.856   3.055  0.00  0.00    +0.114 C 
ATOM     10  N   UNL     1      -1.598  -3.438   2.663  0.00  0.00    -0.284 N 
ATOM     11  C   UNL     1      -2.628  -2.943   1.949  0.00  0.00    +0.283 C 
ATOM     12  O   UNL     1      -2.604  -1.788   1.566  0.00  0.00    -0.267 OA
ENDROOT
BRANCH   1  18
ATOM     13  C   UNL     1      -0.955   2.394   2.912  0.00  0.00    +0.044 C 
ATOM     14  C   UNL     1      -0.732   1.079   2.209  0.00  0.00    -0.050 A 
ATOM     15  C   UNL     1      -0.549   1.050   0.839  0.00  0.00    +0.003 A 
ATOM     16  C   UNL     1      -0.345  -0.156   0.195  0.00  0.00    +0.001 A 
ATOM     17  C   UNL     1      -0.323  -1.333   0.921  0.00  0.00    +0.006 A 
ATOM     18  C   UNL     1      -0.504  -1.303   2.291  0.00  0.00    -0.022 A 
ATOM     19  C   UNL     1      -0.704  -0.097   2.936  0.00  0.00    +0.009 A 
ENDBRANCH   1  18
BRANCH  11  20
ATOM     20  C   UNL     1      -3.779  -3.796   1.634  0.00  0.00    +0.189 A 
ATOM     21  C   UNL     1      -4.930  -3.395   1.017  0.00  0.00    +0.054 A 
ATOM     22  C   UNL     1      -5.750  -4.529   0.918  0.00  0.00    +0.042 A 
ATOM     23  C   UNL     1      -5.073  -5.560   1.471  0.00  0.00    +0.196 A 
ATOM     24  O   UNL     1      -3.884  -5.115   1.897  0.00  0.00    -0.458 OA
ENDBRANCH  11  20
BRANCH   4  25
ATOM     25  O   UNL     1       4.368  -2.443   2.841  0.00  0.00    -0.480 OA
BRANCH  25  26
ATOM     26  C   UNL     1       5.600  -3.144   2.661  0.00  0.00    +0.256 C 
ATOM     27  C   UNL     1       5.908  -3.258   1.167  0.00  0.00    +0.062 C 
BRANCH  26  28
ATOM     28  C   UNL     1       6.711  -2.392   3.347  0.00  0.00    +0.256 C 
ATOM     29  O   UNL     1       6.528  -1.256   3.730  0.00  0.00    -0.272 OA
ATOM     30  N   UNL     1       7.909  -2.982   3.535  0.00  0.00    -0.296 N 
ATOM     31  C   UNL     1       8.184  -4.321   2.993  0.00  0.00    +0.123 C 
ATOM     32  C   UNL     1       9.496  -4.266   2.204  0.00  0.00    +0.103 C 
ATOM     33  N   UNL     1      10.555  -3.712   3.057  0.00  0.00    -0.296 NA
ATOM     34  C   UNL     1      10.255  -2.328   3.446  0.00  0.00    +0.103 C 
ATOM     35  C   UNL     1       8.977  -2.300   4.282  0.00  0.00    +0.123 C 
BRANCH  33  36
ATOM     36  C   UNL     1      11.864  -3.802   2.397  0.00  0.00    +0.111 C 
BRANCH  36  37
ATOM     37  C   UNL     1      12.949  -3.457   3.384  0.00  0.00    -0.019 C 
ATOM     38  C   UNL     1      13.932  -4.296   3.597  0.00  0.00    +0.005 C 
ENDBRANCH  36  37
ENDBRANCH  33  36
ENDBRANCH  26  28
ENDBRANCH  25  26
ENDBRANCH   4  25
TORSDOF 7
