REMARK  Name = ZINC38108361
REMARK  5 active torsions:
REMARK  status: ('A' for Active; 'I' for Inactive)
REMARK    1  A    between atoms: C_1  and  C_2
REMARK    2  A    between atoms: C_2  and  N_3
REMARK    3  A    between atoms: C_6  and  N_9
REMARK    4  A    between atoms: C_10  and  C_12
REMARK    5  A    between atoms: C_14  and  N_19
REMARK                            x       y       z     vdW  Elec       q    Type
REMARK                         _______ _______ _______ _____ _____    ______ ____
ROOT
ATOM      1  N   UNL     1      -4.952  -2.536  -0.926  0.00  0.00    -0.309 N 
ATOM      2  C   UNL     1      -5.298  -3.788  -1.284  0.00  0.00    +0.246 C 
ATOM      3  O   UNL     1      -4.453  -4.555  -1.704  0.00  0.00    -0.270 OA
ATOM      4  H   UNL     1      -5.626  -1.924  -0.591  0.00  0.00    +0.149 HD
ENDROOT
BRANCH   1   8
ATOM      5  N   UNL     1      -1.376  -0.512   0.012  0.00  0.00    +0.380 N 
ATOM      6  C   UNL     1      -2.051  -0.118  -1.230  0.00  0.00    -0.077 C 
ATOM      7  C   UNL     1      -3.511  -0.575  -1.189  0.00  0.00    +0.003 C 
ATOM      8  C   UNL     1      -3.559  -2.099  -1.042  0.00  0.00    +0.070 C 
ATOM      9  C   UNL     1      -2.788  -2.505   0.218  0.00  0.00    +0.003 C 
ATOM     10  C   UNL     1      -1.355  -1.976   0.125  0.00  0.00    -0.077 C 
ATOM     11  H   UNL     1      -1.871  -0.123   0.800  0.00  0.00    -0.082 HD
BRANCH   5  13
ATOM     12  C   UNL     1      -0.019   1.526   0.010  0.00  0.00    -0.017 C 
ATOM     13  C   UNL     1       0.002  -0.004   0.002  0.00  0.00    -0.082 C 
ENDBRANCH   5  13
ENDBRANCH   1   8
BRANCH   2  14
ATOM     14  C   UNL     1      -6.703  -4.229  -1.167  0.00  0.00    +0.057 A 
ATOM     15  C   UNL     1      -7.677  -3.349  -0.691  0.00  0.00    +0.047 A 
ATOM     16  C   UNL     1      -8.987  -3.767  -0.585  0.00  0.00    +0.127 A 
ATOM     17  C   UNL     1      -9.338  -5.056  -0.948  0.00  0.00    +0.034 A 
ATOM     18  C   UNL     1      -8.380  -5.933  -1.420  0.00  0.00    +0.023 A 
ATOM     19  C   UNL     1      -7.065  -5.527  -1.538  0.00  0.00    +0.053 A 
ATOM     20 CL   UNL     1      -5.864  -6.627  -2.138  0.00  0.00    -0.083 Cl
BRANCH  16  21
ATOM     21  N   UNL     1     -10.020  -2.835  -0.080  0.00  0.00    +0.056 N 
ATOM     22  O   UNL     1      -9.715  -1.709   0.239  0.00  0.00    -0.126 OA
ATOM     23  O   UNL     1     -11.169  -3.199   0.014  0.00  0.00    -0.126 OA
ENDBRANCH  16  21
ENDBRANCH   2  14
TORSDOF 4
