REMARK  Name = ZINC12309430
REMARK  8 active torsions:
REMARK  status: ('A' for Active; 'I' for Inactive)
REMARK    1  A    between atoms: C_1  and  C_2
REMARK    2  A    between atoms: C_8  and  N_9
REMARK    3  A    between atoms: N_9  and  O_10
REMARK    4  A    between atoms: O_10  and  C_11
REMARK    5  A    between atoms: C_11  and  C_12
REMARK    6  A    between atoms: N_14  and  C_15
REMARK    7  A    between atoms: N_24  and  C_29
REMARK    8  A    between atoms: N_27  and  C_28
REMARK                            x       y       z     vdW  Elec       q    Type
REMARK                         _______ _______ _______ _____ _____    ______ ____
ROOT
ATOM      1  C   UNL     1      10.923  -1.342  -1.193  0.00  0.00    +0.047 C 
ATOM      2  C   UNL     1      10.712   0.089  -0.771  0.00  0.00    -0.008 A 
ATOM      3  C   UNL     1      11.757   0.916  -0.603  0.00  0.00    +0.089 A 
ATOM      4  N   UNL     1      11.593   2.219  -0.215  0.00  0.00    -0.347 N 
ATOM      5  H   UNL     1      12.457   2.801   0.137  0.00  0.00    +0.167 HD
ATOM      6  C   UNL     1      10.381   2.835  -0.248  0.00  0.00    +0.129 A 
ATOM      7  C   UNL     1       9.222   2.078  -0.407  0.00  0.00    +0.106 A 
ATOM      8  C   UNL     1       9.353   0.614  -0.534  0.00  0.00    +0.081 A 
ATOM      9  C   UNL     1       7.966   2.725  -0.428  0.00  0.00    +0.268 A 
ATOM     10  O   UNL     1       6.940   2.083  -0.559  0.00  0.00    -0.267 OA
ATOM     11  N   UNL     1       7.926   4.070  -0.307  0.00  0.00    -0.263 N 
ATOM     12  C   UNL     1       9.057   4.782  -0.164  0.00  0.00    +0.333 A 
ATOM     13  O   UNL     1       8.984   5.991  -0.060  0.00  0.00    -0.246 OA
ATOM     14  N   UNL     1      10.268   4.196  -0.133  0.00  0.00    -0.282 N 
ATOM     15  C   UNL     1      11.472   5.017   0.024  0.00  0.00    +0.155 C 
ATOM     16  C   UNL     1       6.634   4.761  -0.332  0.00  0.00    +0.157 C 
ENDROOT
BRANCH   8  17
ATOM     17  N   UNL     1       8.311  -0.182  -0.446  0.00  0.00    -0.264 N 
ATOM     18  H   UNL     1       8.347  -1.186  -0.894  0.00  0.00    +0.194 HD
BRANCH  17  19
ATOM     19  O   UNL     1       7.143   0.253   0.227  0.00  0.00    -0.265 OA
BRANCH  19  20
ATOM     20  C   UNL     1       6.090  -0.714   0.246  0.00  0.00    +0.288 C 
BRANCH  20  21
ATOM     21  C   UNL     1       4.903  -0.149   0.983  0.00  0.00    +0.246 C 
ATOM     22  O   UNL     1       4.954   0.971   1.445  0.00  0.00    -0.273 OA
ATOM     23  N   UNL     1       3.786  -0.888   1.127  0.00  0.00    -0.284 N 
ATOM     24  H   UNL     1       3.769  -1.933   0.784  0.00  0.00    +0.155 HD
BRANCH  23  25
ATOM     25  C   UNL     1       2.646  -0.326   1.714  0.00  0.00    +0.034 A 
ATOM     26  C   UNL     1       2.426   1.043   1.634  0.00  0.00    +0.024 A 
ATOM     27  C   UNL     1       1.301   1.595   2.215  0.00  0.00    +0.017 A 
ATOM     28  C   UNL     1       0.393   0.785   2.875  0.00  0.00    +0.018 A 
ATOM     29  C   UNL     1       0.610  -0.579   2.955  0.00  0.00    +0.017 A 
ATOM     30  C   UNL     1       1.734  -1.136   2.377  0.00  0.00    +0.024 A 
ATOM     31 BR   UNL     1      -1.142   1.546   3.675  0.00  0.00    -0.050 Br
ENDBRANCH  23  25
ENDBRANCH  20  21
ENDBRANCH  19  20
ENDBRANCH  17  19
ENDBRANCH   8  17
TORSDOF 5
