REMARK  Name = ZINC08722172
REMARK  7 active torsions:
REMARK  status: ('A' for Active; 'I' for Inactive)
REMARK    1  A    between atoms: C_4  and  C_7
REMARK    2  A    between atoms: C_7  and  N_62
REMARK    3  A    between atoms: C_18  and  C_21
REMARK    4  A    between atoms: C_24  and  O_27
REMARK    5  A    between atoms: O_27  and  C_28
REMARK    6  A    between atoms: C_28  and  C_30
REMARK    7  A    between atoms: C_31  and  C_32
REMARK                            x       y       z     vdW  Elec       q    Type
REMARK                         _______ _______ _______ _____ _____    ______ ____
ROOT
ATOM      1  C   UNL     1      -7.470  -8.407  -6.663  0.00  0.00    -0.073 C 
ATOM      2  C   UNL     1      -6.819  -8.628  -5.295  0.00  0.00    +0.018 C 
ATOM      3  C   UNL     1      -7.332  -7.552  -4.344  0.00  0.00    -0.027 A 
ATOM      4  C   UNL     1      -7.916  -6.436  -4.838  0.00  0.00    -0.021 A 
ATOM      5  S   UNL     1      -8.362  -5.484  -3.411  0.00  0.00    -0.080 S 
ATOM      6  C   UNL     1      -7.787  -6.542  -2.193  0.00  0.00    +0.080 A 
ATOM      7  C   UNL     1      -7.243  -7.629  -2.896  0.00  0.00    +0.068 A 
ATOM      8  C   UNL     1      -6.654  -8.731  -2.102  0.00  0.00    +0.248 C 
ATOM      9  O   UNL     1      -6.273  -9.760  -2.630  0.00  0.00    -0.270 OA
ATOM     10  N   UNL     1      -6.556  -8.549  -0.768  0.00  0.00    -0.289 N 
ATOM     11  C   UNL     1      -6.778  -7.264  -0.113  0.00  0.00    +0.190 C 
ATOM     12  N   UNL     1      -7.795  -6.469  -0.824  0.00  0.00    -0.316 N 
ATOM     13  C   UNL     1      -8.127  -6.107  -6.282  0.00  0.00    -0.035 C 
ATOM     14  H   UNL     1      -6.327  -9.313  -0.216  0.00  0.00    +0.151 HD
ATOM     15  H   UNL     1      -8.439  -5.922  -0.348  0.00  0.00    +0.149 HD
ATOM     16  N   UNL     1      -7.263  -7.006  -7.084  0.00  0.00    +0.386 N 
ATOM     17  H   UNL     1      -6.280  -6.752  -6.928  0.00  0.00    -0.081 HD
ENDROOT
BRANCH  11  18
ATOM     18  C   UNL     1      -5.482  -6.495  -0.084  0.00  0.00    -0.009 A 
ATOM     19  C   UNL     1      -4.278  -7.173  -0.028  0.00  0.00    +0.010 A 
ATOM     20  C   UNL     1      -3.089  -6.470  -0.001  0.00  0.00    +0.047 A 
ATOM     21  C   UNL     1      -3.104  -5.083  -0.030  0.00  0.00    +0.132 A 
ATOM     22  C   UNL     1      -4.313  -4.405  -0.082  0.00  0.00    +0.047 A 
ATOM     23  C   UNL     1      -5.499  -5.113  -0.113  0.00  0.00    +0.010 A 
BRANCH  21  24
ATOM     24  O   UNL     1      -1.935  -4.390  -0.004  0.00  0.00    -0.423 OA
BRANCH  24  25
ATOM     25  C   UNL     1      -1.212  -4.322  -1.142  0.00  0.00    +0.337 C 
ATOM     26  O   UNL     1      -1.565  -4.946  -2.125  0.00  0.00    -0.245 OA
BRANCH  25  27
ATOM     27  C   UNL     1      -0.045  -3.527  -1.191  0.00  0.00    +0.095 C 
ATOM     28  C   UNL     1       0.682  -3.460  -2.335  0.00  0.00    +0.053 C 
BRANCH  28  29
ATOM     29  C   UNL     1       1.851  -2.664  -2.385  0.00  0.00    +0.128 A 
ATOM     30  C   UNL     1       2.681  -2.504  -3.476  0.00  0.00    +0.049 A 
ATOM     31  C   UNL     1       3.707  -1.635  -3.074  0.00  0.00    +0.042 A 
ATOM     32  C   UNL     1       3.469  -1.306  -1.784  0.00  0.00    +0.195 A 
ATOM     33  O   UNL     1       2.354  -1.925  -1.373  0.00  0.00    -0.464 OA
ENDBRANCH  28  29
ENDBRANCH  25  27
ENDBRANCH  24  25
ENDBRANCH  21  24
ENDBRANCH  11  18
BRANCH  16  34
ATOM     34  C   UNL     1      -7.575  -6.858  -8.522  0.00  0.00    -0.043 C 
BRANCH  34  38
ATOM     35  C   UNL     1     -11.557  -8.176  -9.328  0.00  0.00    +0.000 A 
ATOM     36  C   UNL     1     -11.320  -6.855  -8.996  0.00  0.00    +0.000 A 
ATOM     37  C   UNL     1     -10.031  -6.428  -8.735  0.00  0.00    +0.002 A 
ATOM     38  C   UNL     1      -8.980  -7.323  -8.806  0.00  0.00    -0.064 A 
ATOM     39  C   UNL     1      -9.216  -8.643  -9.142  0.00  0.00    +0.002 A 
ATOM     40  C   UNL     1     -10.506  -9.070  -9.398  0.00  0.00    +0.000 A 
ENDBRANCH  34  38
ENDBRANCH  16  34
TORSDOF 7
