REMARK  Name = ZINC40827177
REMARK  4 active torsions:
REMARK  status: ('A' for Active; 'I' for Inactive)
REMARK    1  A    between atoms: C_4  and  O_23
REMARK    2  A    between atoms: C_5  and  N_7
REMARK    3  A    between atoms: N_7  and  C_8
REMARK    4  A    between atoms: N_13  and  C_16
REMARK                            x       y       z     vdW  Elec       q    Type
REMARK                         _______ _______ _______ _____ _____    ______ ____
ROOT
ATOM      1  C   UNL     1      -0.022  -2.832  -0.013  0.00  0.00    +0.167 C 
ATOM      2  C   UNL     1       0.189  -4.249  -0.584  0.00  0.00    +0.128 C 
ATOM      3  C   UNL     1      -0.173  -5.155   0.572  0.00  0.00    +0.229 C 
ATOM      4  O   UNL     1      -0.144  -6.367   0.551  0.00  0.00    -0.275 OA
ATOM      5  N   UNL     1      -0.530  -4.407   1.623  0.00  0.00    -0.206 N 
ATOM      6  C   UNL     1      -0.484  -3.083   1.406  0.00  0.00    +0.247 C 
ATOM      7  O   UNL     1      -0.765  -2.225   2.214  0.00  0.00    -0.273 OA
ENDROOT
BRANCH   5   8
ATOM      8  C   UNL     1      -0.922  -4.960   2.851  0.00  0.00    +0.079 A 
ATOM      9  C   UNL     1       0.025  -5.208   3.836  0.00  0.00    +0.027 A 
ATOM     10  C   UNL     1      -0.364  -5.753   5.045  0.00  0.00    +0.002 A 
ATOM     11  C   UNL     1      -1.694  -6.051   5.275  0.00  0.00    +0.003 A 
ATOM     12  C   UNL     1      -2.641  -5.806   4.298  0.00  0.00    +0.040 A 
ATOM     13  C   UNL     1      -2.259  -5.255   3.087  0.00  0.00    +0.145 A 
ATOM     14  F   UNL     1      -3.185  -5.010   2.134  0.00  0.00    -0.204 F 
ENDBRANCH   5   8
BRANCH   1  15
ATOM     15  N   UNL     1       1.235  -2.080  -0.021  0.00  0.00    -0.330 N 
ATOM     16  H   UNL     1       2.082  -2.552  -0.032  0.00  0.00    +0.147 HD
BRANCH  15  21
ATOM     17  C   UNL     1      -0.017   1.378   0.010  0.00  0.00    +0.002 A 
ATOM     18  C   UNL     1       1.169   2.089   0.002  0.00  0.00    +0.004 A 
ATOM     19  C   UNL     1       2.380   1.421  -0.013  0.00  0.00    +0.047 A 
ATOM     20  C   UNL     1       2.407   0.036  -0.021  0.00  0.00    +0.138 A 
ATOM     21  C   UNL     1       1.213  -0.681  -0.013  0.00  0.00    +0.070 A 
ATOM     22  C   UNL     1       0.002  -0.004   0.002  0.00  0.00    +0.026 A 
BRANCH  20  23
ATOM     23  O   UNL     1       3.598  -0.622  -0.036  0.00  0.00    -0.505 OA
ATOM     24  H   UNL     1       3.950  -0.817   0.843  0.00  0.00    +0.292 HD
ENDBRANCH  20  23
ENDBRANCH  15  21
ENDBRANCH   1  15
TORSDOF 4
