REMARK  Name = ZINC10609070
REMARK  14 active torsions:
REMARK  status: ('A' for Active; 'I' for Inactive)
REMARK    1  A    between atoms: C_1  and  C_2
REMARK    2  A    between atoms: C_6  and  C_35
REMARK    3  A    between atoms: C_7  and  N_8
REMARK    4  A    between atoms: C_9  and  C_11
REMARK    5  A    between atoms: C_11  and  N_69
REMARK    6  A    between atoms: C_12  and  C_13
REMARK    7  A    between atoms: C_12  and  N_69
REMARK    8  A    between atoms: N_17  and  C_22
REMARK    9  A    between atoms: N_20  and  C_21
REMARK   10  A    between atoms: C_23  and  C_24
REMARK   11  A    between atoms: C_23  and  N_69
REMARK   12  A    between atoms: N_26  and  C_27
REMARK   13  A    between atoms: C_28  and  C_34
REMARK   14  A    between atoms: C_32  and  C_33
REMARK                            x       y       z     vdW  Elec       q    Type
REMARK                         _______ _______ _______ _____ _____    ______ ____
ROOT
ATOM      1  N   UNL     1      -1.713   3.910   3.620  0.00  0.00    +0.395 N 
ATOM      2  H   UNL     1      -1.784   4.216   2.642  0.00  0.00    -0.080 HD
ENDROOT
BRANCH   1   3
ATOM      3  C   UNL     1      -0.347   4.186   4.111  0.00  0.00    +0.020 C 
BRANCH   3   5
ATOM      4  N   UNL     1       1.201   6.115   4.165  0.00  0.00    -0.287 N 
ATOM      5  C   UNL     1      -0.008   5.626   3.824  0.00  0.00    +0.201 C 
ATOM      6  O   UNL     1      -0.823   6.345   3.286  0.00  0.00    -0.278 OA
ATOM      7  H   UNL     1       1.883   5.521   4.514  0.00  0.00    +0.155 HD
BRANCH   4  14
ATOM      8  C   UNL     1       0.844   7.283   1.595  0.00  0.00    +0.045 C 
ATOM      9  C   UNL     1       1.310   8.090   2.780  0.00  0.00    -0.029 A 
ATOM     10  C   UNL     1       1.572   9.439   2.637  0.00  0.00    +0.005 A 
ATOM     11  C   UNL     1       2.005  10.179   3.723  0.00  0.00    +0.001 A 
ATOM     12  C   UNL     1       2.172   9.572   4.954  0.00  0.00    +0.005 A 
ATOM     13  C   UNL     1       1.906   8.226   5.104  0.00  0.00    -0.029 A 
ATOM     14  C   UNL     1       1.471   7.480   4.017  0.00  0.00    +0.039 A 
ATOM     15  C   UNL     1       2.086   7.566   6.447  0.00  0.00    +0.045 C 
ENDBRANCH   4  14
ENDBRANCH   3   5
ENDBRANCH   1   3
BRANCH   1  16
ATOM     16  C   UNL     1      -2.701   4.656   4.429  0.00  0.00    -0.023 C 
BRANCH  16  17
ATOM     17  C   UNL     1      -4.072   4.447   3.839  0.00  0.00    +0.012 A 
ATOM     18  C   UNL     1      -5.009   3.760   4.527  0.00  0.00    +0.090 A 
ATOM     19  C   UNL     1      -6.287   3.572   3.949  0.00  0.00    +0.256 A 
ATOM     20  O   UNL     1      -7.147   2.951   4.548  0.00  0.00    -0.268 OA
ATOM     21  N   UNL     1      -6.546   4.091   2.732  0.00  0.00    -0.264 N 
ATOM     22  C   UNL     1      -5.596   4.777   2.071  0.00  0.00    +0.332 A 
ATOM     23  O   UNL     1      -5.843   5.240   0.974  0.00  0.00    -0.246 OA
ATOM     24  N   UNL     1      -4.375   4.958   2.606  0.00  0.00    -0.302 N 
ATOM     25  C   UNL     1      -3.360   5.710   1.863  0.00  0.00    +0.153 C 
ATOM     26  C   UNL     1      -7.868   3.908   2.127  0.00  0.00    +0.157 C 
ENDBRANCH  16  17
ENDBRANCH   1  16
BRANCH   1  27
ATOM     27  C   UNL     1      -1.993   2.461   3.692  0.00  0.00    +0.020 C 
BRANCH  27  28
ATOM     28  C   UNL     1      -3.111   2.138   2.733  0.00  0.00    +0.201 C 
ATOM     29  O   UNL     1      -3.123   2.635   1.627  0.00  0.00    -0.278 OA
ATOM     30  N   UNL     1      -4.096   1.297   3.106  0.00  0.00    -0.287 N 
ATOM     31  H   UNL     1      -4.785   1.599   3.718  0.00  0.00    +0.155 HD
BRANCH  30  32
ATOM     32  C   UNL     1      -4.125  -0.011   2.610  0.00  0.00    +0.039 A 
ATOM     33  C   UNL     1      -4.766  -1.013   3.326  0.00  0.00    -0.029 A 
ATOM     34  C   UNL     1      -4.797  -2.302   2.830  0.00  0.00    +0.005 A 
ATOM     35  C   UNL     1      -4.180  -2.597   1.629  0.00  0.00    +0.001 A 
ATOM     36  C   UNL     1      -3.536  -1.603   0.916  0.00  0.00    +0.005 A 
ATOM     37  C   UNL     1      -3.506  -0.311   1.403  0.00  0.00    -0.029 A 
ATOM     38  C   UNL     1      -2.804   0.773   0.625  0.00  0.00    +0.045 C 
ATOM     39  C   UNL     1      -5.433  -0.693   4.638  0.00  0.00    +0.045 C 
ENDBRANCH  30  32
ENDBRANCH  27  28
ENDBRANCH   1  27
TORSDOF 8
