REMARK  Name = ZINC67105578
REMARK  6 active torsions:
REMARK  status: ('A' for Active; 'I' for Inactive)
REMARK    1  A    between atoms: C_1  and  C_2
REMARK    2  A    between atoms: C_2  and  C_4
REMARK    3  A    between atoms: C_2  and  N_15
REMARK    4  A    between atoms: C_4  and  C_5
REMARK    5  A    between atoms: N_7  and  N_8
REMARK    6  A    between atoms: C_16  and  C_18
REMARK                            x       y       z     vdW  Elec       q    Type
REMARK                         _______ _______ _______ _____ _____    ______ ____
ROOT
ATOM      1  C   UNL     1       0.718  -0.497  -1.257  0.00  0.00    +0.119 C 
ENDROOT
BRANCH   1   2
ATOM      2  C   UNL     1       0.632  -2.000  -1.327  0.00  0.00    +0.231 C 
ATOM      3  O   UNL     1       0.054  -2.616  -0.457  0.00  0.00    -0.274 OA
ATOM      4  N   UNL     1       1.196  -2.660  -2.358  0.00  0.00    -0.230 N 
ATOM      5  H   UNL     1       1.658  -2.168  -3.055  0.00  0.00    +0.173 HD
BRANCH   4   6
ATOM      6  N   UNL     1       1.116  -4.057  -2.424  0.00  0.00    -0.195 N 
ATOM      7  C   UNL     1       2.196  -5.016  -2.134  0.00  0.00    +0.228 C 
ATOM      8  C   UNL     1       1.546  -6.366  -2.365  0.00  0.00    +0.240 C 
ATOM      9  O   UNL     1       2.062  -7.456  -2.245  0.00  0.00    -0.274 OA
ATOM     10  N   UNL     1       0.277  -6.101  -2.732  0.00  0.00    -0.237 N 
ATOM     11  C   UNL     1       0.035  -4.785  -2.759  0.00  0.00    +0.325 C 
ATOM     12  O   UNL     1      -1.040  -4.302  -3.055  0.00  0.00    -0.251 OA
ATOM     13  H   UNL     1      -0.382  -6.780  -2.946  0.00  0.00    +0.159 HD
ENDBRANCH   4   6
ENDBRANCH   1   2
BRANCH   1  15
ATOM     14  C   UNL     1      -0.019   1.526   0.010  0.00  0.00    +0.028 C 
ATOM     15  C   UNL     1       0.002  -0.004   0.002  0.00  0.00    +0.079 C 
BRANCH  15  16
ATOM     16  N   UNL     1       0.711  -0.489   1.189  0.00  0.00    -0.312 N 
ATOM     17  C   UNL     1       0.051  -0.633   2.355  0.00  0.00    +0.216 C 
ATOM     18  O   UNL     1      -1.129  -0.361   2.423  0.00  0.00    -0.276 OA
ATOM     19  H   UNL     1       1.654  -0.707   1.135  0.00  0.00    +0.149 HD
BRANCH  17  20
ATOM     20  C   UNL     1       0.780  -1.133   3.576  0.00  0.00    +0.075 C 
ATOM     21  C   UNL     1       1.347  -2.526   3.298  0.00  0.00    +0.013 C 
ATOM     22  C   UNL     1       2.087  -3.033   4.537  0.00  0.00    +0.001 C 
ATOM     23  C   UNL     1       1.116  -3.104   5.717  0.00  0.00    +0.000 C 
ATOM     24  C   UNL     1       0.549  -1.711   5.996  0.00  0.00    +0.001 C 
ATOM     25  C   UNL     1      -0.191  -1.204   4.756  0.00  0.00    +0.013 C 
ENDBRANCH  17  20
ENDBRANCH  15  16
ENDBRANCH   1  15
TORSDOF 5
