REMARK  Name = ZINC19527952
REMARK  6 active torsions:
REMARK  status: ('A' for Active; 'I' for Inactive)
REMARK    1  A    between atoms: C_1  and  C_2
REMARK    2  A    between atoms: C_2  and  N_3
REMARK    3  A    between atoms: N_6  and  C_9
REMARK    4  A    between atoms: C_9  and  C_11
REMARK    5  A    between atoms: C_9  and  C_26
REMARK    6  A    between atoms: N_30  and  C_31
REMARK                            x       y       z     vdW  Elec       q    Type
REMARK                         _______ _______ _______ _____ _____    ______ ____
ROOT
ATOM      1  C   UNL     1       2.591  -0.626  -0.056  0.00  0.00    +0.162 C 
ENDROOT
BRANCH   1   2
ATOM      2  C   UNL     1       2.972  -1.079  -1.442  0.00  0.00    +0.042 A 
ATOM      3  C   UNL     1       2.105  -1.827  -2.171  0.00  0.00    +0.021 A 
ATOM      4  C   UNL     1       2.502  -2.247  -3.514  0.00  0.00    +0.003 A 
ATOM      5  C   UNL     1       1.645  -3.013  -4.314  0.00  0.00    +0.059 A 
ATOM      6  C   UNL     1       2.049  -3.400  -5.572  0.00  0.00    +0.167 A 
ATOM      7  C   UNL     1       3.312  -3.030  -6.053  0.00  0.00    +0.168 A 
ATOM      8  C   UNL     1       4.164  -2.273  -5.270  0.00  0.00    +0.075 A 
ATOM      9  C   UNL     1       3.771  -1.874  -3.999  0.00  0.00    +0.053 A 
ATOM     10  N   UNL     1       4.608  -1.117  -3.204  0.00  0.00    -0.322 N 
ATOM     11  H   UNL     1       5.600  -0.822  -3.576  0.00  0.00    +0.169 HD
ATOM     12  C   UNL     1       4.230  -0.731  -1.973  0.00  0.00    +0.254 A 
ATOM     13  O   UNL     1       4.995  -0.063  -1.299  0.00  0.00    -0.268 OA
ATOM     14  O   UNL     1       3.461  -3.537  -7.311  0.00  0.00    -0.453 OA
ATOM     15  C   UNL     1       2.457  -4.560  -7.437  0.00  0.00    +0.466 C 
ATOM     16  O   UNL     1       1.418  -4.136  -6.535  0.00  0.00    -0.453 OA
ENDBRANCH   1   2
BRANCH   1  20
ATOM     17  N   UNL     1       4.594  -2.498   3.157  0.00  0.00    +0.381 N 
ATOM     18  C   UNL     1       4.402  -1.043   3.220  0.00  0.00    -0.063 C 
ATOM     19  C   UNL     1       3.275  -0.638   2.267  0.00  0.00    +0.067 C 
ATOM     20  N   UNL     1       3.615  -1.063   0.902  0.00  0.00    -0.292 NA
ATOM     21  C   UNL     1       3.806  -2.519   0.839  0.00  0.00    +0.067 C 
ATOM     22  C   UNL     1       4.933  -2.924   1.792  0.00  0.00    -0.063 C 
ATOM     23  H   UNL     1       3.644  -2.978   3.437  0.00  0.00    -0.082 HD
BRANCH  17  25
ATOM     24  C   UNL     1       5.968  -4.402   3.853  0.00  0.00    -0.017 C 
ATOM     25  C   UNL     1       5.618  -2.936   4.115  0.00  0.00    -0.082 C 
ENDBRANCH  17  25
ENDBRANCH   1  20
BRANCH   1  26
ATOM     26  C   UNL     1       2.488   0.878  -0.030  0.00  0.00    +0.173 A 
ATOM     27  N   UNL     1       3.484   1.730  -0.030  0.00  0.00    -0.111 NA
ATOM     28  N   UNL     1       2.990   2.919  -0.003  0.00  0.00    -0.023 NA
ATOM     29  N   UNL     1       1.705   2.848   0.008  0.00  0.00    -0.044 NA
ATOM     30  N   UNL     1       1.357   1.606  -0.002  0.00  0.00    -0.224 N 
BRANCH  30  31
ATOM     31  C   UNL     1      -0.013   1.086   0.008  0.00  0.00    +0.111 C 
ATOM     32  C   UNL     1      -0.763   1.597   1.255  0.00  0.00    +0.027 C 
ATOM     33  C   UNL     1      -1.531   2.845   0.750  0.00  0.00    +0.002 C 
ATOM     34  C   UNL     1      -1.978   2.421  -0.670  0.00  0.00    +0.002 C 
ATOM     35  C   UNL     1      -0.784   1.609  -1.216  0.00  0.00    +0.027 C 
ENDBRANCH  30  31
ENDBRANCH   1  26
TORSDOF 5
