REMARK  Name = ZINC00656697
REMARK  12 active torsions:
REMARK  status: ('A' for Active; 'I' for Inactive)
REMARK    1  A    between atoms: C_1  and  C_2
REMARK    2  A    between atoms: C_5  and  S_8
REMARK    3  A    between atoms: S_8  and  N_11
REMARK    4  A    between atoms: N_11  and  C_12
REMARK    5  A    between atoms: N_11  and  C_30
REMARK    6  A    between atoms: C_12  and  C_13
REMARK    7  A    between atoms: N_15  and  C_16
REMARK    8  A    between atoms: C_17  and  C_29
REMARK    9  A    between atoms: N_18  and  C_28
REMARK   10  A    between atoms: N_19  and  C_22
REMARK   11  A    between atoms: C_34  and  O_36
REMARK   12  A    between atoms: O_36  and  C_37
REMARK                            x       y       z     vdW  Elec       q    Type
REMARK                         _______ _______ _______ _____ _____    ______ ____
ROOT
ATOM      1  N   UNL     1      -1.324   2.355   7.514  0.00  0.00    -0.194 N 
ENDROOT
BRANCH   1   2
ATOM      2  C   UNL     1      -0.290   2.058   6.624  0.00  0.00    +0.055 A 
ATOM      3  C   UNL     1       0.406   0.861   6.740  0.00  0.00    +0.025 A 
ATOM      4  C   UNL     1       1.429   0.568   5.860  0.00  0.00    +0.005 A 
ATOM      5  C   UNL     1       1.764   1.464   4.862  0.00  0.00    +0.046 A 
ATOM      6  C   UNL     1       1.073   2.661   4.742  0.00  0.00    +0.122 A 
ATOM      7  C   UNL     1       0.049   2.961   5.626  0.00  0.00    +0.070 A 
BRANCH   6   8
ATOM      8  O   UNL     1       1.404   3.541   3.760  0.00  0.00    -0.495 OA
ATOM      9  C   UNL     1       2.473   3.169   2.889  0.00  0.00    +0.277 C 
ENDBRANCH   6   8
ENDBRANCH   1   2
BRANCH   1  10
ATOM     10  S   UNL     1      -1.012   2.479   9.136  0.00  0.00    +0.075 S 
ATOM     11  O   UNL     1      -2.214   2.132   9.809  0.00  0.00    -0.150 OA
ATOM     12  O   UNL     1       0.214   1.798   9.366  0.00  0.00    -0.150 OA
BRANCH  10  17
ATOM     13  C   UNL     1       0.005   8.308  10.316  0.00  0.00    +0.044 C 
ATOM     14  C   UNL     1      -0.249   6.852  10.022  0.00  0.00    -0.050 A 
ATOM     15  C   UNL     1      -1.532   6.345  10.099  0.00  0.00    +0.005 A 
ATOM     16  C   UNL     1      -1.765   5.009   9.828  0.00  0.00    +0.029 A 
ATOM     17  C   UNL     1      -0.715   4.181   9.480  0.00  0.00    +0.109 A 
ATOM     18  C   UNL     1       0.570   4.687   9.408  0.00  0.00    +0.029 A 
ATOM     19  C   UNL     1       0.802   6.024   9.674  0.00  0.00    +0.005 A 
ENDBRANCH  10  17
ENDBRANCH   1  10
BRANCH   1  20
ATOM     20  C   UNL     1      -2.686   2.556   7.014  0.00  0.00    +0.227 C 
BRANCH  20  21
ATOM     21  C   UNL     1      -3.376   1.223   6.883  0.00  0.00    +0.237 C 
ATOM     22  O   UNL     1      -2.787   0.204   7.179  0.00  0.00    -0.274 OA
ATOM     23  N   UNL     1      -4.646   1.162   6.437  0.00  0.00    -0.278 N 
ATOM     24  H   UNL     1      -5.094   1.968   6.135  0.00  0.00    +0.155 HD
BRANCH  23  25
ATOM     25  C   UNL     1      -5.325  -0.073   6.409  0.00  0.00    +0.121 A 
ATOM     26  C   UNL     1      -5.902  -0.647   5.330  0.00  0.00    +0.059 A 
ATOM     27  N   UNL     1      -6.455  -1.840   5.712  0.00  0.00    -0.282 N 
ATOM     28  N   UNL     1      -6.232  -2.032   7.080  0.00  0.00    -0.216 N 
ATOM     29  C   UNL     1      -5.542  -0.970   7.545  0.00  0.00    +0.293 A 
ATOM     30  O   UNL     1      -5.170  -0.791   8.691  0.00  0.00    -0.264 OA
ATOM     31  C   UNL     1      -7.170  -2.766   4.830  0.00  0.00    +0.171 C 
ATOM     32  C   UNL     1      -5.929  -0.071   3.937  0.00  0.00    +0.067 C 
BRANCH  28  33
ATOM     33  C   UNL     1      -6.651  -3.132   7.835  0.00  0.00    +0.067 A 
ATOM     34  C   UNL     1      -7.967  -3.569   7.756  0.00  0.00    +0.028 A 
ATOM     35  C   UNL     1      -8.377  -4.660   8.497  0.00  0.00    +0.002 A 
ATOM     36  C   UNL     1      -7.481  -5.309   9.327  0.00  0.00    +0.000 A 
ATOM     37  C   UNL     1      -6.172  -4.873   9.412  0.00  0.00    +0.002 A 
ATOM     38  C   UNL     1      -5.754  -3.787   8.669  0.00  0.00    +0.028 A 
ENDBRANCH  28  33
ENDBRANCH  23  25
ENDBRANCH  20  21
ENDBRANCH   1  20
TORSDOF 8
