REMARK  Name = ZINC02755666
REMARK  11 active torsions:
REMARK  status: ('A' for Active; 'I' for Inactive)
REMARK    1  A    between atoms: C_1  and  C_2
REMARK    2  A    between atoms: C_3  and  C_8
REMARK    3  A    between atoms: N_5  and  C_7
REMARK    4  A    between atoms: C_8  and  N_9
REMARK    5  A    between atoms: C_10  and  C_12
REMARK    6  A    between atoms: C_17  and  C_33
REMARK    7  A    between atoms: C_20  and  C_23
REMARK    8  A    between atoms: C_26  and  O_31
REMARK    9  A    between atoms: C_27  and  O_29
REMARK   10  A    between atoms: O_29  and  C_30
REMARK   11  A    between atoms: O_31  and  C_32
REMARK                            x       y       z     vdW  Elec       q    Type
REMARK                         _______ _______ _______ _____ _____    ______ ____
ROOT
ATOM      1  C   UNL     1       2.940   0.924  -4.604  0.00  0.00    +0.149 A 
ATOM      2  C   UNL     1       3.320   1.428  -5.868  0.00  0.00    +0.078 A 
ATOM      3  C   UNL     1       4.643   1.677  -5.827  0.00  0.00    +0.119 A 
ATOM      4  N   UNL     1       5.100   1.343  -4.583  0.00  0.00    -0.238 N 
ATOM      5  N   UNL     1       4.016   0.883  -3.837  0.00  0.00    -0.164 NA
ATOM      6  C   UNL     1       6.500   1.475  -4.168  0.00  0.00    +0.215 C 
ATOM      7  C   UNL     1       7.382   1.556  -5.419  0.00  0.00    +0.063 C 
ATOM      8  C   UNL     1       6.826   2.611  -6.382  0.00  0.00    +0.104 C 
ATOM      9  N   UNL     1       5.483   2.184  -6.822  0.00  0.00    -0.322 N 
ATOM     10  H   UNL     1       5.200   2.252  -7.747  0.00  0.00    +0.148 HD
ENDROOT
BRANCH   8  11
ATOM     11  C   UNL     1       6.734   3.941  -5.678  0.00  0.00    -0.024 A 
ATOM     12  C   UNL     1       5.673   4.200  -4.831  0.00  0.00    +0.009 A 
ATOM     13  C   UNL     1       5.583   5.418  -4.183  0.00  0.00    +0.050 A 
ATOM     14  C   UNL     1       6.558   6.381  -4.382  0.00  0.00    +0.162 A 
ATOM     15  C   UNL     1       7.626   6.121  -5.235  0.00  0.00    +0.162 A 
ATOM     16  C   UNL     1       7.713   4.896  -5.877  0.00  0.00    +0.054 A 
BRANCH  15  17
ATOM     17  O   UNL     1       8.586   7.064  -5.433  0.00  0.00    -0.491 OA
ATOM     18  C   UNL     1       9.653   6.726  -6.322  0.00  0.00    +0.277 C 
ENDBRANCH  15  17
BRANCH  14  19
ATOM     19  O   UNL     1       6.472   7.580  -3.745  0.00  0.00    -0.491 OA
ATOM     20  C   UNL     1       5.348   7.778  -2.885  0.00  0.00    +0.277 C 
ENDBRANCH  14  19
ENDBRANCH   8  11
BRANCH   1  22
ATOM     21  N   UNL     1       1.347   0.058  -2.960  0.00  0.00    -0.306 N 
ATOM     22  C   UNL     1       1.576   0.520  -4.206  0.00  0.00    +0.264 C 
ATOM     23  O   UNL     1       0.661   0.603  -5.001  0.00  0.00    -0.268 OA
ATOM     24  H   UNL     1       2.077  -0.009  -2.325  0.00  0.00    +0.149 HD
BRANCH  21  25
ATOM     25  C   UNL     1      -0.006  -0.343  -2.566  0.00  0.00    +0.143 C 
BRANCH  25  28
ATOM     26  C   UNL     1      -0.018   1.503   0.010  0.00  0.00    +0.068 C 
ATOM     27  C   UNL     1       0.002  -0.004   0.002  0.00  0.00    +0.065 A 
ATOM     28  C   UNL     1       0.008  -0.818  -1.135  0.00  0.00    +0.010 A 
ATOM     29  C   UNL     1       0.028  -2.107  -0.725  0.00  0.00    +0.113 A 
ATOM     30  N   UNL     1       0.034  -2.109   0.625  0.00  0.00    -0.274 N 
ATOM     31  N   UNL     1       0.023  -0.777   1.058  0.00  0.00    -0.176 NA
ATOM     32  C   UNL     1       0.055  -3.295   1.485  0.00  0.00    +0.172 C 
ENDBRANCH  25  28
ENDBRANCH  21  25
ENDBRANCH   1  22
BRANCH   6  33
ATOM     33  C   UNL     1       6.903   0.259  -3.332  0.00  0.00    +0.412 C 
ATOM     34  F   UNL     1       6.751  -0.903  -4.096  0.00  0.00    -0.168 F 
ATOM     35  F   UNL     1       8.239   0.387  -2.938  0.00  0.00    -0.168 F 
ATOM     36  F   UNL     1       6.087   0.181  -2.198  0.00  0.00    -0.168 F 
ENDBRANCH   6  33
TORSDOF 7
