REMARK  Name = ZINC20289206
REMARK  6 active torsions:
REMARK  status: ('A' for Active; 'I' for Inactive)
REMARK    1  A    between atoms: C_1  and  C_2
REMARK    2  A    between atoms: C_2  and  N_19
REMARK    3  A    between atoms: N_8  and  C_11
REMARK    4  A    between atoms: N_19  and  C_20
REMARK    5  A    between atoms: C_20  and  C_21
REMARK    6  A    between atoms: C_21  and  O_22
REMARK                            x       y       z     vdW  Elec       q    Type
REMARK                         _______ _______ _______ _____ _____    ______ ____
ROOT
ATOM      1  C   UNL     1      -1.074   1.321   0.376  0.00  0.00    +0.061 C 
ATOM      2  C   UNL     1      -1.143  -0.184   0.415  0.00  0.00    +0.018 C 
ATOM      3  C   UNL     1      -0.482  -0.880   1.410  0.00  0.00    +0.116 C 
ATOM      4  C   UNL     1       0.185  -0.183   2.524  0.00  0.00    +0.258 C 
ATOM      5  N   UNL     1       0.810  -0.928   3.459  0.00  0.00    -0.235 N 
ATOM      6  C   UNL     1       0.833  -2.266   3.389  0.00  0.00    +0.320 C 
ATOM      7  O   UNL     1       1.413  -2.878   4.264  0.00  0.00    -0.251 OA
ATOM      8  N   UNL     1       0.248  -2.965   2.406  0.00  0.00    -0.190 N 
ATOM      9  C   UNL     1      -0.418  -2.353   1.406  0.00  0.00    +0.265 C 
ATOM     10  O   UNL     1      -0.948  -2.998   0.521  0.00  0.00    -0.269 OA
ATOM     11  O   UNL     1       0.172   1.031   2.598  0.00  0.00    -0.270 OA
ATOM     12  H   UNL     1       1.253  -0.484   4.199  0.00  0.00    +0.159 HD
ENDROOT
BRANCH   8  13
ATOM     13  C   UNL     1       0.327  -4.364   2.421  0.00  0.00    +0.046 A 
ATOM     14  C   UNL     1       1.326  -5.012   1.706  0.00  0.00    +0.025 A 
ATOM     15  C   UNL     1       1.402  -6.391   1.722  0.00  0.00    +0.022 A 
ATOM     16  C   UNL     1       0.484  -7.127   2.450  0.00  0.00    +0.041 A 
ATOM     17  C   UNL     1      -0.512  -6.484   3.163  0.00  0.00    +0.022 A 
ATOM     18  C   UNL     1      -0.590  -5.105   3.154  0.00  0.00    +0.025 A 
ATOM     19 CL   UNL     1       0.582  -8.860   2.467  0.00  0.00    -0.084 Cl
ENDBRANCH   8  13
BRANCH   2  20
ATOM     20  N   UNL     1      -1.848  -0.851  -0.520  0.00  0.00    -0.344 N 
ATOM     21  H   UNL     1      -1.934  -1.816  -0.466  0.00  0.00    +0.146 HD
BRANCH  20  22
ATOM     22  C   UNL     1      -2.484  -0.119  -1.618  0.00  0.00    +0.129 C 
BRANCH  22  23
ATOM     23  C   UNL     1      -3.216  -1.105  -2.532  0.00  0.00    +0.174 C 
BRANCH  23  24
ATOM     24  O   UNL     1      -4.289  -1.715  -1.812  0.00  0.00    -0.393 OA
ATOM     25  H   UNL     1      -4.798  -2.353  -2.331  0.00  0.00    +0.209 HD
ENDBRANCH  23  24
ENDBRANCH  22  23
ENDBRANCH  20  22
ENDBRANCH   2  20
TORSDOF 5
