REMARK  Name = ZINC06744056
REMARK  8 active torsions:
REMARK  status: ('A' for Active; 'I' for Inactive)
REMARK    1  A    between atoms: C_1  and  C_2
REMARK    2  A    between atoms: N_5  and  C_16
REMARK    3  A    between atoms: C_9  and  O_11
REMARK    4  A    between atoms: O_11  and  C_12
REMARK    5  A    between atoms: C_12  and  C_13
REMARK    6  A    between atoms: C_12  and  C_14
REMARK    7  A    between atoms: C_12  and  C_15
REMARK    8  A    between atoms: C_19  and  C_21
REMARK                            x       y       z     vdW  Elec       q    Type
REMARK                         _______ _______ _______ _____ _____    ______ ____
ROOT
ATOM      1  C   UNL     1       1.437   1.553   0.254  0.00  0.00    +0.030 C 
ATOM      2  C   UNL     1      -0.002   1.045   0.138  0.00  0.00    +0.093 C 
ATOM      3  C   UNL     1      -0.800   1.470   1.375  0.00  0.00    +0.128 C 
ATOM      4  N   UNL     1      -2.212   1.112   1.190  0.00  0.00    -0.313 N 
ATOM      5  C   UNL     1      -2.801   1.835   0.055  0.00  0.00    +0.125 C 
ATOM      6  C   UNL     1      -2.085   1.424  -1.236  0.00  0.00    +0.130 C 
ATOM      7  N   UNL     1      -0.636   1.626  -1.055  0.00  0.00    -0.262 N 
ATOM      8  C   UNL     1       0.088   2.324  -1.952  0.00  0.00    +0.404 C 
ATOM      9  O   UNL     1       1.296   2.395  -1.836  0.00  0.00    -0.226 OA
ENDROOT
BRANCH   4  10
ATOM     10  C   UNL     1      -2.936   1.333   2.349  0.00  0.00    +0.099 A 
ATOM     11  C   UNL     1      -4.301   1.050   2.370  0.00  0.00    +0.042 A 
ATOM     12  C   UNL     1      -5.014   1.269   3.518  0.00  0.00    +0.020 A 
ATOM     13  C   UNL     1      -4.338   1.774   4.640  0.00  0.00    +0.079 A 
ATOM     14  C   UNL     1      -2.969   2.034   4.547  0.00  0.00    +0.099 A 
ATOM     15  N   UNL     1      -2.242   1.819   3.421  0.00  0.00    -0.349 N 
ATOM     16  H   UNL     1      -1.234   2.010   3.378  0.00  0.00    +0.167 HD
BRANCH  13  17
ATOM     17  C   UNL     1      -5.062   2.027   5.899  0.00  0.00    +0.388 C 
ATOM     18  O   UNL     1      -6.253   1.798   5.970  0.00  0.00    -0.241 OA
ATOM     19  O   UNL     1      -4.404   2.511   6.970  0.00  0.00    -0.241 OA
ENDBRANCH  13  17
ENDBRANCH   4  10
BRANCH   8  20
ATOM     20  O   UNL     1      -0.527   2.944  -2.977  0.00  0.00    -0.445 OA
BRANCH  20  21
ATOM     21  C   UNL     1       0.315   3.678  -3.905  0.00  0.00    +0.107 C 
ATOM     22  C   UNL     1       1.321   2.720  -4.547  0.00  0.00    +0.055 C 
ATOM     23  C   UNL     1      -0.555   4.310  -4.993  0.00  0.00    +0.055 C 
ATOM     24  C   UNL     1       1.067   4.777  -3.151  0.00  0.00    +0.055 C 
ENDBRANCH  20  21
ENDBRANCH   8  20
TORSDOF 4
