REMARK  Name = ZINC08780224
REMARK  13 active torsions:
REMARK  status: ('A' for Active; 'I' for Inactive)
REMARK    1  A    between atoms: C_1  and  C_2
REMARK    2  A    between atoms: C_2  and  N_3
REMARK    3  A    between atoms: N_3  and  C_4
REMARK    4  A    between atoms: C_4  and  C_5
REMARK    5  A    between atoms: C_16  and  C_18
REMARK    6  A    between atoms: C_18  and  S_19
REMARK    7  A    between atoms: S_19  and  C_20
REMARK    8  A    between atoms: C_23  and  C_32
REMARK    9  A    between atoms: N_24  and  C_25
REMARK   10  A    between atoms: C_32  and  C_34
REMARK   11  A    between atoms: C_32  and  N_65
REMARK   12  A    between atoms: C_35  and  N_65
REMARK   13  A    between atoms: C_36  and  N_65
REMARK                            x       y       z     vdW  Elec       q    Type
REMARK                         _______ _______ _______ _____ _____    ______ ____
ROOT
ATOM      1  S   UNL     1      -0.938  -2.550  -0.003  0.00  0.00    -0.076 S 
ENDROOT
BRANCH   1   2
ATOM      2  C   UNL     1      -2.579  -3.190   0.010  0.00  0.00    +0.197 A 
ATOM      3  N   UNL     1      -3.690  -2.491   0.030  0.00  0.00    -0.122 NA
ATOM      4  N   UNL     1      -4.705  -3.280   0.029  0.00  0.00    -0.135 NA
ATOM      5  C   UNL     1      -4.307  -4.521   0.019  0.00  0.00    +0.125 A 
ATOM      6  N   UNL     1      -2.938  -4.510   0.006  0.00  0.00    -0.275 N 
BRANCH   6   7
ATOM      7  C   UNL     1      -2.081  -5.622  -0.008  0.00  0.00    +0.050 A 
ATOM      8  C   UNL     1      -2.073  -6.479  -1.100  0.00  0.00    +0.029 A 
ATOM      9  C   UNL     1      -1.225  -7.569  -1.115  0.00  0.00    +0.040 A 
ATOM     10  C   UNL     1      -0.391  -7.813  -0.036  0.00  0.00    +0.124 A 
ATOM     11  C   UNL     1      -0.402  -6.962   1.056  0.00  0.00    +0.040 A 
ATOM     12  C   UNL     1      -1.245  -5.868   1.072  0.00  0.00    +0.029 A 
ATOM     13  F   UNL     1       0.435  -8.882  -0.050  0.00  0.00    -0.205 F 
ENDBRANCH   6   7
BRANCH   5  14
ATOM     14  C   UNL     1      -5.191  -5.742   0.021  0.00  0.00    -0.003 C 
ATOM     15  C   UNL     1      -5.806  -5.929  -1.368  0.00  0.00    -0.005 C 
BRANCH  14  18
ATOM     16  C   UNL     1      -7.145  -6.743   1.041  0.00  0.00    -0.096 C 
ATOM     17  C   UNL     1      -5.707  -5.294   2.344  0.00  0.00    -0.096 C 
ATOM     18  N   UNL     1      -6.278  -5.547   1.003  0.00  0.00    +0.382 N 
ATOM     19  H   UNL     1      -6.840  -4.736   0.722  0.00  0.00    -0.082 HD
ENDBRANCH  14  18
ENDBRANCH   5  14
ENDBRANCH   1   2
BRANCH   1  20
ATOM     20  C   UNL     1      -1.293  -0.775   0.010  0.00  0.00    +0.173 C 
BRANCH  20  22
ATOM     21  N   UNL     1      -0.016   1.344   0.009  0.00  0.00    -0.297 N 
ATOM     22  C   UNL     1       0.002  -0.004   0.002  0.00  0.00    +0.226 C 
ATOM     23  O   UNL     1       1.060  -0.596  -0.011  0.00  0.00    -0.275 OA
BRANCH  21  25
ATOM     24  C   UNL     1      -1.733   2.300   1.465  0.00  0.00    +0.024 C 
ATOM     25  C   UNL     1      -1.295   2.059   0.019  0.00  0.00    +0.104 C 
ENDBRANCH  21  25
BRANCH  21  26
ATOM     26  C   UNL     1       1.242   2.093   0.001  0.00  0.00    +0.155 C 
BRANCH  26  27
ATOM     27  C   UNL     1       1.667   2.362  -1.444  0.00  0.00    +0.228 C 
ATOM     28  C   UNL     1       2.993   3.135  -1.459  0.00  0.00    +0.275 C 
ATOM     29  O   UNL     1       3.367   3.357  -2.823  0.00  0.00    -0.485 OA
ATOM     30  C   UNL     1       3.274   2.292  -3.665  0.00  0.00    +0.162 A 
ATOM     31  C   UNL     1       3.938   2.325  -4.881  0.00  0.00    +0.049 A 
ATOM     32  C   UNL     1       3.851   1.253  -5.748  0.00  0.00    +0.004 A 
ATOM     33  C   UNL     1       3.100   0.143  -5.405  0.00  0.00    +0.004 A 
ATOM     34  C   UNL     1       2.437   0.103  -4.194  0.00  0.00    +0.049 A 
ATOM     35  C   UNL     1       2.521   1.176  -3.319  0.00  0.00    +0.163 A 
ATOM     36  O   UNL     1       1.863   1.120  -2.128  0.00  0.00    -0.480 OA
ENDBRANCH  26  27
ENDBRANCH  21  26
ENDBRANCH  20  22
ENDBRANCH   1  20
TORSDOF 9
