REMARK  Name = ZINC38971081
REMARK  10 active torsions:
REMARK  status: ('A' for Active; 'I' for Inactive)
REMARK    1  A    between atoms: C_1  and  C_2
REMARK    2  A    between atoms: C_2  and  O_3
REMARK    3  A    between atoms: O_3  and  C_4
REMARK    4  A    between atoms: C_4  and  C_6
REMARK    5  A    between atoms: C_10  and  N_12
REMARK    6  A    between atoms: N_12  and  C_13
REMARK    7  A    between atoms: N_16  and  S_17
REMARK    8  A    between atoms: S_17  and  C_20
REMARK    9  A    between atoms: C_22  and  C_27
REMARK   10  A    between atoms: C_25  and  C_26
REMARK                            x       y       z     vdW  Elec       q    Type
REMARK                         _______ _______ _______ _____ _____    ______ ____
ROOT
ATOM      1  C   UNL     1       2.882  -6.154  -5.232  0.00  0.00    +0.237 C 
ATOM      2  C   UNL     1       1.888  -7.130  -5.819  0.00  0.00    +0.192 C 
ATOM      3  N   UNL     1       0.682  -6.745  -6.116  0.00  0.00    -0.110 NA
ATOM      4  N   UNL     1       2.268  -8.400  -6.030  0.00  0.00    -0.226 NA
ATOM      5  C   UNL     1       3.483  -8.815  -5.738  0.00  0.00    +0.089 A 
ATOM      6  C   UNL     1       3.851 -10.164  -5.974  0.00  0.00    +0.030 A 
ATOM      7  C   UNL     1       5.096 -10.594  -5.676  0.00  0.00    +0.002 A 
ATOM      8  C   UNL     1       6.080  -9.754  -5.129  0.00  0.00    +0.002 A 
ATOM      9  C   UNL     1       5.835  -8.452  -4.864  0.00  0.00    +0.027 A 
ATOM     10  C   UNL     1       4.503  -7.905  -5.160  0.00  0.00    +0.063 A 
ATOM     11  N   UNL     1       4.230  -6.653  -4.919  0.00  0.00    -0.359 N 
ATOM     12  H   UNL     1       4.902  -6.064  -4.541  0.00  0.00    +0.162 HD
ENDROOT
BRANCH   3  13
ATOM     13  S   UNL     1      -0.398  -7.824  -6.758  0.00  0.00    +0.101 S 
ATOM     14  O   UNL     1       0.099  -8.181  -8.040  0.00  0.00    -0.146 OA
ATOM     15  O   UNL     1      -0.659  -8.787  -5.747  0.00  0.00    -0.146 OA
BRANCH  13  16
ATOM     16  C   UNL     1      -1.907  -6.954  -7.026  0.00  0.00    +0.116 A 
ATOM     17  C   UNL     1      -2.382  -6.776  -8.312  0.00  0.00    +0.032 A 
ATOM     18  C   UNL     1      -3.566  -6.094  -8.523  0.00  0.00    -0.049 A 
ATOM     19  C   UNL     1      -4.274  -5.590  -7.447  0.00  0.00    +0.004 A 
ATOM     20  C   UNL     1      -3.799  -5.769  -6.162  0.00  0.00    +0.005 A 
ATOM     21  C   UNL     1      -2.617  -6.455  -5.951  0.00  0.00    -0.024 A 
ATOM     22  C   UNL     1      -2.102  -6.654  -4.549  0.00  0.00    +0.046 C 
ATOM     23  C   UNL     1      -4.084  -5.899  -9.924  0.00  0.00    +0.044 C 
ENDBRANCH  13  16
ENDBRANCH   3  13
BRANCH   1  24
ATOM     24  N   UNL     1       2.306  -5.617  -3.997  0.00  0.00    -0.318 N 
ATOM     25  H   UNL     1       1.966  -6.220  -3.318  0.00  0.00    +0.148 HD
BRANCH  24  30
ATOM     26  C   UNL     1       2.816  -2.000  -4.481  0.00  0.00    +0.061 A 
ATOM     27  C   UNL     1       2.115  -1.492  -3.385  0.00  0.00    +0.015 A 
ATOM     28  C   UNL     1       1.489  -2.353  -2.508  0.00  0.00    +0.003 A 
ATOM     29  C   UNL     1       1.551  -3.720  -2.710  0.00  0.00    +0.023 A 
ATOM     30  C   UNL     1       2.246  -4.235  -3.798  0.00  0.00    +0.030 A 
ATOM     31  C   UNL     1       2.875  -3.378  -4.688  0.00  0.00    +0.038 A 
BRANCH  26  32
ATOM     32  C   UNL     1       3.488  -1.080  -5.422  0.00  0.00    +0.339 C 
ATOM     33  O   UNL     1       4.093  -1.523  -6.377  0.00  0.00    -0.245 OA
BRANCH  32  34
ATOM     34  O   UNL     1       3.430   0.251  -5.220  0.00  0.00    -0.461 OA
BRANCH  34  36
ATOM     35  C   UNL     1       3.928   2.550  -5.776  0.00  0.00    +0.048 C 
ATOM     36  C   UNL     1       4.103   1.081  -6.168  0.00  0.00    +0.229 C 
ENDBRANCH  34  36
ENDBRANCH  32  34
ENDBRANCH  26  32
ENDBRANCH  24  30
ENDBRANCH   1  24
TORSDOF 7
