REMARK  Name = ZINC10584483
REMARK  9 active torsions:
REMARK  status: ('A' for Active; 'I' for Inactive)
REMARK    1  A    between atoms: C_1  and  C_2
REMARK    2  A    between atoms: C_2  and  C_4
REMARK    3  A    between atoms: C_2  and  O_17
REMARK    4  A    between atoms: N_6  and  C_7
REMARK    5  A    between atoms: C_10  and  N_14
REMARK    6  A    between atoms: O_17  and  C_18
REMARK    7  A    between atoms: C_18  and  C_20
REMARK    8  A    between atoms: C_24  and  N_26
REMARK    9  A    between atoms: C_27  and  C_29
REMARK                            x       y       z     vdW  Elec       q    Type
REMARK                         _______ _______ _______ _____ _____    ______ ____
ROOT
ATOM      1  C   UNL     1      -5.053  -7.324   1.704  0.00  0.00    +0.062 C 
ATOM      2  C   UNL     1      -4.565  -7.136   0.266  0.00  0.00    +0.259 C 
ENDROOT
BRANCH   2   3
ATOM      3  C   UNL     1      -4.352  -8.484  -0.372  0.00  0.00    +0.258 C 
ATOM      4  O   UNL     1      -3.236  -8.830  -0.700  0.00  0.00    -0.271 OA
ATOM      5  N   UNL     1      -5.400  -9.305  -0.580  0.00  0.00    -0.281 N 
ATOM      6  H   UNL     1      -6.301  -8.998  -0.393  0.00  0.00    +0.155 HD
BRANCH   5   7
ATOM      7  C   UNL     1      -5.189 -10.601  -1.065  0.00  0.00    +0.052 A 
ATOM      8  C   UNL     1      -3.969 -11.232  -0.857  0.00  0.00    +0.027 A 
ATOM      9  C   UNL     1      -3.763 -12.510  -1.337  0.00  0.00    +0.034 A 
ATOM     10  C   UNL     1      -4.770 -13.164  -2.024  0.00  0.00    +0.128 A 
ATOM     11  C   UNL     1      -5.986 -12.540  -2.232  0.00  0.00    +0.054 A 
ATOM     12  C   UNL     1      -6.201 -11.262  -1.750  0.00  0.00    +0.064 A 
ATOM     13 CL   UNL     1      -7.730 -10.482  -2.007  0.00  0.00    -0.082 Cl
BRANCH  10  14
ATOM     14  N   UNL     1      -4.546 -14.534  -2.536  0.00  0.00    +0.056 N 
ATOM     15  O   UNL     1      -3.475 -15.085  -2.353  0.00  0.00    -0.126 OA
ATOM     16  O   UNL     1      -5.432 -15.111  -3.141  0.00  0.00    -0.126 OA
ENDBRANCH  10  14
ENDBRANCH   5   7
ENDBRANCH   2   3
BRANCH   2  17
ATOM     17  O   UNL     1      -3.314  -6.399   0.272  0.00  0.00    -0.449 OA
BRANCH  17  18
ATOM     18  C   UNL     1      -3.394  -5.056   0.204  0.00  0.00    +0.340 C 
ATOM     19  O   UNL     1      -4.480  -4.516   0.141  0.00  0.00    -0.245 OA
BRANCH  18  20
ATOM     20  C   UNL     1      -2.162  -4.242   0.206  0.00  0.00    +0.061 A 
ATOM     21  C   UNL     1      -0.912  -4.861   0.278  0.00  0.00    +0.015 A 
ATOM     22  C   UNL     1       0.237  -4.098   0.279  0.00  0.00    +0.003 A 
ATOM     23  C   UNL     1       0.157  -2.719   0.203  0.00  0.00    +0.023 A 
ATOM     24  C   UNL     1      -1.082  -2.093   0.137  0.00  0.00    +0.034 A 
ATOM     25  C   UNL     1      -2.243  -2.851   0.135  0.00  0.00    +0.038 A 
BRANCH  24  26
ATOM     26  N   UNL     1      -1.157  -0.697   0.066  0.00  0.00    -0.286 N 
ATOM     27  C   UNL     1      -2.169  -0.045   0.672  0.00  0.00    +0.214 C 
ATOM     28  O   UNL     1      -3.061  -0.671   1.205  0.00  0.00    -0.276 OA
ATOM     29  C   UNL     1      -2.193   1.461   0.688  0.00  0.00    +0.109 C 
ATOM     30  H   UNL     1      -0.481  -0.199  -0.419  0.00  0.00    +0.155 HD
ENDBRANCH  24  26
ENDBRANCH  18  20
ENDBRANCH  17  18
ENDBRANCH   2  17
TORSDOF 7
