REMARK  Name = ZINC36087607
REMARK  8 active torsions:
REMARK  status: ('A' for Active; 'I' for Inactive)
REMARK    1  A    between atoms: C_1  and  N_2
REMARK    2  A    between atoms: N_2  and  C_3
REMARK    3  A    between atoms: C_3  and  C_4
REMARK    4  A    between atoms: C_10  and  C_12
REMARK    5  A    between atoms: N_15  and  C_30
REMARK    6  A    between atoms: N_18  and  C_20
REMARK    7  A    between atoms: C_23  and  C_26
REMARK    8  A    between atoms: C_30  and  C_31
REMARK                            x       y       z     vdW  Elec       q    Type
REMARK                         _______ _______ _______ _____ _____    ______ ____
ROOT
ATOM      1  C   UNL     1      -0.009   0.051  -2.456  0.00  0.00    +0.210 A 
ATOM      2  C   UNL     1      -0.361  -0.637  -3.713  0.00  0.00    +0.288 A 
ATOM      3  O   UNL     1      -0.536  -1.841  -3.744  0.00  0.00    -0.265 OA
ATOM      4  N   UNL     1      -0.481   0.117  -4.830  0.00  0.00    -0.253 N 
ATOM      5  C   UNL     1      -0.276   1.446  -4.738  0.00  0.00    +0.353 A 
ATOM      6  O   UNL     1      -0.381   2.136  -5.733  0.00  0.00    -0.244 OA
ATOM      7  N   UNL     1       0.042   2.022  -3.568  0.00  0.00    -0.181 N 
ATOM      8  N   UNL     1       0.164   1.355  -2.478  0.00  0.00    -0.152 NA
ENDROOT
BRANCH   7   9
ATOM      9  C   UNL     1       0.243   3.406  -3.534  0.00  0.00    +0.071 A 
ATOM     10  C   UNL     1      -0.694   4.261  -4.100  0.00  0.00    +0.028 A 
ATOM     11  C   UNL     1      -0.493   5.626  -4.064  0.00  0.00    +0.014 A 
ATOM     12  C   UNL     1       0.641   6.144  -3.466  0.00  0.00    +0.055 A 
ATOM     13  C   UNL     1       1.577   5.296  -2.901  0.00  0.00    +0.014 A 
ATOM     14  C   UNL     1       1.379   3.930  -2.928  0.00  0.00    +0.028 A 
BRANCH  12  15
ATOM     15  C   UNL     1       0.858   7.635  -3.429  0.00  0.00    +0.417 C 
ATOM     16  F   UNL     1       0.287   8.161  -2.265  0.00  0.00    -0.166 F 
ATOM     17  F   UNL     1       2.231   7.907  -3.440  0.00  0.00    -0.166 F 
ATOM     18  F   UNL     1       0.258   8.221  -4.549  0.00  0.00    -0.166 F 
ENDBRANCH  12  15
ENDBRANCH   7   9
BRANCH   1  21
ATOM     19  C   UNL     1       0.251   1.410   0.001  0.00  0.00    +0.132 C 
ATOM     20  N   UNL     1       0.318  -0.053  -0.035  0.00  0.00    -0.295 N 
ATOM     21  C   UNL     1       0.139  -0.707  -1.200  0.00  0.00    +0.272 C 
ATOM     22  O   UNL     1       0.099  -1.922  -1.214  0.00  0.00    -0.268 OA
BRANCH  20  23
ATOM     23  C   UNL     1       0.580  -0.804   1.195  0.00  0.00    +0.142 C 
BRANCH  23  24
ATOM     24  C   UNL     1      -0.726  -1.133   1.871  0.00  0.00    -0.030 A 
ATOM     25  C   UNL     1      -1.267  -0.255   2.791  0.00  0.00    +0.005 A 
ATOM     26  C   UNL     1      -2.466  -0.556   3.411  0.00  0.00    +0.000 A 
ATOM     27  C   UNL     1      -3.122  -1.734   3.111  0.00  0.00    +0.000 A 
ATOM     28  C   UNL     1      -2.581  -2.612   2.190  0.00  0.00    +0.000 A 
ATOM     29  C   UNL     1      -1.385  -2.309   1.567  0.00  0.00    +0.005 A 
ENDBRANCH  23  24
ENDBRANCH  20  23
ENDBRANCH   1  21
BRANCH   4  30
ATOM     30  C   UNL     1      -0.827  -0.498  -6.114  0.00  0.00    +0.165 C 
BRANCH  30  31
ATOM     31  C   UNL     1      -2.325  -0.516  -6.275  0.00  0.00    -0.027 A 
ATOM     32  C   UNL     1      -3.056  -1.596  -5.816  0.00  0.00    +0.008 A 
ATOM     33  C   UNL     1      -4.431  -1.614  -5.963  0.00  0.00    +0.038 A 
ATOM     34  C   UNL     1      -5.075  -0.549  -6.569  0.00  0.00    +0.123 A 
ATOM     35  C   UNL     1      -4.342   0.532  -7.028  0.00  0.00    +0.038 A 
ATOM     36  C   UNL     1      -2.968   0.550  -6.875  0.00  0.00    +0.008 A 
ATOM     37  F   UNL     1      -6.418  -0.565  -6.713  0.00  0.00    -0.205 F 
ENDBRANCH  30  31
ENDBRANCH   4  30
TORSDOF 7
