REMARK  Name = ZINC09012130
REMARK  6 active torsions:
REMARK  status: ('A' for Active; 'I' for Inactive)
REMARK    1  A    between atoms: C_1  and  O_2
REMARK    2  A    between atoms: O_2  and  C_3
REMARK    3  A    between atoms: C_6  and  N_37
REMARK    4  A    between atoms: C_8  and  N_9
REMARK    5  A    between atoms: C_14  and  C_30
REMARK    6  A    between atoms: C_30  and  C_31
REMARK                            x       y       z     vdW  Elec       q    Type
REMARK                         _______ _______ _______ _____ _____    ______ ____
ROOT
ATOM      1  N   UNL     1      -2.459   3.835   0.045  0.00  0.00    -0.206 N 
ATOM      2  C   UNL     1      -3.135   4.216  -1.093  0.00  0.00    +0.229 C 
ATOM      3  O   UNL     1      -2.973   3.819  -2.227  0.00  0.00    -0.275 OA
ATOM      4  C   UNL     1      -4.080   5.197  -0.624  0.00  0.00    +0.074 C 
ATOM      5  C   UNL     1      -5.281   5.947  -1.020  0.00  0.00    -0.053 C 
ATOM      6  C   UNL     1      -5.196   5.786   1.371  0.00  0.00    +0.050 C 
ATOM      7  C   UNL     1      -4.505   4.578   0.767  0.00  0.00    +0.088 C 
ATOM      8  C   UNL     1      -3.111   4.198   1.190  0.00  0.00    +0.229 C 
ATOM      9  O   UNL     1      -2.660   4.213   2.315  0.00  0.00    -0.275 OA
ATOM     10  C   UNL     1      -4.335   6.502   2.376  0.00  0.00    -0.028 A 
ATOM     11  C   UNL     1      -3.103   7.115   2.304  0.00  0.00    +0.004 A 
ATOM     12  C   UNL     1      -2.552   7.701   3.429  0.00  0.00    +0.000 A 
ATOM     13  C   UNL     1      -3.243   7.675   4.627  0.00  0.00    +0.002 A 
ATOM     14  C   UNL     1      -4.481   7.071   4.703  0.00  0.00    +0.023 A 
ATOM     15  C   UNL     1      -5.043   6.479   3.573  0.00  0.00    +0.036 A 
ATOM     16  N   UNL     1      -6.263   5.822   3.401  0.00  0.00    -0.286 N 
ATOM     17  C   UNL     1      -6.433   5.390   2.138  0.00  0.00    +0.211 C 
ATOM     18  O   UNL     1      -7.395   4.795   1.701  0.00  0.00    -0.277 OA
ATOM     19  H   UNL     1      -6.912   5.693   4.109  0.00  0.00    +0.155 HD
ATOM     20  N   UNL     1      -5.550   6.682   0.257  0.00  0.00    +0.394 N 
ATOM     21  H   UNL     1      -6.543   6.935   0.313  0.00  0.00    -0.083 HD
ATOM     22  H   UNL     1      -4.977   7.533   0.297  0.00  0.00    -0.083 HD
ENDROOT
BRANCH   1  28
ATOM     23  C   UNL     1      -1.222   1.752   0.017  0.00  0.00    +0.142 A 
ATOM     24  C   UNL     1      -0.013   1.076   0.008  0.00  0.00    +0.050 A 
ATOM     25  C   UNL     1       1.175   1.783   0.000  0.00  0.00    +0.036 A 
ATOM     26  C   UNL     1       1.161   3.166   0.007  0.00  0.00    +0.128 A 
ATOM     27  C   UNL     1      -0.041   3.848   0.022  0.00  0.00    +0.060 A 
ATOM     28  C   UNL     1      -1.237   3.145   0.030  0.00  0.00    +0.088 A 
BRANCH  26  29
ATOM     29  N   UNL     1       2.436   3.917  -0.001  0.00  0.00    +0.056 N 
ATOM     30  O   UNL     1       3.496   3.318  -0.014  0.00  0.00    -0.126 OA
ATOM     31  O   UNL     1       2.425   5.136   0.005  0.00  0.00    -0.126 OA
ENDBRANCH  26  29
BRANCH  23  33
ATOM     32  C   UNL     1      -2.299  -0.368   0.012  0.00  0.00    +0.277 C 
ATOM     33  O   UNL     1      -2.391   1.058   0.020  0.00  0.00    -0.493 OA
ENDBRANCH  23  33
ENDBRANCH   1  28
BRANCH   5  34
ATOM     34  C   UNL     1      -4.982   6.904  -2.176  0.00  0.00    +0.020 C 
BRANCH  34  35
ATOM     35  C   UNL     1      -6.261   7.560  -2.630  0.00  0.00    -0.049 A 
ATOM     36  C   UNL     1      -7.022   6.974  -3.624  0.00  0.00    +0.003 A 
ATOM     37  C   UNL     1      -8.198   7.574  -4.037  0.00  0.00    +0.000 A 
ATOM     38  C   UNL     1      -8.606   8.763  -3.463  0.00  0.00    +0.000 A 
ATOM     39  C   UNL     1      -7.842   9.351  -2.473  0.00  0.00    +0.000 A 
ATOM     40  C   UNL     1      -6.669   8.749  -2.056  0.00  0.00    +0.003 A 
ENDBRANCH  34  35
ENDBRANCH   5  34
TORSDOF 5
