REMARK  Name = ZINC38980597
REMARK  9 active torsions:
REMARK  status: ('A' for Active; 'I' for Inactive)
REMARK    1  A    between atoms: C_1  and  C_2
REMARK    2  A    between atoms: C_2  and  N_3
REMARK    3  A    between atoms: N_3  and  C_4
REMARK    4  A    between atoms: N_3  and  C_6
REMARK    5  A    between atoms: C_4  and  C_5
REMARK    6  A    between atoms: C_9  and  C_13
REMARK    7  A    between atoms: C_10  and  O_12
REMARK    8  A    between atoms: N_14  and  N_15
REMARK    9  A    between atoms: C_16  and  C_22
REMARK                            x       y       z     vdW  Elec       q    Type
REMARK                         _______ _______ _______ _____ _____    ______ ____
ROOT
ATOM      1  C   UNL     1      -4.053  -1.317   4.934  0.00  0.00    +0.142 C 
ATOM      2  N   UNL     1      -5.180  -1.965   4.938  0.00  0.00    -0.183 NA
ENDROOT
BRANCH   2   3
ATOM      3  N   UNL     1      -5.785  -2.312   6.152  0.00  0.00    -0.171 N 
ATOM      4  C   UNL     1      -7.104  -2.939   6.357  0.00  0.00    +0.280 C 
ATOM      5  N   UNL     1      -7.210  -3.066   7.819  0.00  0.00    -0.188 NA
ATOM      6  N   UNL     1      -6.178  -2.611   8.320  0.00  0.00    -0.219 N 
ATOM      7  C   UNL     1      -5.288  -2.152   7.399  0.00  0.00    +0.174 C 
ATOM      8  S   UNL     1      -3.762  -1.469   7.766  0.00  0.00    -0.015 S 
ATOM      9  H   UNL     1      -6.016  -2.586   9.276  0.00  0.00    +0.176 HD
BRANCH   4  10
ATOM     10  C   UNL     1      -7.152  -4.295   5.701  0.00  0.00    +0.062 A 
ATOM     11  C   UNL     1      -6.388  -4.536   4.574  0.00  0.00    +0.025 A 
ATOM     12  C   UNL     1      -6.441  -5.786   3.978  0.00  0.00    +0.003 A 
ATOM     13  C   UNL     1      -7.263  -6.751   4.539  0.00  0.00    +0.017 A 
ATOM     14  C   UNL     1      -7.998  -6.437   5.666  0.00  0.00    +0.083 A 
ATOM     15  N   UNL     1      -7.920  -5.238   6.210  0.00  0.00    -0.361 N 
ATOM     16  H   UNL     1      -8.443  -5.045   7.003  0.00  0.00    +0.165 HD
ENDBRANCH   4  10
ENDBRANCH   2   3
BRANCH   1  20
ATOM     17  C   UNL     1      -2.034  -0.583   1.270  0.00  0.00    +0.033 A 
ATOM     18  C   UNL     1      -1.491  -0.129   2.468  0.00  0.00    +0.024 A 
ATOM     19  C   UNL     1      -2.142  -0.365   3.658  0.00  0.00    +0.015 A 
ATOM     20  C   UNL     1      -3.354  -1.062   3.664  0.00  0.00    +0.036 A 
ATOM     21  C   UNL     1      -3.901  -1.519   2.456  0.00  0.00    +0.127 A 
ATOM     22  C   UNL     1      -3.241  -1.272   1.266  0.00  0.00    +0.069 A 
BRANCH  21  23
ATOM     23  O   UNL     1      -5.078  -2.197   2.454  0.00  0.00    -0.506 OA
ATOM     24  H   UNL     1      -5.857  -1.631   2.364  0.00  0.00    +0.292 HD
ENDBRANCH  21  23
BRANCH  17  25
ATOM     25  N   UNL     1      -1.369  -0.341   0.069  0.00  0.00    -0.330 N 
BRANCH  25  27
ATOM     26  C   UNL     1      -0.365   1.885  -0.072  0.00  0.00    +0.024 C 
ATOM     27  C   UNL     1      -0.096   0.385   0.070  0.00  0.00    +0.102 C 
ENDBRANCH  25  27
BRANCH  25  28
ATOM     28  C   UNL     1      -1.942  -0.812  -1.194  0.00  0.00    +0.102 C 
ATOM     29  C   UNL     1      -1.429  -2.223  -1.492  0.00  0.00    +0.024 C 
ENDBRANCH  25  28
ENDBRANCH  17  25
ENDBRANCH   1  20
TORSDOF 7
