REMARK  Name = ZINC48836038
REMARK  3 active torsions:
REMARK  status: ('A' for Active; 'I' for Inactive)
REMARK    1  A    between atoms: C_1  and  C_2
REMARK    2  A    between atoms: C_7  and  N_10
REMARK    3  A    between atoms: N_10  and  C_11
REMARK                            x       y       z     vdW  Elec       q    Type
REMARK                         _______ _______ _______ _____ _____    ______ ____
ROOT
ATOM      1  N   UNL     1      -0.612  -2.548   1.244  0.00  0.00    -0.326 N 
ATOM      2  H   UNL     1      -1.333  -2.000   0.898  0.00  0.00    +0.148 HD
ENDROOT
BRANCH   1   8
ATOM      3  C   UNL     1      -0.019   1.526   0.010  0.00  0.00    +0.007 C 
ATOM      4  C   UNL     1       0.002  -0.004   0.002  0.00  0.00    -0.012 C 
ATOM      5  C   UNL     1       0.718  -0.497  -1.257  0.00  0.00    +0.003 C 
ATOM      6  C   UNL     1       0.739  -2.027  -1.265  0.00  0.00    +0.002 C 
ATOM      7  C   UNL     1       1.479  -2.534  -0.026  0.00  0.00    +0.022 C 
ATOM      8  C   UNL     1       0.763  -2.041   1.233  0.00  0.00    +0.072 C 
ATOM      9  C   UNL     1       0.742  -0.511   1.242  0.00  0.00    +0.025 C 
ENDBRANCH   1   8
BRANCH   1  10
ATOM     10  C   UNL     1      -0.884  -3.828   1.753  0.00  0.00    +0.128 A 
ATOM     11  C   UNL     1       0.103  -4.623   2.251  0.00  0.00    +0.091 A 
ATOM     12  S   UNL     1      -0.839  -6.063   2.725  0.00  0.00    -0.062 S 
ATOM     13  C   UNL     1      -2.358  -5.515   2.251  0.00  0.00    +0.169 A 
ATOM     14  N   UNL     1      -2.111  -4.316   1.778  0.00  0.00    -0.213 NA
ATOM     15 CL   UNL     1      -3.883  -6.335   2.366  0.00  0.00    -0.054 Cl
ENDBRANCH   1  10
TORSDOF 2
