REMARK  Name = ZINC63384439
REMARK  10 active torsions:
REMARK  status: ('A' for Active; 'I' for Inactive)
REMARK    1  A    between atoms: C_1  and  C_2
REMARK    2  A    between atoms: C_2  and  C_3
REMARK    3  A    between atoms: C_3  and  C_5
REMARK    4  A    between atoms: C_3  and  N_6
REMARK    5  A    between atoms: C_7  and  C_9
REMARK    6  A    between atoms: C_9  and  C_11
REMARK    7  A    between atoms: C_9  and  N_14
REMARK    8  A    between atoms: C_11  and  C_12
REMARK    9  A    between atoms: C_11  and  C_13
REMARK   10  A    between atoms: C_15  and  C_17
REMARK                            x       y       z     vdW  Elec       q    Type
REMARK                         _______ _______ _______ _____ _____    ______ ____
ROOT
ATOM      1  C   UNL     1       6.642   0.895   5.205  0.00  0.00    +0.167 C 
ATOM      2  C   UNL     1       5.631   1.471   6.216  0.00  0.00    +0.065 C 
ATOM      3  C   UNL     1       5.685   2.974   6.092  0.00  0.00    -0.034 C 
ATOM      4  C   UNL     1       4.719   3.864   5.895  0.00  0.00    -0.001 A 
ATOM      5  C   UNL     1       3.256   3.721   5.822  0.00  0.00    +0.010 A 
ATOM      6  C   UNL     1       2.553   4.859   5.584  0.00  0.00    +0.001 A 
ATOM      7  C   UNL     1       3.151   6.112   5.415  0.00  0.00    +0.002 A 
ATOM      8  C   UNL     1       4.487   6.338   5.476  0.00  0.00    +0.026 A 
ATOM      9  C   UNL     1       5.331   5.217   5.727  0.00  0.00    +0.043 A 
ATOM     10  N   UNL     1       6.623   5.149   5.853  0.00  0.00    -0.375 N 
ATOM     11  C   UNL     1       6.986   3.766   6.168  0.00  0.00    +0.131 C 
ATOM     12  C   UNL     1       7.918   3.171   5.106  0.00  0.00    +0.134 C 
ATOM     13  N   UNL     1       7.872   1.697   5.263  0.00  0.00    -0.276 N 
ATOM     14  C   UNL     1       9.120   1.241   5.476  0.00  0.00    +0.248 C 
ATOM     15  O   UNL     1       9.425   0.068   5.569  0.00  0.00    -0.270 OA
ATOM     16  C   UNL     1      10.056   2.361   5.579  0.00  0.00    +0.042 A 
ATOM     17  C   UNL     1       9.335   3.576   5.354  0.00  0.00    -0.013 A 
ATOM     18  C   UNL     1       9.943   4.812   5.387  0.00  0.00    +0.006 A 
ATOM     19  C   UNL     1      11.310   4.836   5.647  0.00  0.00    +0.000 A 
ATOM     20  C   UNL     1      12.030   3.678   5.861  0.00  0.00    +0.001 A 
ATOM     21  C   UNL     1      11.428   2.383   5.839  0.00  0.00    +0.013 A 
ATOM     22  H   UNL     1       7.242   5.890   5.755  0.00  0.00    +0.160 HD
ENDROOT
BRANCH   1  24
ATOM     23  N   UNL     1       4.921   0.299   3.532  0.00  0.00    -0.302 N 
ATOM     24  C   UNL     1       6.062   0.958   3.816  0.00  0.00    +0.235 C 
ATOM     25  O   UNL     1       6.621   1.601   2.953  0.00  0.00    -0.274 OA
ATOM     26  H   UNL     1       4.473  -0.216   4.222  0.00  0.00    +0.150 HD
BRANCH  23  27
ATOM     27  C   UNL     1       4.356   0.359   2.182  0.00  0.00    +0.161 C 
BRANCH  27  29
ATOM     28  N   UNL     1       2.058   0.634   1.310  0.00  0.00    -0.311 N 
ATOM     29  C   UNL     1       2.872   0.107   2.246  0.00  0.00    +0.234 C 
ATOM     30  O   UNL     1       2.410  -0.569   3.140  0.00  0.00    -0.274 OA
ATOM     31  H   UNL     1       2.417   1.230   0.634  0.00  0.00    +0.149 HD
BRANCH  28  32
ATOM     32  C   UNL     1       0.630   0.306   1.312  0.00  0.00    +0.070 C 
ATOM     33  C   UNL     1       0.406  -1.006   0.559  0.00  0.00    +0.028 C 
BRANCH  32  35
ATOM     34  C   UNL     1      -0.030   2.712   1.449  0.00  0.00    +0.005 C 
ATOM     35  C   UNL     1      -0.152   1.428   0.626  0.00  0.00    +0.018 C 
ENDBRANCH  32  35
ENDBRANCH  28  32
ENDBRANCH  27  29
BRANCH  27  36
ATOM     36  C   UNL     1       5.017  -0.706   1.304  0.00  0.00    +0.012 C 
ATOM     37  C   UNL     1       4.468  -0.605  -0.120  0.00  0.00    +0.009 C 
ATOM     38  C   UNL     1       6.531  -0.484   1.285  0.00  0.00    +0.009 C 
ENDBRANCH  27  36
ENDBRANCH  23  27
ENDBRANCH   1  24
TORSDOF 6
