REMARK  Name = ZINC49564666
REMARK  3 active torsions:
REMARK  status: ('A' for Active; 'I' for Inactive)
REMARK    1  A    between atoms: C_2  and  N_19
REMARK    2  A    between atoms: C_6  and  N_7
REMARK    3  A    between atoms: N_7  and  C_8
REMARK                            x       y       z     vdW  Elec       q    Type
REMARK                         _______ _______ _______ _____ _____    ______ ____
ROOT
ATOM      1  N   UNL     1      -1.198  -0.719   0.010  0.00  0.00    -0.342 N 
ATOM      2  H   UNL     1      -2.044  -0.246   0.021  0.00  0.00    +0.146 HD
ENDROOT
BRANCH   1   3
ATOM      3  C   UNL     1      -1.177  -2.184   0.002  0.00  0.00    +0.055 C 
ATOM      4  C   UNL     1      -1.141  -2.716  -1.445  0.00  0.00    +0.002 C 
ATOM      5  C   UNL     1      -1.970  -4.010  -1.402  0.00  0.00    -0.077 C 
ATOM      6  N   UNL     1      -2.794  -3.974  -0.188  0.00  0.00    +0.383 N 
ATOM      7  C   UNL     1      -2.490  -2.745   0.578  0.00  0.00    -0.048 C 
ATOM      8  C   UNL     1      -3.636  -1.761   0.233  0.00  0.00    -0.015 C 
ATOM      9  C   UNL     1      -4.850  -2.715   0.092  0.00  0.00    -0.020 C 
ATOM     10  C   UNL     1      -4.224  -3.982  -0.537  0.00  0.00    -0.078 C 
ATOM     11  H   UNL     1      -2.583  -4.776   0.388  0.00  0.00    -0.081 HD
ENDBRANCH   1   3
BRANCH   1  17
ATOM     12  C   UNL     1      -0.017   1.383   0.010  0.00  0.00    +0.045 A 
ATOM     13  C   UNL     1       1.177   2.092   0.002  0.00  0.00    +0.029 A 
ATOM     14  C   UNL     1       2.388   1.411  -0.013  0.00  0.00    +0.061 A 
ATOM     15  C   UNL     1       2.404   0.027  -0.021  0.00  0.00    +0.127 A 
ATOM     16  C   UNL     1       1.215  -0.681  -0.013  0.00  0.00    +0.061 A 
ATOM     17  C   UNL     1       0.002  -0.004   0.002  0.00  0.00    +0.032 A 
ATOM     18  F   UNL     1       3.582  -0.634  -0.036  0.00  0.00    -0.205 F 
BRANCH  13  19
ATOM     19  N   UNL     1       1.161   3.488   0.009  0.00  0.00    -0.358 N 
ATOM     20  H   UNL     1       0.316   3.964   0.019  0.00  0.00    +0.142 HD
ATOM     21  H   UNL     1       1.996   3.983   0.004  0.00  0.00    +0.142 HD
ENDBRANCH  13  19
ENDBRANCH   1  17
TORSDOF 3
