REMARK  Name = ZINC31913859
REMARK  5 active torsions:
REMARK  status: ('A' for Active; 'I' for Inactive)
REMARK    1  A    between atoms: C_1  and  C_2
REMARK    2  A    between atoms: C_2  and  C_3
REMARK    3  A    between atoms: C_3  and  C_5
REMARK    4  A    between atoms: C_3  and  O_15
REMARK    5  A    between atoms: C_6  and  C_14
REMARK                            x       y       z     vdW  Elec       q    Type
REMARK                         _______ _______ _______ _____ _____    ______ ____
ROOT
ATOM      1  C   UNL     1       1.397   1.946  -0.001  0.00  0.00    +0.074 A 
ATOM      2  C   UNL     1       2.422   1.498   0.755  0.00  0.00    +0.063 A 
ATOM      3  N   UNL     1       3.513   2.210   0.460  0.00  0.00    -0.233 NA
ATOM      4  C   UNL     1       3.209   3.106  -0.469  0.00  0.00    +0.138 A 
ATOM      5  N   UNL     1       1.883   2.959  -0.783  0.00  0.00    -0.301 N 
ATOM      6  C   UNL     1       1.300   3.766  -1.716  0.00  0.00    +0.093 A 
ATOM      7  C   UNL     1       2.021   4.713  -2.353  0.00  0.00    +0.018 A 
ATOM      8  C   UNL     1       3.384   4.884  -2.057  0.00  0.00    +0.005 A 
ATOM      9  C   UNL     1       3.976   4.090  -1.125  0.00  0.00    +0.047 A 
ATOM     10  C   UNL     1       2.348   0.381   1.764  0.00  0.00    +0.067 C 
ENDROOT
BRANCH   1  11
ATOM     11  C   UNL     1      -0.017   1.425   0.010  0.00  0.00    +0.163 C 
BRANCH  11  13
ATOM     12  C   UNL     1      -2.203   1.494   1.219  0.00  0.00    +0.007 C 
ATOM     13  C   UNL     1      -0.733   1.918   1.269  0.00  0.00    +0.034 C 
ENDBRANCH  11  13
BRANCH  11  14
ATOM     14  O   UNL     1       0.002  -0.004   0.002  0.00  0.00    -0.386 OA
ATOM     15  H   UNL     1       0.478  -0.543  -0.831  0.00  0.00    +0.210 HD
ENDBRANCH  11  14
ENDBRANCH   1  11
TORSDOF 3
