REMARK  Name = ZINC66898841
REMARK  6 active torsions:
REMARK  status: ('A' for Active; 'I' for Inactive)
REMARK    1  A    between atoms: C_1  and  C_2
REMARK    2  A    between atoms: C_6  and  C_30
REMARK    3  A    between atoms: C_7  and  N_8
REMARK    4  A    between atoms: C_9  and  C_13
REMARK    5  A    between atoms: C_13  and  N_14
REMARK    6  A    between atoms: C_18  and  C_20
REMARK                            x       y       z     vdW  Elec       q    Type
REMARK                         _______ _______ _______ _____ _____    ______ ____
ROOT
ATOM      1  N   UNL     1       1.702  -2.041   4.031  0.00  0.00    +0.389 N 
ATOM      2  C   UNL     1       2.372  -1.357   5.158  0.00  0.00    -0.077 C 
ATOM      3  C   UNL     1       2.424  -2.416   6.287  0.00  0.00    -0.020 C 
ATOM      4  C   UNL     1       2.691  -3.717   5.485  0.00  0.00    -0.012 C 
ATOM      5  C   UNL     1       1.888  -3.495   4.186  0.00  0.00    -0.033 C 
ATOM      6  H   UNL     1       2.113  -1.737   3.160  0.00  0.00    -0.080 HD
ENDROOT
BRANCH   5   7
ATOM      7  C   UNL     1       2.655  -4.043   3.010  0.00  0.00    -0.016 A 
ATOM      8  C   UNL     1       3.542  -3.232   2.326  0.00  0.00    +0.006 A 
ATOM      9  C   UNL     1       4.247  -3.731   1.247  0.00  0.00    +0.004 A 
ATOM     10  C   UNL     1       4.066  -5.042   0.847  0.00  0.00    +0.049 A 
ATOM     11  C   UNL     1       3.177  -5.860   1.528  0.00  0.00    +0.162 A 
ATOM     12  C   UNL     1       2.474  -5.360   2.618  0.00  0.00    +0.164 A 
ATOM     13  O   UNL     1       1.607  -6.150   3.308  0.00  0.00    -0.485 OA
ATOM     14  C   UNL     1       1.174  -7.350   2.660  0.00  0.00    +0.270 C 
ATOM     15  C   UNL     1       2.405  -8.045   2.063  0.00  0.00    +0.270 C 
ATOM     16  O   UNL     1       3.007  -7.147   1.119  0.00  0.00    -0.485 OA
ENDBRANCH   5   7
BRANCH   1  17
ATOM     17  C   UNL     1       0.269  -1.722   4.040  0.00  0.00    +0.002 C 
BRANCH  17  19
ATOM     18  N   UNL     1      -0.127   0.285   2.515  0.00  0.00    -0.199 N 
ATOM     19  C   UNL     1       0.077  -0.258   3.735  0.00  0.00    +0.140 A 
ATOM     20  N   UNL     1       0.078   0.721   4.601  0.00  0.00    -0.115 NA
ATOM     21  N   UNL     1      -0.112   1.846   4.012  0.00  0.00    -0.023 NA
ATOM     22  N   UNL     1      -0.240   1.668   2.741  0.00  0.00    -0.039 NA
BRANCH  18  29
ATOM     23  C   UNL     1      -2.615  -0.880   1.770  0.00  0.00    +0.046 C 
ATOM     24  C   UNL     1      -1.399  -0.968   0.885  0.00  0.00    -0.025 A 
ATOM     25  C   UNL     1      -1.473  -1.623  -0.329  0.00  0.00    +0.005 A 
ATOM     26  C   UNL     1      -0.357  -1.704  -1.142  0.00  0.00    +0.001 A 
ATOM     27  C   UNL     1       0.836  -1.131  -0.742  0.00  0.00    +0.005 A 
ATOM     28  C   UNL     1       0.916  -0.475   0.470  0.00  0.00    -0.025 A 
ATOM     29  C   UNL     1      -0.204  -0.386   1.286  0.00  0.00    +0.075 A 
ATOM     30  C   UNL     1       2.217   0.150   0.905  0.00  0.00    +0.046 C 
ENDBRANCH  18  29
ENDBRANCH  17  19
ENDBRANCH   1  17
TORSDOF 4
