REMARK  Name = ZINC43595715
REMARK  9 active torsions:
REMARK  status: ('A' for Active; 'I' for Inactive)
REMARK    1  A    between atoms: C_1  and  C_2
REMARK    2  A    between atoms: C_2  and  C_4
REMARK    3  A    between atoms: C_2  and  S_17
REMARK    4  A    between atoms: N_9  and  C_10
REMARK    5  A    between atoms: C_10  and  C_11
REMARK    6  A    between atoms: S_17  and  C_18
REMARK    7  A    between atoms: N_22  and  C_23
REMARK    8  A    between atoms: C_23  and  C_24
REMARK    9  A    between atoms: C_23  and  C_25
REMARK                            x       y       z     vdW  Elec       q    Type
REMARK                         _______ _______ _______ _____ _____    ______ ____
ROOT
ATOM      1  C   UNL     1      -1.412  -0.526   0.013  0.00  0.00    +0.233 C 
ATOM      2  O   UNL     1      -1.939  -0.827   1.062  0.00  0.00    -0.274 OA
ATOM      3  N   UNL     1      -2.090  -0.657  -1.144  0.00  0.00    -0.239 N 
ATOM      4  C   UNL     1      -3.355  -1.124  -1.135  0.00  0.00    +0.306 C 
ATOM      5  O   UNL     1      -3.883  -1.426  -0.083  0.00  0.00    -0.252 OA
ATOM      6  N   UNL     1      -4.033  -1.255  -2.292  0.00  0.00    -0.297 N 
ATOM      7  H   UNL     1      -1.669  -0.416  -1.984  0.00  0.00    +0.159 HD
ATOM      8  H   UNL     1      -3.611  -1.014  -3.131  0.00  0.00    +0.150 HD
ENDROOT
BRANCH   1  10
ATOM      9  C   UNL     1      -0.019   1.526   0.010  0.00  0.00    +0.029 C 
ATOM     10  C   UNL     1       0.002  -0.004   0.002  0.00  0.00    +0.137 C 
BRANCH  10  11
ATOM     11  S   UNL     1       0.879  -0.605   1.472  0.00  0.00    -0.074 S 
BRANCH  11  12
ATOM     12  C   UNL     1       2.533  -0.042   1.241  0.00  0.00    +0.192 A 
ATOM     13  N   UNL     1       2.985   0.657   0.225  0.00  0.00    -0.123 NA
ATOM     14  N   UNL     1       4.239   0.893   0.382  0.00  0.00    -0.137 NA
ATOM     15  C   UNL     1       4.658   0.365   1.497  0.00  0.00    +0.226 A 
ATOM     16  N   UNL     1       3.585  -0.245   2.087  0.00  0.00    -0.306 N 
BRANCH  16  17
ATOM     17  C   UNL     1       3.570  -0.969   3.360  0.00  0.00    +0.084 C 
ATOM     18  C   UNL     1       4.545  -2.146   3.290  0.00  0.00    +0.030 C 
ATOM     19  C   UNL     1       3.990  -0.025   4.489  0.00  0.00    +0.030 C 
ENDBRANCH  16  17
ENDBRANCH  11  12
ENDBRANCH  10  11
ENDBRANCH   1  10
BRANCH   6  20
ATOM     20  C   UNL     1      -5.408  -1.762  -2.281  0.00  0.00    +0.137 C 
BRANCH  20  21
ATOM     21  C   UNL     1      -5.943  -1.813  -3.714  0.00  0.00    +0.135 C 
ATOM     22  C   UNL     1      -7.409  -2.314  -3.722  0.00  0.00    +0.035 C 
ATOM     23  C   UNL     1      -7.926  -1.694  -5.049  0.00  0.00    +0.031 C 
ATOM     24  C   UNL     1      -7.151  -0.360  -5.109  0.00  0.00    +0.160 C 
ATOM     25  O   UNL     1      -5.993  -0.492  -4.274  0.00  0.00    -0.375 OA
ENDBRANCH  20  21
ENDBRANCH   6  20
TORSDOF 6
