REMARK  Name = ZINC06621890
REMARK  3 active torsions:
REMARK  status: ('A' for Active; 'I' for Inactive)
REMARK    1  A    between atoms: C_1  and  C_2
REMARK    2  A    between atoms: C_14  and  C_17
REMARK    3  A    between atoms: C_14  and  C_18
REMARK                            x       y       z     vdW  Elec       q    Type
REMARK                         _______ _______ _______ _____ _____    ______ ____
ROOT
ATOM      1  C   UNL     1      -4.305   3.436   5.249  0.00  0.00    +0.066 C 
ATOM      2  C   UNL     1      -3.221   4.041   4.396  0.00  0.00    +0.045 A 
ATOM      3  C   UNL     1      -2.549   3.218   3.482  0.00  0.00    -0.013 A 
ATOM      4  C   UNL     1      -1.585   3.754   2.695  0.00  0.00    -0.026 A 
ATOM      5  C   UNL     1      -1.297   5.127   2.868  0.00  0.00    +0.063 A 
ATOM      6  C   UNL     1      -0.339   6.032   2.229  0.00  0.00    +0.147 A 
ATOM      7  N   UNL     1      -0.491   7.210   2.775  0.00  0.00    -0.157 NA
ATOM      8  N   UNL     1      -1.496   7.161   3.748  0.00  0.00    -0.258 N 
ATOM      9  H   UNL     1      -1.759   8.067   4.313  0.00  0.00    +0.191 HD
ATOM     10  C   UNL     1      -1.999   5.890   3.812  0.00  0.00    +0.158 A 
ATOM     11  N   UNL     1      -2.946   5.313   4.541  0.00  0.00    -0.233 NA
ATOM     12  N   UNL     1       0.570   5.697   1.223  0.00  0.00    -0.341 N 
ATOM     13  C   UNL     1      -0.777   3.058   1.641  0.00  0.00    +0.053 C 
ATOM     14  C   UNL     1      -0.720   1.546   1.813  0.00  0.00    +0.015 C 
ATOM     15  S   UNL     1      -2.432   0.945   1.971  0.00  0.00    -0.149 S 
ATOM     16  C   UNL     1      -2.972   1.770   3.494  0.00  0.00    +0.106 C 
ATOM     17  C   UNL     1      -0.056   0.909   0.591  0.00  0.00    +0.023 C 
ATOM     18  C   UNL     1       0.071   1.197   3.075  0.00  0.00    +0.023 C 
ATOM     19  H   UNL     1       1.246   6.464   0.815  0.00  0.00    +0.144 HD
ATOM     20  H   UNL     1       0.611   4.668   0.838  0.00  0.00    +0.144 HD
ENDROOT
TORSDOF 0
