REMARK  Name = ZINC35938554
REMARK  7 active torsions:
REMARK  status: ('A' for Active; 'I' for Inactive)
REMARK    1  A    between atoms: C_4  and  C_7
REMARK    2  A    between atoms: N_16  and  C_17
REMARK    3  A    between atoms: C_17  and  C_18
REMARK    4  A    between atoms: C_18  and  C_19
REMARK    5  A    between atoms: C_27  and  C_29
REMARK    6  A    between atoms: C_29  and  S_30
REMARK    7  A    between atoms: S_30  and  C_31
REMARK                            x       y       z     vdW  Elec       q    Type
REMARK                         _______ _______ _______ _____ _____    ______ ____
ROOT
ATOM      1  C   UNL     1       3.225  -2.651   3.130  0.00  0.00    +0.077 C 
ENDROOT
BRANCH   1   2
ATOM      2  C   UNL     1       3.025  -2.193   4.551  0.00  0.00    +0.214 C 
ATOM      3  O   UNL     1       3.047  -1.010   4.816  0.00  0.00    -0.276 OA
ATOM      4  N   UNL     1       2.820  -3.099   5.529  0.00  0.00    -0.299 N 
ATOM      5  C   UNL     1       2.797  -4.536   5.223  0.00  0.00    +0.126 C 
ATOM      6  C   UNL     1       3.828  -5.242   6.112  0.00  0.00    +0.127 C 
ATOM      7  N   UNL     1       3.625  -4.810   7.502  0.00  0.00    -0.298 N 
ATOM      8  C   UNL     1       3.649  -3.373   7.807  0.00  0.00    +0.127 C 
ATOM      9  C   UNL     1       2.623  -2.667   6.919  0.00  0.00    +0.126 C 
ATOM     10  C   UNL     1       3.421  -5.715   8.479  0.00  0.00    +0.226 C 
ATOM     11  O   UNL     1       3.404  -6.899   8.215  0.00  0.00    -0.275 OA
BRANCH  10  12
ATOM     12  C   UNL     1       3.215  -5.257   9.900  0.00  0.00    +0.170 C 
BRANCH  12  13
ATOM     13  S   UNL     1       2.968  -6.700  10.971  0.00  0.00    -0.116 S 
BRANCH  13  14
ATOM     14  C   UNL     1       2.743  -6.007  12.575  0.00  0.00    +0.008 A 
ATOM     15  C   UNL     1       2.779  -4.629  12.749  0.00  0.00    +0.015 A 
ATOM     16  C   UNL     1       2.603  -4.089  14.008  0.00  0.00    +0.001 A 
ATOM     17  C   UNL     1       2.391  -4.919  15.094  0.00  0.00    +0.000 A 
ATOM     18  C   UNL     1       2.355  -6.291  14.925  0.00  0.00    +0.001 A 
ATOM     19  C   UNL     1       2.524  -6.837  13.668  0.00  0.00    +0.015 A 
ENDBRANCH  13  14
ENDBRANCH  12  13
ENDBRANCH  10  12
ENDBRANCH   1   2
BRANCH   1  20
ATOM     20  C   UNL     1       3.435  -1.434   2.227  0.00  0.00    -0.068 C 
BRANCH  20  29
ATOM     21  C   UNL     1       3.711  -0.707  -0.038  0.00  0.00    -0.006 C 
ATOM     22  C   UNL     1       4.017  -1.174  -1.457  0.00  0.00    -0.047 A 
ATOM     23  C   UNL     1       3.786  -0.408  -2.597  0.00  0.00    +0.010 A 
ATOM     24  C   UNL     1       4.087  -0.905  -3.819  0.00  0.00    +0.045 A 
ATOM     25  S   UNL     1       4.729  -2.522  -3.412  0.00  0.00    -0.101 S 
ATOM     26  C   UNL     1       4.550  -2.413  -1.655  0.00  0.00    -0.010 A 
ATOM     27  C   UNL     1       4.891  -3.411  -0.597  0.00  0.00    +0.024 C 
ATOM     28  C   UNL     1       4.860  -2.681   0.756  0.00  0.00    -0.072 C 
ATOM     29  N   UNL     1       3.631  -1.880   0.841  0.00  0.00    +0.388 N 
ATOM     30  H   UNL     1       2.846  -2.450   0.562  0.00  0.00    -0.080 HD
BRANCH  21  34
ATOM     31  C   UNL     1      -0.017   1.378   0.010  0.00  0.00    +0.000 A 
ATOM     32  C   UNL     1       1.171   2.086   0.002  0.00  0.00    +0.000 A 
ATOM     33  C   UNL     1       2.377   1.411  -0.013  0.00  0.00    +0.002 A 
ATOM     34  C   UNL     1       2.396   0.029  -0.020  0.00  0.00    -0.057 A 
ATOM     35  C   UNL     1       1.208  -0.679  -0.012  0.00  0.00    +0.002 A 
ATOM     36  C   UNL     1       0.002  -0.004   0.002  0.00  0.00    +0.000 A 
ENDBRANCH  21  34
ENDBRANCH  20  29
ENDBRANCH   1  20
TORSDOF 7
