REMARK  Name = ZINC16530902
REMARK  9 active torsions:
REMARK  status: ('A' for Active; 'I' for Inactive)
REMARK    1  A    between atoms: C_1  and  C_2
REMARK    2  A    between atoms: C_2  and  C_3
REMARK    3  A    between atoms: C_3  and  N_4
REMARK    4  A    between atoms: N_4  and  C_5
REMARK    5  A    between atoms: N_4  and  S_25
REMARK    6  A    between atoms: C_5  and  C_6
REMARK    7  A    between atoms: C_16  and  C_18
REMARK    8  A    between atoms: C_23  and  C_24
REMARK    9  A    between atoms: S_25  and  C_28
REMARK                            x       y       z     vdW  Elec       q    Type
REMARK                         _______ _______ _______ _____ _____    ______ ____
ROOT
ATOM      1  C   UNL     1       4.431   1.259  -0.052  0.00  0.00    +0.205 C 
ENDROOT
BRANCH   1   2
ATOM      2  C   UNL     1       3.051   0.927   0.454  0.00  0.00    +0.232 C 
ATOM      3  O   UNL     1       2.671   1.373   1.516  0.00  0.00    -0.274 OA
ATOM      4  N   UNL     1       2.239   0.134  -0.274  0.00  0.00    -0.289 N 
ATOM      5  C   UNL     1       2.724  -0.494  -1.512  0.00  0.00    +0.114 C 
ATOM      6  C   UNL     1       2.734  -2.017  -1.308  0.00  0.00    +0.062 C 
ATOM      7  C   UNL     1       1.473  -2.416  -0.614  0.00  0.00    -0.003 A 
ATOM      8  C   UNL     1       0.600  -1.617   0.059  0.00  0.00    -0.012 A 
ATOM      9  C   UNL     1      -0.509  -2.242   0.628  0.00  0.00    +0.013 A 
ATOM     10  C   UNL     1      -0.675  -3.578   0.495  0.00  0.00    +0.046 A 
ATOM     11  S   UNL     1       0.762  -4.034  -0.464  0.00  0.00    -0.101 S 
ATOM     12  C   UNL     1       0.857  -0.115   0.160  0.00  0.00    +0.138 C 
BRANCH  12  13
ATOM     13  C   UNL     1      -0.100   0.629  -0.736  0.00  0.00    -0.020 A 
ATOM     14  C   UNL     1       0.330   1.112  -1.958  0.00  0.00    +0.006 A 
ATOM     15  C   UNL     1      -0.548   1.794  -2.779  0.00  0.00    +0.000 A 
ATOM     16  C   UNL     1      -1.857   1.992  -2.378  0.00  0.00    +0.000 A 
ATOM     17  C   UNL     1      -2.287   1.508  -1.157  0.00  0.00    +0.004 A 
ATOM     18  C   UNL     1      -1.409   0.823  -0.338  0.00  0.00    -0.045 A 
ATOM     19  C   UNL     1      -1.880   0.290   0.992  0.00  0.00    +0.044 C 
ENDBRANCH  12  13
ENDBRANCH   1   2
BRANCH   1  20
ATOM     20  N   UNL     1       5.171   1.980   0.986  0.00  0.00    -0.168 NA
BRANCH  20  21
ATOM     21  S   UNL     1       5.556   3.576   0.771  0.00  0.00    +0.063 S 
ATOM     22  O   UNL     1       6.784   3.793   1.452  0.00  0.00    -0.153 OA
ATOM     23  O   UNL     1       5.394   3.850  -0.614  0.00  0.00    -0.153 OA
BRANCH  21  24
ATOM     24  C   UNL     1       4.336   4.524   1.618  0.00  0.00    +0.131 A 
ATOM     25  C   UNL     1       4.689   5.300   2.679  0.00  0.00    +0.031 A 
ATOM     26  C   UNL     1       3.741   6.058   3.363  0.00  0.00    +0.003 A 
ATOM     27  C   UNL     1       2.432   6.043   2.987  0.00  0.00    +0.010 A 
ATOM     28  C   UNL     1       2.032   5.254   1.897  0.00  0.00    +0.002 A 
ATOM     29  C   UNL     1       2.995   4.487   1.196  0.00  0.00    +0.097 A 
ATOM     30  N   UNL     1       2.619   3.730   0.161  0.00  0.00    -0.253 NA
ATOM     31  C   UNL     1       1.369   3.688  -0.233  0.00  0.00    +0.111 A 
ATOM     32  C   UNL     1       0.373   4.422   0.408  0.00  0.00    +0.020 A 
ATOM     33  C   UNL     1       0.689   5.211   1.477  0.00  0.00    +0.011 A 
ENDBRANCH  21  24
ENDBRANCH  20  21
BRANCH  20  34
ATOM     34  C   UNL     1       5.572   1.289   2.214  0.00  0.00    +0.110 C 
BRANCH  34  36
ATOM     35  C   UNL     1       7.315  -0.161   3.264  0.00  0.00    +0.005 C 
ATOM     36  C   UNL     1       6.897   0.561   1.981  0.00  0.00    +0.014 C 
ENDBRANCH  34  36
ENDBRANCH  20  34
ENDBRANCH   1  20
TORSDOF 7
