REMARK  Name = ZINC64538585
REMARK  7 active torsions:
REMARK  status: ('A' for Active; 'I' for Inactive)
REMARK    1  A    between atoms: C_1  and  O_2
REMARK    2  A    between atoms: O_2  and  C_3
REMARK    3  A    between atoms: C_9  and  C_12
REMARK    4  A    between atoms: C_12  and  C_13
REMARK    5  A    between atoms: C_13  and  N_14
REMARK    6  A    between atoms: C_18  and  C_21
REMARK    7  A    between atoms: C_19  and  N_20
REMARK                            x       y       z     vdW  Elec       q    Type
REMARK                         _______ _______ _______ _____ _____    ______ ____
ROOT
ATOM      1  N   UNL     1      -0.759  -6.798   1.434  0.00  0.00    -0.311 N 
ATOM      2  C   UNL     1      -1.137  -8.214   1.325  0.00  0.00    +0.185 C 
ATOM      3  C   UNL     1       0.177  -8.965   1.365  0.00  0.00    +0.182 C 
ATOM      4  O   UNL     1       0.336 -10.170   1.303  0.00  0.00    -0.291 OA
ATOM      5  C   UNL     1       1.165  -7.995   1.488  0.00  0.00    +0.062 C 
ATOM      6  C   UNL     1       0.601  -6.741   1.520  0.00  0.00    +0.093 C 
ENDROOT
BRANCH   5   7
ATOM      7  C   UNL     1       2.643  -8.277   1.567  0.00  0.00    +0.171 C 
ATOM      8  N   UNL     1       2.949  -9.185   2.681  0.00  0.00    -0.327 N 
ATOM      9  C   UNL     1       3.518 -10.418   2.370  0.00  0.00    +0.042 A 
ATOM     10  C   UNL     1       3.878 -11.412   3.298  0.00  0.00    +0.024 A 
ATOM     11  C   UNL     1       4.436 -12.600   2.889  0.00  0.00    +0.002 A 
ATOM     12  C   UNL     1       4.663 -12.860   1.550  0.00  0.00    +0.001 A 
ATOM     13  C   UNL     1       4.319 -11.900   0.613  0.00  0.00    +0.016 A 
ATOM     14  C   UNL     1       3.760 -10.711   1.024  0.00  0.00    +0.031 A 
ATOM     15  S   UNL     1       3.204  -9.276   0.130  0.00  0.00    -0.096 S 
ATOM     16  H   UNL     1       2.763  -8.934   3.599  0.00  0.00    +0.147 HD
ENDBRANCH   5   7
BRANCH   6  17
ATOM     17  N   UNL     1       1.317  -5.580   1.628  0.00  0.00    -0.346 N 
ATOM     18  H   UNL     1       0.856  -4.726   1.648  0.00  0.00    +0.143 HD
ATOM     19  H   UNL     1       2.284  -5.610   1.685  0.00  0.00    +0.143 HD
ENDBRANCH   6  17
BRANCH   1  20
ATOM     20  C   UNL     1      -1.676  -5.655   1.443  0.00  0.00    +0.111 C 
BRANCH  20  21
ATOM     21  C   UNL     1      -1.908  -5.176   0.009  0.00  0.00    +0.052 C 
BRANCH  21  28
ATOM     22  C   UNL     1      -1.200  -0.637   0.010  0.00  0.00    +0.121 A 
ATOM     23  C   UNL     1      -2.375   0.135   0.020  0.00  0.00    +0.047 A 
ATOM     24  C   UNL     1      -3.607  -0.415   0.028  0.00  0.00    +0.029 A 
ATOM     25  C   UNL     1      -3.753  -1.875   0.027  0.00  0.00    +0.043 A 
ATOM     26  N   UNL     1      -4.809  -2.650   0.034  0.00  0.00    -0.380 N 
ATOM     27  C   UNL     1      -4.362  -4.047   0.029  0.00  0.00    +0.144 C 
ATOM     28  C   UNL     1      -2.851  -4.000   0.018  0.00  0.00    -0.040 C 
ATOM     29  C   UNL     1      -2.516  -2.690   0.016  0.00  0.00    +0.002 A 
ATOM     30  C   UNL     1      -1.226  -1.992   0.003  0.00  0.00    +0.055 A 
ATOM     31  H   UNL     1      -5.731  -2.350   0.042  0.00  0.00    +0.160 HD
BRANCH  22  33
ATOM     32  C   UNL     1      -0.017   1.425   0.010  0.00  0.00    +0.277 C 
ATOM     33  O   UNL     1       0.002  -0.004   0.002  0.00  0.00    -0.495 OA
ENDBRANCH  22  33
ENDBRANCH  21  28
ENDBRANCH  20  21
ENDBRANCH   1  20
TORSDOF 6
