REMARK  Name = ZINC09585575
REMARK  7 active torsions:
REMARK  status: ('A' for Active; 'I' for Inactive)
REMARK    1  A    between atoms: C_4  and  N_7
REMARK    2  A    between atoms: C_9  and  C_14
REMARK    3  A    between atoms: N_16  and  C_17
REMARK    4  A    between atoms: C_17  and  C_18
REMARK    5  A    between atoms: C_18  and  N_66
REMARK    6  A    between atoms: C_24  and  C_26
REMARK    7  A    between atoms: C_27  and  C_28
REMARK                            x       y       z     vdW  Elec       q    Type
REMARK                         _______ _______ _______ _____ _____    ______ ____
ROOT
ATOM      1  C   UNL     1      -7.138   1.592   0.872  0.00  0.00    -0.059 C 
ATOM      2  C   UNL     1      -6.189   2.166  -0.187  0.00  0.00    +0.089 C 
ATOM      3  N   UNL     1      -4.903   1.458  -0.094  0.00  0.00    -0.302 N 
ATOM      4  C   UNL     1      -4.915  -0.013  -0.114  0.00  0.00    +0.089 C 
ATOM      5  C   UNL     1      -5.914  -0.500   0.948  0.00  0.00    -0.059 C 
ATOM      6  C   UNL     1      -3.744   2.139  -0.000  0.00  0.00    +0.239 C 
ATOM      7  O   UNL     1      -3.758   3.352   0.108  0.00  0.00    -0.271 OA
ATOM      8  N   UNL     1      -7.227   0.128   0.685  0.00  0.00    +0.383 N 
ATOM      9  H   UNL     1      -7.502  -0.068  -0.285  0.00  0.00    -0.082 HD
ENDROOT
BRANCH   6  10
ATOM     10  C   UNL     1      -2.470   1.422  -0.028  0.00  0.00    +0.068 C 
ATOM     11  C   UNL     1      -1.308   2.109  -0.035  0.00  0.00    +0.013 C 
BRANCH  11  12
ATOM     12  C   UNL     1      -0.028   1.388  -0.062  0.00  0.00    -0.021 A 
ATOM     13  C   UNL     1      -0.010  -0.011  -0.082  0.00  0.00    +0.012 A 
ATOM     14  C   UNL     1       1.191  -0.684  -0.114  0.00  0.00    +0.050 A 
ATOM     15  C   UNL     1       2.388   0.021  -0.126  0.00  0.00    +0.166 A 
ATOM     16  C   UNL     1       2.378   1.416  -0.107  0.00  0.00    +0.167 A 
ATOM     17  C   UNL     1       1.178   2.098  -0.075  0.00  0.00    +0.057 A 
ATOM     18  O   UNL     1       3.669   1.861  -0.125  0.00  0.00    -0.453 OA
ATOM     19  C   UNL     1       4.455   0.739  -0.569  0.00  0.00    +0.466 C 
ATOM     20  O   UNL     1       3.683  -0.405  -0.156  0.00  0.00    -0.453 OA
ENDBRANCH  11  12
ENDBRANCH   6  10
BRANCH   8  21
ATOM     21  C   UNL     1      -8.246  -0.435   1.595  0.00  0.00    -0.060 C 
BRANCH  21  22
ATOM     22  C   UNL     1      -8.134  -1.961   1.591  0.00  0.00    +0.085 C 
BRANCH  22  25
ATOM     23  C   UNL     1      -9.251  -3.865   2.623  0.00  0.00    +0.218 C 
ATOM     24  O   UNL     1      -8.485  -4.597   2.033  0.00  0.00    -0.275 OA
ATOM     25  N   UNL     1      -9.159  -2.529   2.470  0.00  0.00    -0.317 N 
ATOM     26  H   UNL     1      -9.772  -1.943   2.942  0.00  0.00    +0.149 HD
BRANCH  23  29
ATOM     27  N   UNL     1     -11.738  -6.372   3.540  0.00  0.00    -0.271 N 
ATOM     28  C   UNL     1     -10.325  -5.990   3.431  0.00  0.00    +0.127 C 
ATOM     29  C   UNL     1     -10.306  -4.448   3.527  0.00  0.00    +0.101 C 
ATOM     30  C   UNL     1     -11.724  -4.084   3.031  0.00  0.00    +0.110 C 
ATOM     31  C   UNL     1     -12.546  -5.322   3.315  0.00  0.00    +0.221 C 
ATOM     32  O   UNL     1     -13.758  -5.361   3.336  0.00  0.00    -0.275 OA
BRANCH  27  36
ATOM     33  C   UNL     1     -13.072 -10.215   4.437  0.00  0.00    +0.000 A 
ATOM     34  C   UNL     1     -11.719  -9.930   4.465  0.00  0.00    +0.002 A 
ATOM     35  C   UNL     1     -11.274  -8.657   4.168  0.00  0.00    +0.023 A 
ATOM     36  C   UNL     1     -12.186  -7.663   3.841  0.00  0.00    +0.036 A 
ATOM     37  C   UNL     1     -13.544  -7.951   3.819  0.00  0.00    +0.023 A 
ATOM     38  C   UNL     1     -13.983  -9.227   4.112  0.00  0.00    +0.002 A 
ENDBRANCH  27  36
ENDBRANCH  23  29
ENDBRANCH  22  25
ENDBRANCH  21  22
ENDBRANCH   8  21
TORSDOF 7
