REMARK  Name = ZINC20883478
REMARK  5 active torsions:
REMARK  status: ('A' for Active; 'I' for Inactive)
REMARK    1  A    between atoms: C_1  and  C_2
REMARK    2  A    between atoms: C_2  and  C_3
REMARK    3  A    between atoms: C_6  and  C_9
REMARK    4  A    between atoms: C_14  and  C_20
REMARK    5  A    between atoms: C_24  and  C_26
REMARK                            x       y       z     vdW  Elec       q    Type
REMARK                         _______ _______ _______ _____ _____    ______ ____
ROOT
ATOM      1  C   UNL     1      -0.728   1.579   1.268  0.00  0.00    +0.032 C 
ATOM      2  C   UNL     1      -0.013   1.086   0.008  0.00  0.00    +0.059 C 
ATOM      3  C   UNL     1      -0.741   1.585  -1.215  0.00  0.00    +0.018 C 
ATOM      4  C   UNL     1      -2.075   1.788  -1.191  0.00  0.00    +0.020 C 
ATOM      5  C   UNL     1      -2.784   2.282  -2.430  0.00  0.00    +0.063 C 
ATOM      6  C   UNL     1      -1.869   3.247  -3.187  0.00  0.00    +0.109 C 
ATOM      7  C   UNL     1      -0.504   2.626  -3.327  0.00  0.00    +0.218 C 
ATOM      8  O   UNL     1       0.162   2.844  -4.316  0.00  0.00    -0.275 OA
ATOM      9  N   UNL     1      -0.021   1.830  -2.357  0.00  0.00    -0.289 N 
ATOM     10  C   UNL     1      -2.830   1.550  -0.030  0.00  0.00    +0.162 C 
ATOM     11  O   UNL     1      -4.032   1.731  -0.051  0.00  0.00    -0.292 OA
ATOM     12  C   UNL     1      -2.174   1.076   1.238  0.00  0.00    +0.088 C 
ATOM     13  H   UNL     1       0.970   1.372  -2.491  0.00  0.00    +0.155 HD
ENDROOT
BRANCH   5  14
ATOM     14  C   UNL     1      -3.123   1.112  -3.316  0.00  0.00    -0.039 A 
ATOM     15  C   UNL     1      -2.116   0.305  -3.812  0.00  0.00    +0.004 A 
ATOM     16  C   UNL     1      -2.428  -0.771  -4.621  0.00  0.00    +0.001 A 
ATOM     17  C   UNL     1      -3.746  -1.035  -4.943  0.00  0.00    +0.003 A 
ATOM     18  C   UNL     1      -4.753  -0.225  -4.452  0.00  0.00    -0.050 A 
ATOM     19  C   UNL     1      -4.441   0.849  -3.638  0.00  0.00    +0.007 A 
ATOM     20  C   UNL     1      -6.190  -0.512  -4.804  0.00  0.00    +0.044 C 
ENDBRANCH   5  14
BRANCH   1  24
ATOM     21  C   UNL     1       1.249   0.047   4.731  0.00  0.00    -0.048 A 
ATOM     22  C   UNL     1       1.146   1.413   4.541  0.00  0.00    +0.004 A 
ATOM     23  C   UNL     1       0.506   1.908   3.421  0.00  0.00    +0.004 A 
ATOM     24  C   UNL     1      -0.030   1.038   2.490  0.00  0.00    -0.043 A 
ATOM     25  C   UNL     1       0.068  -0.327   2.682  0.00  0.00    +0.004 A 
ATOM     26  C   UNL     1       0.713  -0.823   3.800  0.00  0.00    +0.004 A 
BRANCH  21  28
ATOM     27  C   UNL     1       0.930  -0.670   7.083  0.00  0.00    +0.009 C 
ATOM     28  C   UNL     1       1.946  -0.493   5.953  0.00  0.00    +0.032 C 
ENDBRANCH  21  28
ENDBRANCH   1  24
TORSDOF 3
