REMARK  Name = ZINC08994172
REMARK  8 active torsions:
REMARK  status: ('A' for Active; 'I' for Inactive)
REMARK    1  A    between atoms: C_1  and  N_58
REMARK    2  A    between atoms: C_8  and  O_31
REMARK    3  A    between atoms: C_10  and  C_12
REMARK    4  A    between atoms: C_12  and  N_13
REMARK    5  A    between atoms: C_14  and  C_15
REMARK    6  A    between atoms: C_16  and  O_30
REMARK    7  A    between atoms: N_20  and  C_23
REMARK    8  A    between atoms: O_31  and  C_32
REMARK                            x       y       z     vdW  Elec       q    Type
REMARK                         _______ _______ _______ _____ _____    ______ ____
ROOT
ATOM      1  N   UNL     1      -1.061   3.457   1.274  0.00  0.00    -0.296 NA
ATOM      2  C   UNL     1      -1.384   4.755   1.424  0.00  0.00    +0.099 C 
ENDROOT
BRANCH   2   3
ATOM      3  C   UNL     1      -1.760   5.237   2.669  0.00  0.00    +0.199 C 
ATOM      4  C   UNL     1      -2.268   6.605   2.841  0.00  0.00    +0.198 C 
ATOM      5  N   UNL     1      -2.609   7.003   4.056  0.00  0.00    -0.131 NA
ATOM      6  C   UNL     1      -2.505   6.205   5.115  0.00  0.00    +0.339 C 
ATOM      7  O   UNL     1      -2.839   6.644   6.202  0.00  0.00    -0.250 OA
ATOM      8  N   UNL     1      -2.052   4.945   5.052  0.00  0.00    -0.192 N 
ATOM      9  C   UNL     1      -1.673   4.398   3.877  0.00  0.00    +0.245 C 
ATOM     10  O   UNL     1      -1.267   3.252   3.819  0.00  0.00    -0.274 OA
BRANCH   8  11
ATOM     11  C   UNL     1      -1.978   4.180   6.224  0.00  0.00    +0.048 A 
ATOM     12  C   UNL     1      -3.140   3.812   6.889  0.00  0.00    +0.024 A 
ATOM     13  C   UNL     1      -3.065   3.054   8.041  0.00  0.00    +0.005 A 
ATOM     14  C   UNL     1      -1.834   2.669   8.539  0.00  0.00    +0.038 A 
ATOM     15  C   UNL     1      -0.672   3.038   7.882  0.00  0.00    +0.125 A 
ATOM     16  C   UNL     1      -0.742   3.793   6.725  0.00  0.00    +0.062 A 
ATOM     17  F   UNL     1       0.529   2.662   8.371  0.00  0.00    -0.205 F 
ENDBRANCH   8  11
BRANCH   4  18
ATOM     18  O   UNL     1      -2.384   7.436   1.784  0.00  0.00    -0.496 OA
ATOM     19  H   UNL     1      -2.728   8.311   2.008  0.00  0.00    +0.293 HD
ENDBRANCH   4  18
ENDBRANCH   2   3
BRANCH   1  20
ATOM     20  C   UNL     1      -0.665   2.948  -0.042  0.00  0.00    +0.130 C 
BRANCH  20  30
ATOM     21  C   UNL     1      -2.790   1.023  -0.527  0.00  0.00    -0.095 C 
ATOM     22  C   UNL     1      -1.522  -0.629   0.713  0.00  0.00    -0.074 C 
ATOM     23  C   UNL     1      -0.693  -0.787   1.987  0.00  0.00    +0.017 C 
ATOM     24  C   UNL     1       0.535   0.084   1.913  0.00  0.00    -0.040 A 
ATOM     25  C   UNL     1       1.582  -0.177   2.785  0.00  0.00    +0.053 A 
ATOM     26  C   UNL     1       2.729   0.598   2.757  0.00  0.00    +0.170 A 
ATOM     27  C   UNL     1       2.831   1.646   1.849  0.00  0.00    +0.208 A 
ATOM     28  C   UNL     1       1.782   1.904   0.978  0.00  0.00    +0.167 A 
ATOM     29  C   UNL     1       0.633   1.120   1.009  0.00  0.00    -0.011 A 
ATOM     30  C   UNL     1      -0.473   1.432   0.035  0.00  0.00    -0.012 C 
ATOM     31  O   UNL     1       4.043   2.254   2.017  0.00  0.00    -0.449 OA
ATOM     32  C   UNL     1       4.845   1.313   2.756  0.00  0.00    +0.467 C 
ATOM     33  O   UNL     1       3.877   0.546   3.495  0.00  0.00    -0.452 OA
ATOM     34  N   UNL     1      -1.732   0.816   0.486  0.00  0.00    +0.384 N 
ATOM     35  H   UNL     1      -2.023   1.255   1.367  0.00  0.00    -0.081 HD
BRANCH  28  36
ATOM     36  O   UNL     1       1.878   2.929   0.089  0.00  0.00    -0.491 OA
ATOM     37  C   UNL     1       2.372   2.614  -1.214  0.00  0.00    +0.277 C 
ENDBRANCH  28  36
ENDBRANCH  20  30
ENDBRANCH   1  20
TORSDOF 6
