REMARK  Name = ZINC09003939
REMARK  8 active torsions:
REMARK  status: ('A' for Active; 'I' for Inactive)
REMARK    1  A    between atoms: C_1  and  N_2
REMARK    2  A    between atoms: N_2  and  C_3
REMARK    3  A    between atoms: C_11  and  C_13
REMARK    4  A    between atoms: C_13  and  S_14
REMARK    5  A    between atoms: S_14  and  C_15
REMARK    6  A    between atoms: N_27  and  C_28
REMARK    7  A    between atoms: C_28  and  C_29
REMARK    8  A    between atoms: C_29  and  C_30
REMARK                            x       y       z     vdW  Elec       q    Type
REMARK                         _______ _______ _______ _____ _____    ______ ____
ROOT
ATOM      1  C   UNL     1      -3.352   0.661  -5.577  0.00  0.00    +0.173 A 
ATOM      2  N   UNL     1      -3.386   1.978  -5.568  0.00  0.00    -0.216 NA
ATOM      3  C   UNL     1      -3.992   2.648  -6.543  0.00  0.00    +0.117 A 
ATOM      4  C   UNL     1      -4.616   1.998  -7.617  0.00  0.00    +0.076 A 
ATOM      5  C   UNL     1      -5.244   2.871  -8.623  0.00  0.00    -0.023 A 
ATOM      6  C   UNL     1      -5.162   4.195  -8.414  0.00  0.00    -0.004 A 
ATOM      7  S   UNL     1      -4.256   4.366  -6.894  0.00  0.00    -0.073 S 
ATOM      8  C   UNL     1      -5.841   4.985  -9.501  0.00  0.00    +0.043 C 
ATOM      9  C   UNL     1      -6.748   3.959 -10.216  0.00  0.00    +0.010 C 
ATOM     10  C   UNL     1      -6.014   2.636  -9.925  0.00  0.00    +0.037 C 
ATOM     11  C   UNL     1      -4.564   0.569  -7.603  0.00  0.00    +0.263 A 
ATOM     12  O   UNL     1      -5.081  -0.079  -8.497  0.00  0.00    -0.267 OA
ATOM     13  N   UNL     1      -3.931  -0.050  -6.588  0.00  0.00    -0.287 N 
ENDROOT
BRANCH   1  14
ATOM     14  S   UNL     1      -2.540  -0.195  -4.268  0.00  0.00    -0.078 S 
BRANCH  14  15
ATOM     15  C   UNL     1      -1.984   1.210  -3.271  0.00  0.00    +0.173 C 
BRANCH  15  18
ATOM     16  C   UNL     1      -0.902   3.018  -1.376  0.00  0.00    +0.132 C 
ATOM     17  N   UNL     1      -0.734   1.577  -1.169  0.00  0.00    -0.299 N 
ATOM     18  C   UNL     1      -1.243   0.704  -2.061  0.00  0.00    +0.226 C 
ATOM     19  O   UNL     1      -1.103  -0.488  -1.889  0.00  0.00    -0.275 OA
BRANCH  17  20
ATOM     20  C   UNL     1      -0.013   1.086   0.008  0.00  0.00    +0.098 C 
ATOM     21  C   UNL     1       1.427   1.625  -0.003  0.00  0.00    +0.046 C 
ATOM     22  C   UNL     1       2.091   1.384   1.374  0.00  0.00    +0.168 C 
ATOM     23  S   UNL     1       0.655   1.393   2.522  0.00  0.00    -0.029 S 
ATOM     24  O   UNL     1       0.543   0.116   3.134  0.00  0.00    -0.174 OA
ATOM     25  O   UNL     1       0.722   2.555   3.338  0.00  0.00    -0.174 OA
ATOM     26  C   UNL     1      -0.711   1.595   1.302  0.00  0.00    +0.188 C 
ENDBRANCH  17  20
ENDBRANCH  15  18
ENDBRANCH  14  15
ENDBRANCH   1  14
BRANCH  13  27
ATOM     27  C   UNL     1      -3.867  -1.513  -6.566  0.00  0.00    +0.132 C 
BRANCH  27  28
ATOM     28  C   UNL     1      -5.083  -2.066  -5.820  0.00  0.00    +0.057 C 
BRANCH  28  29
ATOM     29  C   UNL     1      -5.017  -3.571  -5.797  0.00  0.00    -0.046 A 
ATOM     30  C   UNL     1      -5.604  -4.304  -6.812  0.00  0.00    +0.004 A 
ATOM     31  C   UNL     1      -5.540  -5.684  -6.794  0.00  0.00    +0.000 A 
ATOM     32  C   UNL     1      -4.897  -6.333  -5.756  0.00  0.00    +0.000 A 
ATOM     33  C   UNL     1      -4.315  -5.600  -4.738  0.00  0.00    +0.000 A 
ATOM     34  C   UNL     1      -4.375  -4.219  -4.759  0.00  0.00    +0.004 A 
ENDBRANCH  28  29
ENDBRANCH  27  28
ENDBRANCH  13  27
TORSDOF 7
