REMARK  Name = ZINC20885292
REMARK  3 active torsions:
REMARK  status: ('A' for Active; 'I' for Inactive)
REMARK    1  A    between atoms: N_9  and  N_10
REMARK    2  A    between atoms: C_11  and  C_13
REMARK    3  A    between atoms: C_15  and  N_21
REMARK                            x       y       z     vdW  Elec       q    Type
REMARK                         _______ _______ _______ _____ _____    ______ ____
ROOT
ATOM      1  N   UNL     1      -4.102   4.589   0.104  0.00  0.00    -0.202 N 
ATOM      2  C   UNL     1      -4.765   5.708  -0.246  0.00  0.00    +0.283 C 
ATOM      3  O   UNL     1      -4.159   6.750  -0.404  0.00  0.00    -0.267 OA
ATOM      4  H   UNL     1      -4.651   3.646   0.247  0.00  0.00    +0.178 HD
ENDROOT
BRANCH   2   5
ATOM      5  C   UNL     1      -6.232   5.670  -0.437  0.00  0.00    +0.149 A 
ATOM      6  C   UNL     1      -6.911   6.831  -0.798  0.00  0.00    +0.094 A 
ATOM      7  C   UNL     1      -8.294   6.778  -0.974  0.00  0.00    +0.067 A 
ATOM      8  C   UNL     1      -8.940   5.558  -0.780  0.00  0.00    +0.100 A 
ATOM      9  C   UNL     1      -8.194   4.446  -0.421  0.00  0.00    +0.150 A 
ATOM     10  N   UNL     1      -6.888   4.527  -0.267  0.00  0.00    -0.228 NA
ATOM     11 CL   UNL     1      -8.991   2.923  -0.178  0.00  0.00    -0.060 Cl
ATOM     12 CL   UNL     1     -10.659   5.432  -0.986  0.00  0.00    -0.078 Cl
ATOM     13 CL   UNL     1      -6.050   8.321  -1.024  0.00  0.00    -0.079 Cl
BRANCH   7  14
ATOM     14  N   UNL     1      -9.012   7.916  -1.335  0.00  0.00    -0.356 N 
ATOM     15  H   UNL     1     -10.102   7.859  -1.470  0.00  0.00    +0.142 HD
ATOM     16  H   UNL     1      -8.489   8.872  -1.484  0.00  0.00    +0.142 HD
ENDBRANCH   7  14
ENDBRANCH   2   5
BRANCH   1  23
ATOM     17  C   UNL     1       0.573   3.324   0.092  0.00  0.00    +0.037 C 
ATOM     18  C   UNL     1       1.058   1.870   0.002  0.00  0.00    -0.030 C 
ATOM     19  C   UNL     1      -0.013   1.076   0.008  0.00  0.00    -0.027 C 
ATOM     20  C   UNL     1      -1.216   1.918   0.018  0.00  0.00    +0.026 C 
ATOM     21  C   UNL     1      -0.700   3.138   0.902  0.00  0.00    +0.046 C 
ATOM     22  C   UNL     1      -2.083   3.561   0.616  0.00  0.00    +0.041 C 
ATOM     23  N   UNL     1      -2.713   4.625   0.284  0.00  0.00    -0.189 NA
ATOM     24  C   UNL     1      -2.394   2.077   0.908  0.00  0.00    +0.061 C 
ENDBRANCH   1  23
TORSDOF 3
