REMARK  Name = ZINC40645958
REMARK  7 active torsions:
REMARK  status: ('A' for Active; 'I' for Inactive)
REMARK    1  A    between atoms: C_1  and  C_2
REMARK    2  A    between atoms: C_2  and  C_41
REMARK    3  A    between atoms: C_7  and  C_23
REMARK    4  A    between atoms: C_8  and  N_11
REMARK    5  A    between atoms: C_12  and  C_14
REMARK    6  A    between atoms: C_23  and  S_24
REMARK    7  A    between atoms: S_24  and  N_27
REMARK                            x       y       z     vdW  Elec       q    Type
REMARK                         _______ _______ _______ _____ _____    ______ ____
ROOT
ATOM      1  C   UNL     1      -0.076   1.470  -0.029  0.00  0.00    +0.012 C 
ATOM      2  C   UNL     1      -0.350  -0.036   0.002  0.00  0.00    -0.023 C 
ATOM      3  C   UNL     1      -1.777  -0.363   0.568  0.00  0.00    -0.003 C 
ATOM      4  C   UNL     1      -1.677  -1.911   0.724  0.00  0.00    +0.005 C 
ATOM      5  C   UNL     1      -0.202  -2.171   1.105  0.00  0.00    +0.011 C 
ATOM      6  C   UNL     1       0.451  -0.756   1.144  0.00  0.00    +0.015 C 
ATOM      7  C   UNL     1      -0.168  -0.075   2.403  0.00  0.00    +0.081 C 
ATOM      8  C   UNL     1      -1.650   0.203   2.015  0.00  0.00    +0.027 C 
ATOM      9  C   UNL     1      -0.110  -0.683  -1.363  0.00  0.00    +0.012 C 
ENDROOT
BRANCH   7  10
ATOM     10  N   UNL     1      -0.087  -0.971   3.559  0.00  0.00    -0.312 N 
ATOM     11  C   UNL     1      -0.262  -0.483   4.803  0.00  0.00    +0.215 C 
ATOM     12  O   UNL     1      -0.486   0.698   4.966  0.00  0.00    -0.276 OA
ATOM     13  H   UNL     1       0.092  -1.916   3.429  0.00  0.00    +0.149 HD
BRANCH  11  14
ATOM     14  C   UNL     1      -0.179  -1.405   5.993  0.00  0.00    +0.061 C 
ATOM     15  C   UNL     1      -1.250  -2.491   5.875  0.00  0.00    -0.066 C 
ATOM     16  N   UNL     1      -2.160  -2.424   7.021  0.00  0.00    +0.380 N 
ATOM     17  C   UNL     1      -2.849  -1.132   7.058  0.00  0.00    -0.079 C 
ATOM     18  C   UNL     1      -1.831   0.000   7.214  0.00  0.00    -0.015 C 
ATOM     19  C   UNL     1      -0.419  -0.606   7.280  0.00  0.00    -0.004 C 
ATOM     20  C   UNL     1      -0.366  -1.575   8.469  0.00  0.00    -0.015 C 
ATOM     21  C   UNL     1      -1.434  -2.657   8.271  0.00  0.00    -0.079 C 
ATOM     22  H   UNL     1      -2.857  -3.146   6.918  0.00  0.00    -0.082 HD
ENDBRANCH  11  14
ENDBRANCH   7  10
BRANCH   6  23
ATOM     23  C   UNL     1       1.976  -0.719   1.027  0.00  0.00    +0.194 C 
BRANCH  23  24
ATOM     24  S   UNL     1       2.712  -1.599   2.432  0.00  0.00    +0.032 S 
ATOM     25  O   UNL     1       2.472  -0.885   3.637  0.00  0.00    -0.158 OA
ATOM     26  O   UNL     1       2.424  -2.988   2.344  0.00  0.00    -0.158 OA
BRANCH  24  27
ATOM     27  N   UNL     1       4.347  -1.490   2.194  0.00  0.00    -0.181 NA
ATOM     28  C   UNL     1       5.060  -2.515   1.419  0.00  0.00    +0.110 C 
ATOM     29  C   UNL     1       5.846  -1.826   0.298  0.00  0.00    +0.028 C 
ATOM     30  C   UNL     1       6.737  -0.741   0.896  0.00  0.00    -0.001 C 
ATOM     31  C   UNL     1       7.750  -1.370   1.870  0.00  0.00    +0.016 C 
ATOM     32  C   UNL     1       9.000  -0.489   1.659  0.00  0.00    +0.036 C 
ATOM     33  C   UNL     1       8.870   0.056   0.253  0.00  0.00    -0.044 A 
ATOM     34  C   UNL     1       7.565  -0.089  -0.186  0.00  0.00    -0.038 A 
ATOM     35  C   UNL     1       7.213   0.345  -1.453  0.00  0.00    +0.004 A 
ATOM     36  C   UNL     1       8.159   0.920  -2.279  0.00  0.00    +0.000 A 
ATOM     37  C   UNL     1       9.461   1.064  -1.841  0.00  0.00    +0.000 A 
ATOM     38  C   UNL     1       9.815   0.634  -0.577  0.00  0.00    +0.004 A 
ATOM     39  C   UNL     1       5.896   0.306   1.621  0.00  0.00    +0.028 C 
ATOM     40  C   UNL     1       5.110  -0.364   2.748  0.00  0.00    +0.110 C 
ENDBRANCH  24  27
ENDBRANCH  23  24
ENDBRANCH   6  23
TORSDOF 5
