REMARK  Name = ZINC22039193
REMARK  9 active torsions:
REMARK  status: ('A' for Active; 'I' for Inactive)
REMARK    1  A    between atoms: C_1  and  C_2
REMARK    2  A    between atoms: C_5  and  N_8
REMARK    3  A    between atoms: N_8  and  C_9
REMARK    4  A    between atoms: C_10  and  C_12
REMARK    5  A    between atoms: C_12  and  S_13
REMARK    6  A    between atoms: S_13  and  C_14
REMARK    7  A    between atoms: N_27  and  C_28
REMARK    8  A    between atoms: C_32  and  O_34
REMARK    9  A    between atoms: O_34  and  C_35
REMARK                            x       y       z     vdW  Elec       q    Type
REMARK                         _______ _______ _______ _____ _____    ______ ____
ROOT
ATOM      1  C   UNL     1      -1.643   7.440  -6.487  0.00  0.00    +0.198 A 
ATOM      2  N   UNL     1      -2.949   7.389  -6.600  0.00  0.00    -0.120 NA
ATOM      3  N   UNL     1      -3.296   7.607  -7.818  0.00  0.00    -0.109 NA
ATOM      4  C   UNL     1      -2.234   7.812  -8.560  0.00  0.00    +0.245 A 
ATOM      5  N   UNL     1      -1.146   7.718  -7.732  0.00  0.00    -0.255 N 
ATOM      6  C   UNL     1       0.142   7.881  -8.225  0.00  0.00    +0.064 A 
ATOM      7  C   UNL     1       1.248   7.782  -7.394  0.00  0.00    +0.027 A 
ATOM      8  C   UNL     1       2.516   7.955  -7.912  0.00  0.00    +0.002 A 
ATOM      9  C   UNL     1       2.696   8.230  -9.259  0.00  0.00    +0.001 A 
ATOM     10  C   UNL     1       1.608   8.332 -10.100  0.00  0.00    +0.015 A 
ATOM     11  C   UNL     1       0.323   8.159  -9.589  0.00  0.00    +0.064 A 
ATOM     12  C   UNL     1      -0.866   8.261 -10.455  0.00  0.00    +0.268 A 
ATOM     13  O   UNL     1      -0.746   8.501 -11.642  0.00  0.00    -0.267 OA
ATOM     14  N   UNL     1      -2.088   8.085  -9.912  0.00  0.00    -0.245 N 
ENDROOT
BRANCH  14  15
ATOM     15  C   UNL     1      -3.224   8.181 -10.723  0.00  0.00    +0.056 A 
ATOM     16  C   UNL     1      -3.724   7.049 -11.355  0.00  0.00    +0.026 A 
ATOM     17  C   UNL     1      -4.846   7.143 -12.156  0.00  0.00    +0.006 A 
ATOM     18  C   UNL     1      -5.474   8.362 -12.330  0.00  0.00    +0.046 A 
ATOM     19  C   UNL     1      -4.979   9.495 -11.701  0.00  0.00    +0.122 A 
ATOM     20  C   UNL     1      -3.857   9.404 -10.893  0.00  0.00    +0.072 A 
BRANCH  19  21
ATOM     21  O   UNL     1      -5.598  10.693 -11.872  0.00  0.00    -0.495 OA
ATOM     22  C   UNL     1      -6.753  10.712 -12.714  0.00  0.00    +0.277 C 
ENDBRANCH  19  21
ENDBRANCH  14  15
BRANCH   1  23
ATOM     23  S   UNL     1      -0.708   7.205  -5.013  0.00  0.00    -0.076 S 
BRANCH  23  24
ATOM     24  C   UNL     1      -1.963   6.885  -3.743  0.00  0.00    +0.173 C 
BRANCH  24  27
ATOM     25  N   UNL     1      -2.028   6.406  -1.317  0.00  0.00    -0.301 N 
ATOM     26  C   UNL     1      -3.489   6.343  -1.417  0.00  0.00    +0.132 C 
ATOM     27  C   UNL     1      -1.288   6.663  -2.414  0.00  0.00    +0.226 C 
ATOM     28  O   UNL     1      -0.080   6.715  -2.331  0.00  0.00    -0.275 OA
BRANCH  25  33
ATOM     29  C   UNL     1      -0.833   5.395   4.194  0.00  0.00    +0.007 C 
ATOM     30  C   UNL     1      -1.518   5.620   2.845  0.00  0.00    -0.014 C 
ATOM     31  C   UNL     1      -1.033   4.569   1.845  0.00  0.00    +0.005 C 
ATOM     32  C   UNL     1      -1.718   4.794   0.496  0.00  0.00    +0.023 C 
ATOM     33  C   UNL     1      -1.372   6.190  -0.025  0.00  0.00    +0.076 C 
ATOM     34  C   UNL     1      -1.857   7.242   0.975  0.00  0.00    +0.023 C 
ATOM     35  C   UNL     1      -1.172   7.017   2.324  0.00  0.00    +0.005 C 
ENDBRANCH  25  33
ENDBRANCH  24  27
ENDBRANCH  23  24
ENDBRANCH   1  23
TORSDOF 6
