REMARK  Name = ZINC01268539
REMARK  5 active torsions:
REMARK  status: ('A' for Active; 'I' for Inactive)
REMARK    1  A    between atoms: C_3  and  C_6
REMARK    2  A    between atoms: C_6  and  N_7
REMARK    3  A    between atoms: C_15  and  C_23
REMARK    4  A    between atoms: C_15  and  C_27
REMARK    5  A    between atoms: C_16  and  C_18
REMARK                            x       y       z     vdW  Elec       q    Type
REMARK                         _______ _______ _______ _____ _____    ______ ____
ROOT
ATOM      1  N   UNL     1       3.818   3.210   0.408  0.00  0.00    -0.274 N 
ATOM      2  C   UNL     1       2.629   3.855   0.223  0.00  0.00    +0.120 A 
ATOM      3  C   UNL     1       1.459   3.127   0.227  0.00  0.00    +0.098 A 
ATOM      4  C   UNL     1       1.527   1.745   0.428  0.00  0.00    +0.262 A 
ATOM      5  N   UNL     1       2.708   1.167   0.613  0.00  0.00    -0.275 N 
ATOM      6  C   UNL     1       3.834   1.877   0.599  0.00  0.00    +0.331 A 
ATOM      7  O   UNL     1       4.901   1.309   0.767  0.00  0.00    -0.246 OA
ATOM      8  O   UNL     1       0.397   1.002   0.438  0.00  0.00    -0.267 OA
ATOM      9  C   UNL     1       0.136   3.805   0.017  0.00  0.00    +0.264 C 
ATOM     10  C   UNL     1       1.379   5.880   0.193  0.00  0.00    +0.113 C 
ATOM     11  N   UNL     1       2.581   5.216   0.035  0.00  0.00    -0.286 N 
ATOM     12  H   UNL     1       2.753   0.180   0.767  0.00  0.00    +0.173 HD
ATOM     13  H   UNL     1       3.383   5.705  -0.206  0.00  0.00    +0.155 HD
ATOM     14  N   UNL     1       0.169   5.299   0.205  0.00  0.00    -0.348 N 
ATOM     15  H   UNL     1      -0.690   5.846   0.337  0.00  0.00    +0.162 HD
ENDROOT
BRANCH  10  16
ATOM     16  C   UNL     1       1.384   7.341   0.364  0.00  0.00    +0.050 A 
ATOM     17  C   UNL     1       0.315   8.203   0.531  0.00  0.00    +0.019 A 
ATOM     18  C   UNL     1       0.605   9.540   0.673  0.00  0.00    +0.008 A 
ATOM     19  C   UNL     1       1.899   9.944   0.635  0.00  0.00    +0.046 A 
ATOM     20  S   UNL     1       2.770   8.463   0.404  0.00  0.00    -0.094 S 
ENDBRANCH  10  16
BRANCH   9  21
ATOM     21  C   UNL     1      -0.358   3.510  -1.401  0.00  0.00    +0.426 C 
ATOM     22  F   UNL     1      -0.506   2.129  -1.565  0.00  0.00    -0.167 F 
ATOM     23  F   UNL     1      -1.591   4.139  -1.605  0.00  0.00    -0.167 F 
ATOM     24  F   UNL     1       0.571   3.994  -2.329  0.00  0.00    -0.167 F 
ENDBRANCH   9  21
BRANCH   9  25
ATOM     25  C   UNL     1      -0.875   3.255   1.024  0.00  0.00    +0.426 C 
ATOM     26  F   UNL     1      -0.263   3.123   2.275  0.00  0.00    -0.167 F 
ATOM     27  F   UNL     1      -1.959   4.133   1.125  0.00  0.00    -0.167 F 
ATOM     28  F   UNL     1      -1.329   2.003   0.593  0.00  0.00    -0.167 F 
ENDBRANCH   9  25
BRANCH   1  29
ATOM     29  C   UNL     1       5.072   3.966   0.399  0.00  0.00    +0.202 C 
BRANCH  29  32
ATOM     30  C   UNL     1       6.166   4.538   3.872  0.00  0.00    +0.041 A 
ATOM     31  C   UNL     1       6.112   3.741   2.705  0.00  0.00    +0.046 A 
ATOM     32  C   UNL     1       5.393   4.425   1.798  0.00  0.00    +0.125 A 
ATOM     33  O   UNL     1       5.003   5.585   2.353  0.00  0.00    -0.466 OA
ATOM     34  C   UNL     1       5.469   5.659   3.610  0.00  0.00    +0.195 A 
ENDBRANCH  29  32
ENDBRANCH   1  29
TORSDOF 5
