REMARK  Name = ZINC38549998
REMARK  10 active torsions:
REMARK  status: ('A' for Active; 'I' for Inactive)
REMARK    1  A    between atoms: C_1  and  O_2
REMARK    2  A    between atoms: O_2  and  C_3
REMARK    3  A    between atoms: C_8  and  O_9
REMARK    4  A    between atoms: O_9  and  C_10
REMARK    5  A    between atoms: N_12  and  C_15
REMARK    6  A    between atoms: C_15  and  C_16
REMARK    7  A    between atoms: N_18  and  C_19
REMARK    8  A    between atoms: C_27  and  C_29
REMARK    9  A    between atoms: C_29  and  O_31
REMARK   10  A    between atoms: O_31  and  C_32
REMARK                            x       y       z     vdW  Elec       q    Type
REMARK                         _______ _______ _______ _____ _____    ______ ____
ROOT
ATOM      1  C   UNL     1       2.906  -3.546  -7.317  0.00  0.00    +0.200 C 
ATOM      2  O   UNL     1       1.730  -3.552  -7.020  0.00  0.00    -0.278 OA
ATOM      3  N   UNL     1       3.402  -4.508  -8.120  0.00  0.00    -0.288 N 
ATOM      4  H   UNL     1       4.323  -4.461  -8.422  0.00  0.00    +0.155 HD
ENDROOT
BRANCH   3   5
ATOM      5  C   UNL     1       2.611  -5.548  -8.508  0.00  0.00    +0.053 C 
ATOM      6  C   UNL     1       2.918  -6.533  -9.430  0.00  0.00    +0.018 A 
ATOM      7  C   UNL     1       4.067  -6.777 -10.220  0.00  0.00    +0.011 A 
ATOM      8  C   UNL     1       4.093  -7.844 -11.057  0.00  0.00    +0.001 A 
ATOM      9  C   UNL     1       3.008  -8.718 -11.163  0.00  0.00    +0.002 A 
ATOM     10  C   UNL     1       1.876  -8.546 -10.438  0.00  0.00    +0.026 A 
ATOM     11  C   UNL     1       1.773  -7.453  -9.539  0.00  0.00    +0.045 A 
ATOM     12  N   UNL     1       0.799  -7.073  -8.736  0.00  0.00    -0.367 N 
ATOM     13  C   UNL     1       1.217  -5.867  -8.014  0.00  0.00    +0.234 C 
ATOM     14  H   UNL     1      -0.054  -7.522  -8.635  0.00  0.00    +0.161 HD
BRANCH  13  15
ATOM     15  C   UNL     1       1.238  -6.127  -6.530  0.00  0.00    +0.335 C 
ATOM     16  O   UNL     1       1.461  -7.240  -6.115  0.00  0.00    -0.248 OA
BRANCH  15  17
ATOM     17  O   UNL     1       1.010  -5.123  -5.669  0.00  0.00    -0.466 OA
ATOM     18  C   UNL     1       1.046  -5.442  -4.277  0.00  0.00    +0.280 C 
ENDBRANCH  15  17
ENDBRANCH  13  15
ENDBRANCH   3   5
BRANCH   1  19
ATOM     19  C   UNL     1       3.812  -2.464  -6.790  0.00  0.00    +0.019 C 
BRANCH  19  27
ATOM     20  C   UNL     1       0.629   0.388  -1.997  0.00  0.00    +0.162 A 
ATOM     21  C   UNL     1       1.473   0.902  -2.966  0.00  0.00    +0.053 A 
ATOM     22  C   UNL     1       2.099   0.057  -3.869  0.00  0.00    -0.044 A 
ATOM     23  C   UNL     1       1.885  -1.304  -3.804  0.00  0.00    -0.057 A 
ATOM     24  C   UNL     1       1.039  -1.824  -2.836  0.00  0.00    +0.051 A 
ATOM     25  C   UNL     1       0.415  -0.986  -1.929  0.00  0.00    +0.162 A 
ATOM     26  C   UNL     1       2.553  -2.257  -4.760  0.00  0.00    -0.042 C 
ATOM     27  N   UNL     1       3.036  -1.545  -5.946  0.00  0.00    +0.388 N 
ATOM     28  C   UNL     1       3.893  -0.428  -5.518  0.00  0.00    -0.073 C 
ATOM     29  C   UNL     1       3.007   0.660  -4.910  0.00  0.00    +0.017 C 
ATOM     30  H   UNL     1       2.250  -1.187  -6.468  0.00  0.00    -0.081 HD
BRANCH  20  32
ATOM     31  C   UNL     1       0.286   2.617  -1.243  0.00  0.00    +0.277 C 
ATOM     32  O   UNL     1       0.018   1.220  -1.112  0.00  0.00    -0.491 OA
ENDBRANCH  20  32
BRANCH  25  33
ATOM     33  O   UNL     1      -0.409  -1.502  -0.978  0.00  0.00    -0.491 OA
ATOM     34  C   UNL     1      -0.582  -2.920  -0.969  0.00  0.00    +0.277 C 
ENDBRANCH  25  33
ENDBRANCH  19  27
ENDBRANCH   1  19
TORSDOF 7
