REMARK  Name = ZINC41092680
REMARK  3 active torsions:
REMARK  status: ('A' for Active; 'I' for Inactive)
REMARK    1  A    between atoms: C_3  and  N_18
REMARK    2  A    between atoms: C_6  and  N_7
REMARK    3  A    between atoms: N_7  and  C_8
REMARK                            x       y       z     vdW  Elec       q    Type
REMARK                         _______ _______ _______ _____ _____    ______ ____
ROOT
ATOM      1  C   UNL     1       0.165   1.271   0.048  0.00  0.00    +0.025 A 
ATOM      2  C   UNL     1       1.409   1.870   0.058  0.00  0.00    +0.025 A 
ATOM      3  C   UNL     1       2.556   1.087   0.040  0.00  0.00    +0.038 A 
ATOM      4  C   UNL     1       2.452  -0.297   0.013  0.00  0.00    +0.025 A 
ATOM      5  C   UNL     1       1.208  -0.896   0.003  0.00  0.00    +0.025 A 
ATOM      6  C   UNL     1       0.061  -0.114   0.020  0.00  0.00    +0.027 A 
ENDROOT
BRANCH   3   7
ATOM      7  N   UNL     1       3.820   1.695   0.050  0.00  0.00    -0.254 N 
ATOM      8  C   UNL     1       5.105   0.988   0.150  0.00  0.00    +0.134 C 
ATOM      9  C   UNL     1       6.152   2.118   0.116  0.00  0.00    +0.125 C 
ATOM     10  N   UNL     1       5.345   3.342   0.001  0.00  0.00    -0.297 N 
ATOM     11  C   UNL     1       4.048   3.012  -0.035  0.00  0.00    +0.307 C 
ATOM     12  O   UNL     1       3.157   3.835  -0.132  0.00  0.00    -0.252 OA
ATOM     13  H   UNL     1       5.697   4.245  -0.046  0.00  0.00    +0.150 HD
ENDBRANCH   3   7
BRANCH   6  14
ATOM     14  N   UNL     1      -1.200  -0.720   0.010  0.00  0.00    -0.341 N 
ATOM     15  H   UNL     1      -2.001  -0.174   0.022  0.00  0.00    +0.146 HD
BRANCH  14  16
ATOM     16  C   UNL     1      -1.310  -2.181  -0.019  0.00  0.00    +0.074 C 
ATOM     17  C   UNL     1      -2.740  -2.622   0.370  0.00  0.00    +0.026 C 
ATOM     18  C   UNL     1      -3.274  -3.377  -0.885  0.00  0.00    -0.009 C 
ATOM     19  C   UNL     1      -3.502  -2.258  -1.947  0.00  0.00    +0.004 C 
ATOM     20  C   UNL     1      -2.080  -1.800  -2.343  0.00  0.00    +0.005 C 
ATOM     21  C   UNL     1      -1.111  -2.712  -1.471  0.00  0.00    +0.009 C 
ATOM     22  C   UNL     1      -1.951  -4.039  -1.411  0.00  0.00    +0.009 C 
ENDBRANCH  14  16
ENDBRANCH   6  14
TORSDOF 3
