REMARK  Name = ZINC08745334
REMARK  6 active torsions:
REMARK  status: ('A' for Active; 'I' for Inactive)
REMARK    1  A    between atoms: C_4  and  C_7
REMARK    2  A    between atoms: C_7  and  C_28
REMARK    3  A    between atoms: N_10  and  N_14
REMARK    4  A    between atoms: C_15  and  C_17
REMARK    5  A    between atoms: C_17  and  N_61
REMARK    6  A    between atoms: C_23  and  C_25
REMARK                            x       y       z     vdW  Elec       q    Type
REMARK                         _______ _______ _______ _____ _____    ______ ____
ROOT
ATOM      1  C   UNL     1       2.994   3.322   0.604  0.00  0.00    +0.165 C 
ATOM      2  C   UNL     1       2.448   2.477   1.737  0.00  0.00    +0.272 C 
ATOM      3  O   UNL     1       2.861   2.424   2.876  0.00  0.00    -0.270 OA
ATOM      4  N   UNL     1       1.409   1.796   1.215  0.00  0.00    -0.137 N 
ATOM      5  C   UNL     1       1.220   2.096  -0.075  0.00  0.00    +0.327 C 
ATOM      6  O   UNL     1       0.341   1.611  -0.759  0.00  0.00    -0.251 OA
ATOM      7  N   UNL     1       2.112   2.994  -0.530  0.00  0.00    -0.276 N 
ATOM      8  H   UNL     1       2.164   3.355  -1.428  0.00  0.00    +0.152 HD
ENDROOT
BRANCH   1  12
ATOM      9  C   UNL     1       7.034   2.247  -0.275  0.00  0.00    +0.000 A 
ATOM     10  C   UNL     1       6.651   2.487   1.031  0.00  0.00    +0.000 A 
ATOM     11  C   UNL     1       5.344   2.835   1.316  0.00  0.00    +0.006 A 
ATOM     12  C   UNL     1       4.419   2.943   0.293  0.00  0.00    -0.011 A 
ATOM     13  C   UNL     1       4.801   2.698  -1.012  0.00  0.00    +0.006 A 
ATOM     14  C   UNL     1       6.109   2.354  -1.297  0.00  0.00    +0.000 A 
ENDBRANCH   1  12
BRANCH   1  15
ATOM     15  C   UNL     1       2.899   4.788   0.942  0.00  0.00    -0.011 A 
ATOM     16  C   UNL     1       3.434   5.260   2.126  0.00  0.00    +0.006 A 
ATOM     17  C   UNL     1       3.351   6.605   2.434  0.00  0.00    +0.000 A 
ATOM     18  C   UNL     1       2.723   7.476   1.564  0.00  0.00    +0.000 A 
ATOM     19  C   UNL     1       2.183   7.003   0.383  0.00  0.00    +0.000 A 
ATOM     20  C   UNL     1       2.270   5.659   0.072  0.00  0.00    +0.006 A 
ENDBRANCH   1  15
BRANCH   4  21
ATOM     21  N   UNL     1       0.620   0.890   1.936  0.00  0.00    -0.225 N 
ATOM     22  C   UNL     1       0.766  -0.435   1.741  0.00  0.00    +0.213 C 
ATOM     23  O   UNL     1       1.580  -0.844   0.941  0.00  0.00    -0.276 OA
ATOM     24  H   UNL     1      -0.035   1.217   2.574  0.00  0.00    +0.173 HD
BRANCH  22  25
ATOM     25  C   UNL     1      -0.083  -1.409   2.517  0.00  0.00    +0.020 C 
BRANCH  25  33
ATOM     26  C   UNL     1      -0.092  -3.036   0.723  0.00  0.00    -0.059 C 
ATOM     27  C   UNL     1       0.448  -4.407   0.302  0.00  0.00    +0.089 C 
ATOM     28  N   UNL     1      -0.036  -5.413   1.259  0.00  0.00    -0.305 N 
ATOM     29  C   UNL     1       0.164  -5.162   2.695  0.00  0.00    +0.089 C 
ATOM     30  C   UNL     1      -0.365  -3.761   3.021  0.00  0.00    -0.059 C 
ATOM     31  C   UNL     1      -0.646  -6.537   0.832  0.00  0.00    +0.219 C 
ATOM     32  O   UNL     1      -1.038  -7.356   1.635  0.00  0.00    -0.275 OA
ATOM     33  N   UNL     1       0.295  -2.784   2.128  0.00  0.00    +0.387 N 
ATOM     34  H   UNL     1       1.313  -2.887   2.217  0.00  0.00    -0.081 HD
BRANCH  31  35
ATOM     35  C   UNL     1      -0.840  -6.775  -0.643  0.00  0.00    +0.075 C 
ATOM     36  C   UNL     1      -2.270  -6.728  -1.184  0.00  0.00    +0.013 C 
ATOM     37  C   UNL     1      -1.541  -8.068  -1.064  0.00  0.00    +0.013 C 
ENDBRANCH  31  35
ENDBRANCH  25  33
ENDBRANCH  22  25
ENDBRANCH   4  21
TORSDOF 6
