REMARK  Name = ZINC38083109
REMARK  7 active torsions:
REMARK  status: ('A' for Active; 'I' for Inactive)
REMARK    1  A    between atoms: C_1  and  C_2
REMARK    2  A    between atoms: C_5  and  C_11
REMARK    3  A    between atoms: C_7  and  N_8
REMARK    4  A    between atoms: C_11  and  C_13
REMARK    5  A    between atoms: C_11  and  N_14
REMARK    6  A    between atoms: N_14  and  C_15
REMARK    7  A    between atoms: C_15  and  C_16
REMARK                            x       y       z     vdW  Elec       q    Type
REMARK                         _______ _______ _______ _____ _____    ______ ____
ROOT
ATOM      1  C   UNL     1       0.578  -4.220  -0.099  0.00  0.00    -0.044 C 
ATOM      2  C   UNL     1      -0.739  -4.999  -0.086  0.00  0.00    -0.009 C 
ENDROOT
BRANCH   1   7
ATOM      3  C   UNL     1      -0.537   1.447   0.088  0.00  0.00    +0.046 C 
ATOM      4  C   UNL     1      -0.246  -0.031   0.039  0.00  0.00    -0.020 A 
ATOM      5  C   UNL     1      -0.347  -0.716  -1.157  0.00  0.00    +0.006 A 
ATOM      6  C   UNL     1      -0.080  -2.071  -1.202  0.00  0.00    +0.002 A 
ATOM      7  C   UNL     1       0.288  -2.742  -0.051  0.00  0.00    -0.059 A 
ATOM      8  C   UNL     1       0.390  -2.057   1.145  0.00  0.00    +0.035 A 
ATOM      9  C   UNL     1       0.127  -0.700   1.190  0.00  0.00    +0.129 A 
BRANCH   9  10
ATOM     10  N   UNL     1       0.241   0.035   2.470  0.00  0.00    +0.057 N 
ATOM     11  O   UNL     1       0.674   1.163   2.482  0.00  0.00    -0.126 OA
ATOM     12  O   UNL     1      -0.099  -0.494   3.502  0.00  0.00    -0.126 OA
ENDBRANCH   9  10
ENDBRANCH   1   7
BRANCH   1  13
ATOM     13  N   UNL     1       1.320  -4.533  -1.328  0.00  0.00    +0.384 N 
ATOM     14  H   UNL     1       0.736  -4.349  -2.130  0.00  0.00    -0.085 HD
ATOM     15  H   UNL     1       2.148  -3.959  -1.377  0.00  0.00    -0.085 HD
BRANCH  13  16
ATOM     16  C   UNL     1       1.706  -5.950  -1.319  0.00  0.00    -0.077 C 
BRANCH  16  17
ATOM     17  C   UNL     1       2.479  -6.276  -2.599  0.00  0.00    -0.006 C 
ATOM     18  C   UNL     1       3.808  -5.503  -2.604  0.00  0.00    +0.026 C 
ATOM     19  C   UNL     1       4.701  -6.082  -3.738  0.00  0.00    +0.166 C 
ATOM     20  S   UNL     1       4.363  -7.883  -3.547  0.00  0.00    -0.031 S 
ATOM     21  O   UNL     1       5.339  -8.447  -2.683  0.00  0.00    -0.174 OA
ATOM     22  O   UNL     1       4.153  -8.453  -4.832  0.00  0.00    -0.174 OA
ATOM     23  C   UNL     1       2.756  -7.798  -2.658  0.00  0.00    +0.167 C 
ENDBRANCH  16  17
ENDBRANCH  13  16
ENDBRANCH   1  13
TORSDOF 5
