REMARK  Name = ZINC09018098
REMARK  4 active torsions:
REMARK  status: ('A' for Active; 'I' for Inactive)
REMARK    1  A    between atoms: C_1  and  C_2
REMARK    2  A    between atoms: C_4  and  N_19
REMARK    3  A    between atoms: C_20  and  C_22
REMARK    4  A    between atoms: C_22  and  C_23
REMARK                            x       y       z     vdW  Elec       q    Type
REMARK                         _______ _______ _______ _____ _____    ______ ____
ROOT
ATOM      1  C   UNL     1      -0.107  -5.429   0.293  0.00  0.00    +0.067 C 
ATOM      2  C   UNL     1       0.311  -4.197  -0.468  0.00  0.00    +0.062 A 
ATOM      3  C   UNL     1       0.076  -2.875  -0.076  0.00  0.00    +0.068 A 
ATOM      4  C   UNL     1       0.604  -2.057  -1.026  0.00  0.00    +0.132 A 
ATOM      5  N   UNL     1       1.151  -2.853  -1.990  0.00  0.00    -0.185 N 
ATOM      6  N   UNL     1       0.955  -4.186  -1.606  0.00  0.00    -0.167 NA
ATOM      7  C   UNL     1       1.787  -2.421  -3.140  0.00  0.00    +0.234 A 
ATOM      8  N   UNL     1       2.284  -3.336  -4.013  0.00  0.00    -0.291 N 
ATOM      9  H   UNL     1       2.191  -4.284  -3.833  0.00  0.00    +0.172 HD
ATOM     10  C   UNL     1       2.908  -2.915  -5.132  0.00  0.00    +0.256 A 
ATOM     11  O   UNL     1       3.359  -3.721  -5.929  0.00  0.00    -0.267 OA
ATOM     12  C   UNL     1       3.031  -1.528  -5.369  0.00  0.00    +0.038 A 
ATOM     13  C   UNL     1       2.509  -0.660  -4.465  0.00  0.00    +0.053 A 
ATOM     14  N   UNL     1       1.896  -1.134  -3.372  0.00  0.00    -0.217 NA
ATOM     15  C   UNL     1       2.579   0.834  -4.638  0.00  0.00    +0.056 C 
ATOM     16  C   UNL     1       3.653   1.207  -5.659  0.00  0.00    +0.006 C 
ATOM     17  C   UNL     1       3.422   0.378  -6.928  0.00  0.00    +0.005 C 
ATOM     18  C   UNL     1       3.747  -1.082  -6.614  0.00  0.00    +0.042 C 
ENDROOT
BRANCH   4  19
ATOM     19  N   UNL     1       0.585  -0.664  -1.018  0.00  0.00    -0.270 N 
ATOM     20  C   UNL     1       0.002  -0.004   0.002  0.00  0.00    +0.223 C 
ATOM     21  O   UNL     1      -0.506  -0.623   0.913  0.00  0.00    -0.275 OA
ATOM     22  H   UNL     1       0.992  -0.170  -1.747  0.00  0.00    +0.156 HD
BRANCH  20  23
ATOM     23  C   UNL     1      -0.018   1.503   0.010  0.00  0.00    +0.131 C 
BRANCH  23  24
ATOM     24  C   UNL     1      -0.724   1.989   1.250  0.00  0.00    -0.039 A 
ATOM     25  C   UNL     1      -2.089   2.206   1.228  0.00  0.00    +0.005 A 
ATOM     26  C   UNL     1      -2.737   2.646   2.367  0.00  0.00    +0.020 A 
ATOM     27  C   UNL     1      -2.018   2.881   3.525  0.00  0.00    +0.041 A 
ATOM     28  C   UNL     1      -0.651   2.668   3.545  0.00  0.00    +0.020 A 
ATOM     29  C   UNL     1      -0.005   2.223   2.408  0.00  0.00    +0.005 A 
ATOM     30 CL   UNL     1      -2.831   3.440   4.954  0.00  0.00    -0.084 Cl
ENDBRANCH  23  24
ENDBRANCH  20  23
ENDBRANCH   4  19
TORSDOF 3
