REMARK  Name = ZINC46650758
REMARK  7 active torsions:
REMARK  status: ('A' for Active; 'I' for Inactive)
REMARK    1  A    between atoms: C_1  and  C_2
REMARK    2  A    between atoms: C_10  and  C_11
REMARK    3  A    between atoms: C_11  and  C_13
REMARK    4  A    between atoms: C_11  and  N_14
REMARK    5  A    between atoms: C_15  and  C_17
REMARK    6  A    between atoms: C_17  and  C_18
REMARK    7  A    between atoms: C_24  and  C_26
REMARK                            x       y       z     vdW  Elec       q    Type
REMARK                         _______ _______ _______ _____ _____    ______ ____
ROOT
ATOM      1  N   UNL     1       1.025  -1.119   3.258  0.00  0.00    -0.305 N 
ATOM      2  C   UNL     1       1.577  -0.595   4.370  0.00  0.00    +0.219 C 
ATOM      3  O   UNL     1       1.251   0.511   4.746  0.00  0.00    -0.275 OA
ATOM      4  H   UNL     1       1.286  -2.003   2.958  0.00  0.00    +0.149 HD
ENDROOT
BRANCH   1   5
ATOM      5  C   UNL     1       0.030  -0.352   2.503  0.00  0.00    +0.136 C 
ATOM      6  C   UNL     1      -1.354  -0.570   3.116  0.00  0.00    +0.036 C 
BRANCH   5  16
ATOM      7  C   UNL     1      -0.018   1.503   0.010  0.00  0.00    +0.048 C 
ATOM      8  C   UNL     1       0.002  -0.004   0.002  0.00  0.00    +0.000 A 
ATOM      9  C   UNL     1       0.009  -0.879  -1.177  0.00  0.00    +0.023 A 
ATOM     10  C   UNL     1       0.000  -0.660  -2.553  0.00  0.00    +0.012 A 
ATOM     11  C   UNL     1       0.011  -1.726  -3.409  0.00  0.00    +0.001 A 
ATOM     12  C   UNL     1       0.031  -3.023  -2.916  0.00  0.00    +0.004 A 
ATOM     13  C   UNL     1       0.040  -3.259  -1.558  0.00  0.00    +0.047 A 
ATOM     14  C   UNL     1       0.029  -2.190  -0.671  0.00  0.00    +0.136 A 
ATOM     15  O   UNL     1       0.033  -2.100   0.674  0.00  0.00    -0.458 OA
ATOM     16  C   UNL     1       0.023  -0.814   1.069  0.00  0.00    +0.129 A 
ENDBRANCH   5  16
ENDBRANCH   1   5
BRANCH   2  17
ATOM     17  C   UNL     1       2.600  -1.383   5.147  0.00  0.00    +0.151 C 
BRANCH  17  18
ATOM     18  C   UNL     1       3.056  -0.579   6.337  0.00  0.00    +0.059 A 
ATOM     19  C   UNL     1       2.991  -1.078   7.596  0.00  0.00    +0.072 A 
ATOM     20  S   UNL     1       3.650   0.292   8.532  0.00  0.00    -0.060 S 
ATOM     21  C   UNL     1       3.935   1.338   7.244  0.00  0.00    +0.165 A 
ATOM     22  N   UNL     1       3.543   0.641   6.200  0.00  0.00    -0.229 NA
ATOM     23  N   UNL     1       4.461   2.623   7.276  0.00  0.00    -0.258 N 
ATOM     24  C   UNL     1       4.815   3.177   8.453  0.00  0.00    +0.285 C 
ATOM     25  O   UNL     1       4.674   2.551   9.487  0.00  0.00    -0.266 OA
ATOM     26  H   UNL     1       4.573   3.122   6.452  0.00  0.00    +0.157 HD
BRANCH  24  27
ATOM     27  C   UNL     1       5.370   4.533   8.486  0.00  0.00    +0.189 A 
ATOM     28  C   UNL     1       5.773   5.208   9.603  0.00  0.00    +0.054 A 
ATOM     29  C   UNL     1       6.234   6.462   9.173  0.00  0.00    +0.042 A 
ATOM     30  C   UNL     1       6.094   6.497   7.829  0.00  0.00    +0.196 A 
ATOM     31  O   UNL     1       5.579   5.332   7.418  0.00  0.00    -0.458 OA
ENDBRANCH  24  27
ENDBRANCH  17  18
ENDBRANCH   2  17
TORSDOF 5
