REMARK  Name = ZINC50995186
REMARK  7 active torsions:
REMARK  status: ('A' for Active; 'I' for Inactive)
REMARK    1  A    between atoms: C_1  and  C_2
REMARK    2  A    between atoms: C_2  and  C_3
REMARK    3  A    between atoms: C_5  and  C_13
REMARK    4  A    between atoms: N_7  and  C_8
REMARK    5  A    between atoms: C_8  and  C_9
REMARK    6  A    between atoms: C_8  and  C_10
REMARK    7  A    between atoms: C_8  and  C_11
REMARK                            x       y       z     vdW  Elec       q    Type
REMARK                         _______ _______ _______ _____ _____    ______ ____
ROOT
ATOM      1  C   UNL     1       1.092   0.560   1.751  0.00  0.00    +0.077 C 
ATOM      2  N   UNL     1       2.362   0.718   1.880  0.00  0.00    -0.363 N 
ATOM      3  C   UNL     1       2.818  -0.124   2.997  0.00  0.00    +0.172 C 
ATOM      4  C   UNL     1       1.550  -0.798   3.485  0.00  0.00    +0.101 C 
ATOM      5  N   UNL     1       0.559  -0.308   2.662  0.00  0.00    -0.273 N 
ATOM      6  N   UNL     1       1.426  -1.641   4.456  0.00  0.00    -0.388 N 
ATOM      7  H   UNL     1       2.182  -1.830   5.034  0.00  0.00    +0.157 HD
ATOM      8  H   UNL     1       0.576  -2.084   4.608  0.00  0.00    +0.157 HD
ATOM      9  H   UNL     1       2.922   1.293   1.335  0.00  0.00    +0.162 HD
ENDROOT
BRANCH   3  10
ATOM     10  C   UNL     1       3.811  -1.149   2.515  0.00  0.00    -0.017 A 
ATOM     11  C   UNL     1       3.634  -1.760   1.288  0.00  0.00    +0.006 A 
ATOM     12  C   UNL     1       4.545  -2.700   0.845  0.00  0.00    +0.001 A 
ATOM     13  C   UNL     1       5.634  -3.031   1.630  0.00  0.00    +0.015 A 
ATOM     14  C   UNL     1       5.812  -2.421   2.858  0.00  0.00    +0.018 A 
ATOM     15  C   UNL     1       4.903  -1.475   3.298  0.00  0.00    +0.021 A 
ATOM     16 BR   UNL     1       7.301  -2.873   3.933  0.00  0.00    -0.050 Br
ENDBRANCH   3  10
BRANCH   5  17
ATOM     17  C   UNL     1      -0.859  -0.667   2.748  0.00  0.00    +0.033 C 
ATOM     18  C   UNL     1      -1.288  -1.361   1.454  0.00  0.00    +0.031 C 
ATOM     19  C   UNL     1      -1.073  -1.615   3.930  0.00  0.00    +0.031 C 
ATOM     20  C   UNL     1      -1.694   0.598   2.950  0.00  0.00    +0.031 C 
ENDBRANCH   5  17
BRANCH   1  22
ATOM     21  C   UNL     1      -0.027   2.695   1.168  0.00  0.00    +0.011 C 
ATOM     22  C   UNL     1       0.272   1.268   0.703  0.00  0.00    +0.066 C 
ENDBRANCH   1  22
TORSDOF 3
