REMARK  Name = ZINC09190420
REMARK  9 active torsions:
REMARK  status: ('A' for Active; 'I' for Inactive)
REMARK    1  A    between atoms: C_1  and  O_2
REMARK    2  A    between atoms: O_2  and  C_3
REMARK    3  A    between atoms: C_5  and  C_11
REMARK    4  A    between atoms: C_7  and  O_9
REMARK    5  A    between atoms: O_9  and  C_10
REMARK    6  A    between atoms: N_13  and  C_14
REMARK    7  A    between atoms: C_14  and  N_16
REMARK    8  A    between atoms: N_16  and  C_17
REMARK    9  A    between atoms: N_25  and  C_27
REMARK                            x       y       z     vdW  Elec       q    Type
REMARK                         _______ _______ _______ _____ _____    ______ ____
ROOT
ATOM      1  N   UNL     1       7.703   6.172  -0.047  0.00  0.00    -0.295 N 
ATOM      2  H   UNL     1       8.670   6.170   0.023  0.00  0.00    +0.154 HD
ENDROOT
BRANCH   1   3
ATOM      3  C   UNL     1       7.000   4.962  -0.055  0.00  0.00    +0.053 A 
ATOM      4  C   UNL     1       6.003   4.777  -0.969  0.00  0.00    +0.056 A 
ATOM      5  C   UNL     1       5.294   3.564  -0.982  0.00  0.00    +0.115 A 
ATOM      6  C   UNL     1       5.649   2.524  -0.005  0.00  0.00    +0.115 A 
ATOM      7  C   UNL     1       6.686   2.776   0.910  0.00  0.00    +0.053 A 
ATOM      8  C   UNL     1       7.337   3.968   0.874  0.00  0.00    +0.064 A 
ATOM      9 CL   UNL     1       8.616   4.268   2.008  0.00  0.00    -0.082 Cl
ATOM     10  N   UNL     1       4.822   1.523  -0.264  0.00  0.00    -0.147 NA
ATOM     11  N   UNL     1       4.058   1.857  -1.244  0.00  0.00    -0.149 N 
ATOM     12  N   UNL     1       4.307   3.038  -1.691  0.00  0.00    -0.147 NA
BRANCH  11  13
ATOM     13  C   UNL     1       3.064   1.022  -1.773  0.00  0.00    +0.086 A 
ATOM     14  C   UNL     1       2.281   1.458  -2.833  0.00  0.00    +0.029 A 
ATOM     15  C   UNL     1       1.303   0.632  -3.352  0.00  0.00    +0.002 A 
ATOM     16  C   UNL     1       1.104  -0.627  -2.817  0.00  0.00    +0.000 A 
ATOM     17  C   UNL     1       1.882  -1.063  -1.760  0.00  0.00    +0.002 A 
ATOM     18  C   UNL     1       2.861  -0.243  -1.237  0.00  0.00    +0.029 A 
ENDBRANCH  11  13
ENDBRANCH   1   3
BRANCH   1  19
ATOM     19  C   UNL     1       7.035   7.340  -0.136  0.00  0.00    +0.141 C 
ATOM     20  S   UNL     1       5.324   7.351  -0.118  0.00  0.00    -0.018 S 
BRANCH  19  23
ATOM     21  C   UNL     1       7.049   9.666  -0.328  0.00  0.00    +0.250 C 
ATOM     22  O   UNL     1       5.833   9.674  -0.315  0.00  0.00    -0.270 OA
ATOM     23  N   UNL     1       7.716   8.498  -0.239  0.00  0.00    -0.264 N 
ATOM     24  H   UNL     1       8.686   8.492  -0.249  0.00  0.00    +0.157 HD
BRANCH  21  27
ATOM     25  C   UNL     1       7.809  13.335  -0.639  0.00  0.00    +0.124 A 
ATOM     26  C   UNL     1       7.106  12.147  -0.533  0.00  0.00    +0.059 A 
ATOM     27  C   UNL     1       7.795  10.937  -0.441  0.00  0.00    +0.044 A 
ATOM     28  C   UNL     1       9.190  10.931  -0.450  0.00  0.00    +0.059 A 
ATOM     29  C   UNL     1       9.885  12.123  -0.562  0.00  0.00    +0.124 A 
ATOM     30  C   UNL     1       9.197  13.324  -0.653  0.00  0.00    +0.091 A 
BRANCH  25  32
ATOM     31  C   UNL     1       7.927  15.702  -0.836  0.00  0.00    +0.277 C 
ATOM     32  O   UNL     1       7.139  14.515  -0.729  0.00  0.00    -0.495 OA
ENDBRANCH  25  32
BRANCH  29  33
ATOM     33  O   UNL     1      11.244  12.118  -0.576  0.00  0.00    -0.495 OA
ATOM     34  C   UNL     1      11.897  13.384  -0.687  0.00  0.00    +0.277 C 
ENDBRANCH  29  33
ENDBRANCH  21  27
ENDBRANCH  19  23
ENDBRANCH   1  19
TORSDOF 7
