REMARK  Name = ZINC08236216
REMARK  6 active torsions:
REMARK  status: ('A' for Active; 'I' for Inactive)
REMARK    1  A    between atoms: C_1  and  C_2
REMARK    2  A    between atoms: C_2  and  C_3
REMARK    3  A    between atoms: C_2  and  C_4
REMARK    4  A    between atoms: C_7  and  C_10
REMARK    5  A    between atoms: C_25  and  C_27
REMARK    6  A    between atoms: C_25  and  C_28
REMARK                            x       y       z     vdW  Elec       q    Type
REMARK                         _______ _______ _______ _____ _____    ______ ____
ROOT
ATOM      1  C   UNL     1      -5.419  -2.005   0.043  0.00  0.00    +0.090 C 
ATOM      2  C   UNL     1      -6.142  -1.492  -1.167  0.00  0.00    +0.042 A 
ATOM      3  C   UNL     1      -6.610  -0.169  -1.203  0.00  0.00    +0.126 A 
ATOM      4  N   UNL     1      -7.246   0.273  -2.283  0.00  0.00    -0.208 NA
ATOM      5  C   UNL     1      -7.448  -0.518  -3.332  0.00  0.00    +0.180 A 
ATOM      6  S   UNL     1      -8.271   0.095  -4.703  0.00  0.00    -0.011 S 
ATOM      7  N   UNL     1      -7.015  -1.793  -3.337  0.00  0.00    -0.322 N 
ATOM      8  C   UNL     1      -6.357  -2.296  -2.248  0.00  0.00    +0.110 A 
ATOM      9  N   UNL     1      -5.920  -3.598  -2.237  0.00  0.00    -0.304 N 
ATOM     10  C   UNL     1      -5.628  -4.226  -1.057  0.00  0.00    +0.017 C 
ATOM     11  C   UNL     1      -5.388  -3.512   0.062  0.00  0.00    +0.024 C 
ATOM     12  C   UNL     1      -5.104  -4.152   1.281  0.00  0.00    +0.162 C 
ATOM     13  O   UNL     1      -4.887  -3.480   2.270  0.00  0.00    -0.292 OA
ATOM     14  C   UNL     1      -5.064  -5.652   1.385  0.00  0.00    +0.086 C 
ATOM     15  C   UNL     1      -6.002  -6.250   0.331  0.00  0.00    -0.023 C 
ATOM     16  C   UNL     1      -5.576  -5.735  -1.042  0.00  0.00    +0.058 C 
ATOM     17  C   UNL     1      -7.441  -5.820   0.620  0.00  0.00    +0.011 C 
ATOM     18  C   UNL     1      -5.901  -7.777   0.361  0.00  0.00    +0.011 C 
ATOM     19  N   UNL     1      -6.410   0.666  -0.126  0.00  0.00    -0.343 N 
ATOM     20  H   UNL     1      -5.817  -4.077  -3.074  0.00  0.00    +0.153 HD
ATOM     21  H   UNL     1      -6.734   1.580  -0.154  0.00  0.00    +0.144 HD
ATOM     22  H   UNL     1      -5.945   0.341   0.661  0.00  0.00    +0.144 HD
ATOM     23  H   UNL     1      -7.170  -2.355  -4.112  0.00  0.00    +0.169 HD
ENDROOT
BRANCH   1  27
ATOM     24  C   UNL     1      -1.412  -0.526   0.013  0.00  0.00    -0.045 A 
ATOM     25  C   UNL     1      -2.259  -0.204   1.056  0.00  0.00    +0.004 A 
ATOM     26  C   UNL     1      -3.556  -0.683   1.066  0.00  0.00    +0.005 A 
ATOM     27  C   UNL     1      -4.006  -1.482   0.032  0.00  0.00    -0.035 A 
ATOM     28  C   UNL     1      -3.159  -1.803  -1.012  0.00  0.00    +0.005 A 
ATOM     29  C   UNL     1      -1.863  -1.321  -1.024  0.00  0.00    +0.004 A 
BRANCH  24  31
ATOM     30  C   UNL     1      -0.019   1.526   0.010  0.00  0.00    +0.012 C 
ATOM     31  C   UNL     1       0.002  -0.004   0.002  0.00  0.00    +0.013 C 
ATOM     32  C   UNL     1       0.742  -0.511   1.242  0.00  0.00    +0.012 C 
ENDBRANCH  24  31
ENDBRANCH   1  27
TORSDOF 2
