REMARK  Name = ZINC10534689
REMARK  6 active torsions:
REMARK  status: ('A' for Active; 'I' for Inactive)
REMARK    1  A    between atoms: C_1  and  C_2
REMARK    2  A    between atoms: C_18  and  S_19
REMARK    3  A    between atoms: S_19  and  C_20
REMARK    4  A    between atoms: C_20  and  C_21
REMARK    5  A    between atoms: N_27  and  C_28
REMARK    6  A    between atoms: N_27  and  C_29
REMARK                            x       y       z     vdW  Elec       q    Type
REMARK                         _______ _______ _______ _____ _____    ______ ____
ROOT
ATOM      1  C   UNL     1       6.293   0.947  -6.561  0.00  0.00    +0.044 C 
ATOM      2  C   UNL     1       5.813   2.146  -5.785  0.00  0.00    -0.046 A 
ATOM      3  C   UNL     1       4.888   3.024  -6.334  0.00  0.00    +0.023 A 
ATOM      4  C   UNL     1       4.469   4.113  -5.596  0.00  0.00    +0.113 A 
ATOM      5  N   UNL     1       4.935   4.327  -4.381  0.00  0.00    -0.237 NA
ATOM      6  C   UNL     1       5.817   3.513  -3.823  0.00  0.00    +0.142 A 
ATOM      7  C   UNL     1       6.287   2.400  -4.510  0.00  0.00    +0.050 A 
ATOM      8  N   UNL     1       6.284   3.778  -2.533  0.00  0.00    -0.239 N 
ATOM      9  C   UNL     1       7.396   4.530  -2.363  0.00  0.00    +0.268 A 
ATOM     10  O   UNL     1       8.003   4.983  -3.316  0.00  0.00    -0.267 OA
ATOM     11  C   UNL     1       7.845   4.779  -0.987  0.00  0.00    +0.065 A 
ATOM     12  C   UNL     1       8.978   5.541  -0.708  0.00  0.00    +0.015 A 
ATOM     13  C   UNL     1       9.352   5.743   0.592  0.00  0.00    +0.001 A 
ATOM     14  C   UNL     1       8.614   5.197   1.635  0.00  0.00    +0.002 A 
ATOM     15  C   UNL     1       7.499   4.447   1.390  0.00  0.00    +0.028 A 
ATOM     16  C   UNL     1       7.092   4.222   0.072  0.00  0.00    +0.079 A 
ATOM     17  N   UNL     1       5.991   3.489  -0.215  0.00  0.00    -0.223 NA
ATOM     18  C   UNL     1       5.613   3.276  -1.452  0.00  0.00    +0.178 A 
ENDROOT
BRANCH  18  19
ATOM     19  S   UNL     1       4.171   2.304  -1.734  0.00  0.00    -0.079 S 
BRANCH  19  20
ATOM     20  C   UNL     1       3.711   1.920  -0.026  0.00  0.00    +0.153 C 
BRANCH  20  21
ATOM     21  C   UNL     1       2.466   1.070  -0.020  0.00  0.00    +0.146 A 
ATOM     22  N   UNL     1       1.277   1.645   0.022  0.00  0.00    -0.199 NA
ATOM     23  C   UNL     1       0.175   0.898   0.028  0.00  0.00    +0.217 A 
ATOM     24  N   UNL     1       0.272  -0.426  -0.009  0.00  0.00    -0.181 NA
ATOM     25  C   UNL     1       1.469  -1.000  -0.051  0.00  0.00    +0.222 A 
ATOM     26  N   UNL     1       2.567  -0.247  -0.056  0.00  0.00    -0.198 NA
ATOM     27  N   UNL     1       1.575  -2.376  -0.089  0.00  0.00    -0.306 N 
ATOM     28  C   UNL     1       0.367  -3.204  -0.082  0.00  0.00    +0.132 C 
ATOM     29  C   UNL     1       2.896  -3.007  -0.135  0.00  0.00    +0.132 C 
ATOM     30  N   UNL     1      -1.067   1.499   0.066  0.00  0.00    -0.327 N 
ATOM     31  H   UNL     1      -1.869   0.955   0.066  0.00  0.00    +0.145 HD
ATOM     32  H   UNL     1      -1.137   2.466   0.093  0.00  0.00    +0.145 HD
ENDBRANCH  20  21
ENDBRANCH  19  20
ENDBRANCH  18  19
TORSDOF 3
