REMARK  Name = ZINC16929686
REMARK  8 active torsions:
REMARK  status: ('A' for Active; 'I' for Inactive)
REMARK    1  A    between atoms: C_1  and  C_2
REMARK    2  A    between atoms: C_2  and  C_4
REMARK    3  A    between atoms: C_2  and  O_6
REMARK    4  A    between atoms: O_6  and  C_7
REMARK    5  A    between atoms: C_10  and  C_13
REMARK    6  A    between atoms: N_17  and  N_21
REMARK    7  A    between atoms: C_22  and  C_24
REMARK    8  A    between atoms: C_28  and  O_30
REMARK                            x       y       z     vdW  Elec       q    Type
REMARK                         _______ _______ _______ _____ _____    ______ ____
ROOT
ATOM      1  C   UNL     1       1.531   4.162   0.361  0.00  0.00    +0.028 C 
ATOM      2  C   UNL     1       0.823   5.319   0.420  0.00  0.00    +0.079 C 
ATOM      3  C   UNL     1       1.301   6.711   0.538  0.00  0.00    +0.275 C 
ATOM      4  O   UNL     1       2.487   6.976   0.601  0.00  0.00    -0.267 OA
ATOM      5  N   UNL     1       0.375   7.654   0.573  0.00  0.00    -0.169 N 
ATOM      6  C   UNL     1      -0.938   7.356   0.504  0.00  0.00    +0.138 C 
ATOM      7  S   UNL     1      -2.274   8.426   0.533  0.00  0.00    -0.026 S 
ATOM      8  S   UNL     1      -0.945   5.576   0.367  0.00  0.00    -0.059 S 
ENDROOT
BRANCH   1  12
ATOM      9  C   UNL     1      -0.484   0.433   0.467  0.00  0.00    +0.122 A 
ATOM     10  C   UNL     1      -1.187   1.608   0.709  0.00  0.00    +0.046 A 
ATOM     11  C   UNL     1      -0.537   2.821   0.682  0.00  0.00    +0.011 A 
ATOM     12  C   UNL     1       0.833   2.871   0.397  0.00  0.00    -0.024 A 
ATOM     13  C   UNL     1       1.536   1.685   0.148  0.00  0.00    +0.011 A 
ATOM     14  C   UNL     1       0.876   0.477   0.184  0.00  0.00    +0.046 A 
BRANCH   9  15
ATOM     15  O   UNL     1      -1.129  -0.761   0.501  0.00  0.00    -0.478 OA
BRANCH  15  17
ATOM     16  C   UNL     1       0.448  -2.402   1.313  0.00  0.00    +0.064 C 
ATOM     17  C   UNL     1      -0.378  -1.915   0.120  0.00  0.00    +0.282 C 
BRANCH  17  18
ATOM     18  C   UNL     1      -1.321  -3.007  -0.317  0.00  0.00    +0.395 C 
ATOM     19  O   UNL     1      -2.514  -2.815  -0.303  0.00  0.00    -0.242 OA
ATOM     20  O   UNL     1      -0.836  -4.191  -0.720  0.00  0.00    -0.242 OA
ENDBRANCH  17  18
ENDBRANCH  15  17
ENDBRANCH   9  15
ENDBRANCH   1  12
BRANCH   5  21
ATOM     21  N   UNL     1       0.768   8.995   0.685  0.00  0.00    -0.222 N 
ATOM     22  C   UNL     1       0.708   9.806  -0.390  0.00  0.00    +0.261 C 
ATOM     23  O   UNL     1       0.312   9.375  -1.455  0.00  0.00    -0.269 OA
ATOM     24  H   UNL     1       1.083   9.339   1.535  0.00  0.00    +0.174 HD
BRANCH  22  25
ATOM     25  C   UNL     1       1.122  11.221  -0.272  0.00  0.00    +0.042 A 
ATOM     26  C   UNL     1       1.576  11.718   0.950  0.00  0.00    +0.013 A 
ATOM     27  C   UNL     1       1.962  13.039   1.056  0.00  0.00    +0.004 A 
ATOM     28  C   UNL     1       1.901  13.872  -0.045  0.00  0.00    +0.045 A 
ATOM     29  C   UNL     1       1.451  13.386  -1.265  0.00  0.00    +0.118 A 
ATOM     30  C   UNL     1       1.066  12.061  -1.384  0.00  0.00    +0.058 A 
BRANCH  29  31
ATOM     31  O   UNL     1       1.394  14.209  -2.345  0.00  0.00    -0.507 OA
ATOM     32  H   UNL     1       2.204  14.223  -2.873  0.00  0.00    +0.292 HD
ENDBRANCH  29  31
ENDBRANCH  22  25
ENDBRANCH   5  21
TORSDOF 7
