REMARK  Name = ZINC39350889
REMARK  8 active torsions:
REMARK  status: ('A' for Active; 'I' for Inactive)
REMARK    1  A    between atoms: C_1  and  C_2
REMARK    2  A    between atoms: C_2  and  O_3
REMARK    3  A    between atoms: O_3  and  C_4
REMARK    4  A    between atoms: C_6  and  C_14
REMARK    5  A    between atoms: C_8  and  N_11
REMARK    6  A    between atoms: C_9  and  O_10
REMARK    7  A    between atoms: C_15  and  C_16
REMARK    8  A    between atoms: C_15  and  C_18
REMARK                            x       y       z     vdW  Elec       q    Type
REMARK                         _______ _______ _______ _____ _____    ______ ____
ROOT
ATOM      1  C   UNL     1      -0.198  -4.958  -0.500  0.00  0.00    +0.026 C 
ATOM      2  C   UNL     1       0.424  -6.118  -0.799  0.00  0.00    +0.072 C 
ENDROOT
BRANCH   2   3
ATOM      3  C   UNL     1      -0.101  -6.989  -1.911  0.00  0.00    +0.217 C 
ATOM      4  N   UNL     1      -0.450  -8.316  -1.388  0.00  0.00    -0.358 N 
ATOM      5  C   UNL     1       0.291  -9.186  -2.008  0.00  0.00    +0.081 A 
ATOM      6  C   UNL     1       0.399 -10.653  -1.921  0.00  0.00    +0.045 A 
ATOM      7  C   UNL     1       1.296 -11.267  -2.729  0.00  0.00    +0.038 A 
ATOM      8  C   UNL     1       2.094 -10.522  -3.620  0.00  0.00    +0.128 A 
ATOM      9  N   UNL     1       2.031  -9.228  -3.728  0.00  0.00    -0.235 NA
ATOM     10  C   UNL     1       1.175  -8.487  -2.978  0.00  0.00    +0.152 A 
ATOM     11  N   UNL     1       0.944  -7.203  -2.920  0.00  0.00    -0.344 N 
ATOM     12 BR   UNL     1       1.480 -13.148  -2.661  0.00  0.00    -0.049 Br
ATOM     13  H   UNL     1       1.382  -6.516  -3.446  0.00  0.00    +0.163 HD
ATOM     14  H   UNL     1      -1.112  -8.509  -0.706  0.00  0.00    +0.162 HD
ENDBRANCH   2   3
BRANCH   1  17
ATOM     15  C   UNL     1       0.617  -2.069   1.751  0.00  0.00    +0.165 A 
ATOM     16  C   UNL     1       0.230  -2.788   0.637  0.00  0.00    +0.057 A 
ATOM     17  C   UNL     1       0.213  -4.187   0.682  0.00  0.00    -0.018 A 
ATOM     18  C   UNL     1       0.588  -4.849   1.856  0.00  0.00    +0.044 A 
ATOM     19  C   UNL     1       0.973  -4.124   2.963  0.00  0.00    +0.172 A 
ATOM     20  C   UNL     1       0.994  -2.736   2.915  0.00  0.00    +0.189 A 
BRANCH  19  21
ATOM     21  N   UNL     1       1.369  -4.826   4.205  0.00  0.00    +0.060 N 
ATOM     22  O   UNL     1       1.355  -6.034   4.247  0.00  0.00    -0.126 OA
ATOM     23  O   UNL     1       1.706  -4.191   5.176  0.00  0.00    -0.126 OA
ENDBRANCH  19  21
BRANCH  20  24
ATOM     24  O   UNL     1       1.380  -2.027   4.008  0.00  0.00    -0.502 OA
ATOM     25  H   UNL     1       0.654  -1.802   4.607  0.00  0.00    +0.292 HD
ENDBRANCH  20  24
BRANCH  15  26
ATOM     26  O   UNL     1       0.634  -0.710   1.710  0.00  0.00    -0.488 OA
BRANCH  26  28
ATOM     27  C   UNL     1       0.319   1.429   0.629  0.00  0.00    +0.048 C 
ATOM     28  C   UNL     1       0.235  -0.092   0.485  0.00  0.00    +0.226 C 
ENDBRANCH  26  28
ENDBRANCH  15  26
ENDBRANCH   1  17
BRANCH   2  29
ATOM     29  C   UNL     1       1.583  -6.520  -0.060  0.00  0.00    +0.099 C 
ATOM     30  N   UNL     1       2.502  -6.839   0.526  0.00  0.00    -0.191 NA
ENDBRANCH   2  29
TORSDOF 7
