REMARK  Name = ZINC01276454
REMARK  4 active torsions:
REMARK  status: ('A' for Active; 'I' for Inactive)
REMARK    1  A    between atoms: C_1  and  C_2
REMARK    2  A    between atoms: C_2  and  C_3
REMARK    3  A    between atoms: C_3  and  C_4
REMARK    4  A    between atoms: C_10  and  C_18
REMARK                            x       y       z     vdW  Elec       q    Type
REMARK                         _______ _______ _______ _____ _____    ______ ____
ROOT
ATOM      1  C   UNL     1      -1.413  -2.041   0.005  0.00  0.00    +0.219 C 
ATOM      2  O   UNL     1      -0.354  -2.632  -0.009  0.00  0.00    -0.275 OA
ATOM      3  N   UNL     1      -2.571  -2.730   0.012  0.00  0.00    -0.255 N 
ATOM      4  C   UNL     1      -2.552  -4.120   0.004  0.00  0.00    +0.229 C 
ATOM      5  N   UNL     1      -3.603  -4.894   0.005  0.00  0.00    -0.143 NA
ATOM      6  N   UNL     1      -3.166  -6.215  -0.002  0.00  0.00    -0.184 N 
ATOM      7  C   UNL     1      -3.943  -7.457   0.017  0.00  0.00    +0.140 C 
ATOM      8  C   UNL     1      -3.137  -8.533  -0.719  0.00  0.00    +0.127 C 
ATOM      9  C   UNL     1      -1.683  -8.464  -0.344  0.00  0.00    +0.241 C 
ATOM     10  O   UNL     1      -1.035  -9.493  -0.304  0.00  0.00    -0.274 OA
ATOM     11  N   UNL     1      -1.083  -7.316  -0.054  0.00  0.00    -0.148 NA
ATOM     12  C   UNL     1      -1.811  -6.200  -0.020  0.00  0.00    +0.222 C 
ATOM     13  N   UNL     1      -1.421  -4.906  -0.011  0.00  0.00    -0.149 NA
ATOM     14  H   UNL     1      -3.417  -2.257   0.023  0.00  0.00    +0.158 HD
ENDROOT
BRANCH   7  15
ATOM     15  C   UNL     1      -5.262  -7.243  -0.679  0.00  0.00    -0.025 A 
ATOM     16  C   UNL     1      -5.319  -6.486  -1.834  0.00  0.00    +0.007 A 
ATOM     17  C   UNL     1      -6.529  -6.289  -2.472  0.00  0.00    +0.020 A 
ATOM     18  C   UNL     1      -7.683  -6.849  -1.955  0.00  0.00    +0.041 A 
ATOM     19  C   UNL     1      -7.626  -7.607  -0.799  0.00  0.00    +0.020 A 
ATOM     20  C   UNL     1      -6.414  -7.808  -0.165  0.00  0.00    +0.007 A 
ATOM     21 CL   UNL     1      -9.203  -6.602  -2.756  0.00  0.00    -0.084 Cl
ENDBRANCH   7  15
BRANCH   1  22
ATOM     22  C   UNL     1      -1.433  -0.534   0.013  0.00  0.00    +0.096 C 
BRANCH  22  24
ATOM     23  C   UNL     1      -0.019   1.526   0.010  0.00  0.00    +0.004 C 
ATOM     24  C   UNL     1       0.002  -0.004   0.002  0.00  0.00    +0.006 C 
ENDBRANCH  22  24
ENDBRANCH   1  22
TORSDOF 3
