REMARK  Name = ZINC47055101
REMARK  4 active torsions:
REMARK  status: ('A' for Active; 'I' for Inactive)
REMARK    1  A    between atoms: C_1  and  C_2
REMARK    2  A    between atoms: N_10  and  N_14
REMARK    3  A    between atoms: C_15  and  C_17
REMARK    4  A    between atoms: C_17  and  C_18
REMARK                            x       y       z     vdW  Elec       q    Type
REMARK                         _______ _______ _______ _____ _____    ______ ____
ROOT
ATOM      1  C   UNL     1      -0.019   1.526   0.010  0.00  0.00    +0.007 C 
ATOM      2  C   UNL     1       0.002  -0.004   0.002  0.00  0.00    -0.014 C 
ATOM      3  C   UNL     1       0.718  -0.497  -1.257  0.00  0.00    +0.006 C 
ATOM      4  C   UNL     1       0.727  -2.028  -1.271  0.00  0.00    +0.035 C 
ATOM      5  C   UNL     1       1.439  -2.546  -0.026  0.00  0.00    +0.114 C 
ATOM      6  C   UNL     1       0.751  -2.042   1.238  0.00  0.00    +0.035 C 
ATOM      7  C   UNL     1       0.742  -0.511   1.242  0.00  0.00    +0.006 C 
ATOM      8  C   UNL     1       2.892  -2.132  -0.038  0.00  0.00    +0.263 C 
ATOM      9  O   UNL     1       3.334  -1.003  -0.036  0.00  0.00    -0.271 OA
ATOM     10  N   UNL     1       3.595  -3.284  -0.051  0.00  0.00    -0.137 N 
ATOM     11  C   UNL     1       2.789  -4.353  -0.049  0.00  0.00    +0.326 C 
ATOM     12  O   UNL     1       3.189  -5.500  -0.059  0.00  0.00    -0.251 OA
ATOM     13  N   UNL     1       1.486  -4.014  -0.034  0.00  0.00    -0.284 N 
ATOM     14  H   UNL     1       0.728  -4.620  -0.030  0.00  0.00    +0.151 HD
ENDROOT
BRANCH  10  15
ATOM     15  N   UNL     1       4.994  -3.352  -0.066  0.00  0.00    -0.224 N 
ATOM     16  C   UNL     1       5.664  -3.692   1.053  0.00  0.00    +0.232 C 
ATOM     17  O   UNL     1       5.056  -3.939   2.073  0.00  0.00    -0.274 OA
ATOM     18  H   UNL     1       5.481  -3.155  -0.881  0.00  0.00    +0.174 HD
BRANCH  16  19
ATOM     19  C   UNL     1       7.169  -3.766   1.038  0.00  0.00    +0.128 C 
BRANCH  19  20
ATOM     20  C   UNL     1       7.675  -4.171   2.424  0.00  0.00    +0.127 C 
ATOM     21  C   UNL     1       9.218  -4.132   2.451  0.00  0.00    +0.034 C 
ATOM     22  C   UNL     1       9.564  -5.381   3.305  0.00  0.00    +0.031 C 
ATOM     23  C   UNL     1       8.428  -6.348   2.887  0.00  0.00    +0.160 C 
ATOM     24  O   UNL     1       7.269  -5.513   2.716  0.00  0.00    -0.376 OA
ENDBRANCH  19  20
ENDBRANCH  16  19
ENDBRANCH  10  15
TORSDOF 3
