REMARK  Name = ZINC07424113
REMARK  5 active torsions:
REMARK  status: ('A' for Active; 'I' for Inactive)
REMARK    1  A    between atoms: C_1  and  C_2
REMARK    2  A    between atoms: C_6  and  C_19
REMARK    3  A    between atoms: N_11  and  C_13
REMARK    4  A    between atoms: N_21  and  C_22
REMARK    5  A    between atoms: C_27  and  C_28
REMARK                            x       y       z     vdW  Elec       q    Type
REMARK                         _______ _______ _______ _____ _____    ______ ____
ROOT
ATOM      1  C   UNL     1      -4.751   2.425  -0.871  0.00  0.00    +0.068 C 
ATOM      2  C   UNL     1      -3.343   2.496  -0.338  0.00  0.00    +0.073 A 
ATOM      3  C   UNL     1      -2.813   3.527   0.465  0.00  0.00    +0.087 A 
ATOM      4  C   UNL     1      -3.366   4.768   1.018  0.00  0.00    +0.205 A 
ATOM      5  O   UNL     1      -4.523   5.095   0.812  0.00  0.00    -0.286 OA
ATOM      6  C   UNL     1      -2.466   5.603   1.832  0.00  0.00    +0.100 A 
ATOM      7  C   UNL     1      -1.169   5.178   2.028  0.00  0.00    +0.101 A 
ATOM      8  N   UNL     1      -0.710   4.034   1.501  0.00  0.00    -0.345 N 
ATOM      9  H   UNL     1       0.241   3.776   1.673  0.00  0.00    +0.167 HD
ATOM     10  C   UNL     1      -1.485   3.203   0.740  0.00  0.00    +0.146 A 
ATOM     11  N   UNL     1      -1.235   2.023   0.112  0.00  0.00    -0.216 N 
ATOM     12  N   UNL     1      -2.404   1.614  -0.541  0.00  0.00    -0.169 NA
ENDROOT
BRANCH  11  13
ATOM     13  C   UNL     1      -0.016   1.332   0.120  0.00  0.00    +0.068 A 
ATOM     14  C   UNL     1       1.182   2.034   0.114  0.00  0.00    +0.028 A 
ATOM     15  C   UNL     1       2.382   1.349   0.118  0.00  0.00    +0.002 A 
ATOM     16  C   UNL     1       2.391  -0.033   0.127  0.00  0.00    +0.000 A 
ATOM     17  C   UNL     1       1.199  -0.735   0.133  0.00  0.00    +0.002 A 
ATOM     18  C   UNL     1      -0.004  -0.057   0.130  0.00  0.00    +0.028 A 
ENDBRANCH  11  13
BRANCH   6  19
ATOM     19  C   UNL     1      -2.941   6.864   2.422  0.00  0.00    +0.253 C 
ATOM     20  O   UNL     1      -4.088   7.226   2.241  0.00  0.00    -0.270 OA
ATOM     21  N   UNL     1      -2.105   7.616   3.165  0.00  0.00    -0.281 N 
ATOM     22  H   UNL     1      -1.211   7.296   3.364  0.00  0.00    +0.155 HD
BRANCH  21  23
ATOM     23  C   UNL     1      -2.525   8.853   3.647  0.00  0.00    +0.046 A 
ATOM     24  C   UNL     1      -3.845   9.039   4.037  0.00  0.00    +0.024 A 
ATOM     25  C   UNL     1      -4.258  10.264   4.518  0.00  0.00    +0.002 A 
ATOM     26  C   UNL     1      -3.365  11.320   4.608  0.00  0.00    +0.001 A 
ATOM     27  C   UNL     1      -2.052  11.156   4.221  0.00  0.00    +0.015 A 
ATOM     28  C   UNL     1      -1.618   9.919   3.736  0.00  0.00    +0.058 A 
BRANCH  28  29
ATOM     29  C   UNL     1      -0.215   9.737   3.320  0.00  0.00    +0.243 C 
ATOM     30  O   UNL     1       0.136   8.692   2.806  0.00  0.00    -0.270 OA
ATOM     31  N   UNL     1       0.678  10.729   3.509  0.00  0.00    -0.325 N 
ATOM     32  H   UNL     1       0.399  11.562   3.919  0.00  0.00    +0.145 HD
ATOM     33  H   UNL     1       1.601  10.608   3.236  0.00  0.00    +0.145 HD
ENDBRANCH  28  29
ENDBRANCH  21  23
ENDBRANCH   6  19
TORSDOF 4
