REMARK  Name = ZINC34685737
REMARK  8 active torsions:
REMARK  status: ('A' for Active; 'I' for Inactive)
REMARK    1  A    between atoms: C_1  and  C_2
REMARK    2  A    between atoms: C_10  and  O_21
REMARK    3  A    between atoms: C_13  and  C_15
REMARK    4  A    between atoms: O_21  and  C_22
REMARK    5  A    between atoms: C_22  and  C_23
REMARK    6  A    between atoms: C_26  and  C_28
REMARK    7  A    between atoms: N_33  and  C_36
REMARK    8  A    between atoms: C_36  and  C_37
REMARK                            x       y       z     vdW  Elec       q    Type
REMARK                         _______ _______ _______ _____ _____    ______ ____
ROOT
ATOM      1  C   UNL     1       0.147   0.891  -0.476  0.00  0.00    +0.109 C 
ATOM      2  C   UNL     1       0.018  -0.609  -0.546  0.00  0.00    +0.213 C 
ATOM      3  O   UNL     1       1.012  -1.300  -0.626  0.00  0.00    -0.276 OA
ATOM      4  N   UNL     1      -1.201  -1.183  -0.521  0.00  0.00    -0.290 N 
ATOM      5  C   UNL     1      -2.427  -0.372  -0.431  0.00  0.00    +0.113 C 
ATOM      6  C   UNL     1      -3.222  -0.580  -1.719  0.00  0.00    +0.054 C 
ATOM      7  C   UNL     1      -3.327  -2.044  -2.054  0.00  0.00    -0.040 A 
ATOM      8  C   UNL     1      -4.344  -2.435  -2.918  0.00  0.00    +0.007 A 
ATOM      9  C   UNL     1      -4.493  -3.758  -3.275  0.00  0.00    +0.046 A 
ATOM     10  C   UNL     1      -3.619  -4.710  -2.770  0.00  0.00    +0.121 A 
ATOM     11  C   UNL     1      -2.608  -4.322  -1.908  0.00  0.00    +0.051 A 
ATOM     12  C   UNL     1      -2.465  -2.990  -1.546  0.00  0.00    -0.016 A 
ATOM     13  C   UNL     1      -1.360  -2.639  -0.588  0.00  0.00    +0.137 C 
ENDROOT
BRANCH  13  14
ATOM     14  C   UNL     1      -1.702  -3.169   0.781  0.00  0.00    -0.023 A 
ATOM     15  C   UNL     1      -0.839  -4.039   1.421  0.00  0.00    +0.006 A 
ATOM     16  C   UNL     1      -1.152  -4.525   2.676  0.00  0.00    +0.000 A 
ATOM     17  C   UNL     1      -2.329  -4.142   3.292  0.00  0.00    +0.000 A 
ATOM     18  C   UNL     1      -3.192  -3.272   2.652  0.00  0.00    +0.000 A 
ATOM     19  C   UNL     1      -2.876  -2.782   1.399  0.00  0.00    +0.006 A 
ENDBRANCH  13  14
BRANCH  10  20
ATOM     20  O   UNL     1      -3.755  -6.016  -3.120  0.00  0.00    -0.484 OA
BRANCH  20  21
ATOM     21  C   UNL     1      -4.822  -6.341  -4.013  0.00  0.00    +0.303 C 
BRANCH  21  22
ATOM     22  C   UNL     1      -4.817  -7.823  -4.285  0.00  0.00    +0.143 A 
ATOM     23  C   UNL     1      -5.487  -8.756  -3.574  0.00  0.00    +0.049 A 
ATOM     24  C   UNL     1      -5.210 -10.001  -4.160  0.00  0.00    +0.055 A 
ATOM     25  C   UNL     1      -4.374  -9.761  -5.213  0.00  0.00    +0.190 A 
ATOM     26  O   UNL     1      -4.151  -8.432  -5.275  0.00  0.00    -0.452 OA
BRANCH  25  27
ATOM     27  C   UNL     1      -3.819 -10.771  -6.120  0.00  0.00    +0.282 C 
ATOM     28  O   UNL     1      -4.193 -11.927  -6.046  0.00  0.00    -0.267 OA
ATOM     29  N   UNL     1      -2.895 -10.420  -7.036  0.00  0.00    -0.299 N 
ATOM     30  C   UNL     1      -2.329  -9.062  -7.057  0.00  0.00    +0.089 C 
ATOM     31  C   UNL     1      -0.801  -9.173  -7.094  0.00  0.00    -0.059 C 
ATOM     32  N   UNL     1      -0.400 -10.014  -8.229  0.00  0.00    +0.384 N 
ATOM     33  C   UNL     1      -0.891 -11.384  -8.034  0.00  0.00    -0.059 C 
ATOM     34  C   UNL     1      -2.420 -11.384  -8.040  0.00  0.00    +0.089 C 
ATOM     35  H   UNL     1      -0.789  -9.637  -9.080  0.00  0.00    -0.081 HD
BRANCH  32  36
ATOM     36  C   UNL     1       1.065 -10.031  -8.330  0.00  0.00    -0.052 C 
BRANCH  36  37
ATOM     37  C   UNL     1       1.475 -10.792  -9.565  0.00  0.00    -0.053 C 
ATOM     38  C   UNL     1       2.254 -10.227 -10.454  0.00  0.00    +0.002 C 
ENDBRANCH  36  37
ENDBRANCH  32  36
ENDBRANCH  25  27
ENDBRANCH  21  22
ENDBRANCH  20  21
ENDBRANCH  10  20
TORSDOF 7
