REMARK  Name = ZINC39939064
REMARK  8 active torsions:
REMARK  status: ('A' for Active; 'I' for Inactive)
REMARK    1  A    between atoms: C_1  and  N_2
REMARK    2  A    between atoms: C_8  and  O_9
REMARK    3  A    between atoms: O_9  and  C_10
REMARK    4  A    between atoms: C_13  and  C_16
REMARK    5  A    between atoms: C_17  and  C_18
REMARK    6  A    between atoms: C_17  and  C_20
REMARK    7  A    between atoms: N_29  and  C_36
REMARK    8  A    between atoms: N_32  and  C_35
REMARK                            x       y       z     vdW  Elec       q    Type
REMARK                         _______ _______ _______ _____ _____    ______ ____
ROOT
ATOM      1  C   UNL     1       3.207  -1.645   0.875  0.00  0.00    +0.132 A 
ATOM      2  C   UNL     1       3.283  -3.033   0.892  0.00  0.00    +0.047 A 
ATOM      3  C   UNL     1       4.483  -3.661   0.643  0.00  0.00    +0.011 A 
ATOM      4  C   UNL     1       5.626  -2.901   0.371  0.00  0.00    -0.024 A 
ATOM      5  C   UNL     1       5.543  -1.504   0.355  0.00  0.00    +0.011 A 
ATOM      6  C   UNL     1       4.337  -0.885   0.601  0.00  0.00    +0.047 A 
ENDROOT
BRANCH   4   7
ATOM      7  C   UNL     1       6.909  -3.567   0.105  0.00  0.00    +0.026 C 
ATOM      8  C   UNL     1       6.946  -4.683  -0.653  0.00  0.00    +0.072 C 
BRANCH   8   9
ATOM      9  C   UNL     1       5.706  -5.146  -1.373  0.00  0.00    +0.216 C 
ATOM     10  N   UNL     1       6.017  -5.435  -2.778  0.00  0.00    -0.359 N 
ATOM     11  C   UNL     1       5.752  -6.693  -2.986  0.00  0.00    +0.060 A 
ATOM     12  C   UNL     1       5.858  -7.553  -4.172  0.00  0.00    +0.027 A 
ATOM     13  C   UNL     1       5.502  -8.851  -4.086  0.00  0.00    +0.002 A 
ATOM     14  C   UNL     1       5.028  -9.430  -2.896  0.00  0.00    +0.002 A 
ATOM     15  C   UNL     1       4.892  -8.730  -1.751  0.00  0.00    +0.027 A 
ATOM     16  C   UNL     1       5.250  -7.305  -1.726  0.00  0.00    +0.060 A 
ATOM     17  N   UNL     1       5.223  -6.403  -0.788  0.00  0.00    -0.359 N 
ATOM     18  H   UNL     1       6.358  -4.805  -3.432  0.00  0.00    +0.162 HD
ATOM     19  H   UNL     1       4.938  -6.537   0.129  0.00  0.00    +0.162 HD
ENDBRANCH   8   9
BRANCH   8  20
ATOM     20  C   UNL     1       8.164  -5.426  -0.773  0.00  0.00    +0.099 C 
ATOM     21  N   UNL     1       9.130  -6.017  -0.869  0.00  0.00    -0.191 NA
ENDBRANCH   8  20
ENDBRANCH   4   7
BRANCH   1  22
ATOM     22  O   UNL     1       2.021  -1.030   1.121  0.00  0.00    -0.427 OA
BRANCH  22  28
ATOM     23  C   UNL     1      -0.422   0.451   1.872  0.00  0.00    +0.134 C 
ATOM     24  N   UNL     1       0.470  -0.282   2.773  0.00  0.00    -0.273 N 
ATOM     25  C   UNL     1       0.302  -0.416   4.228  0.00  0.00    +0.206 C 
ATOM     26  C   UNL     1       1.518  -1.286   4.643  0.00  0.00    +0.229 C 
ATOM     27  N   UNL     1       2.221  -1.529   3.377  0.00  0.00    -0.211 NA
ATOM     28  C   UNL     1       1.596  -0.962   2.402  0.00  0.00    +0.288 C 
ATOM     29  N   UNL     1       1.202  -2.600   5.226  0.00  0.00    -0.264 N 
ATOM     30  C   UNL     1      -0.074  -2.987   5.365  0.00  0.00    +0.312 C 
ATOM     31  O   UNL     1      -0.279  -4.082   5.853  0.00  0.00    -0.252 OA
ATOM     32  N   UNL     1      -1.135  -2.261   5.010  0.00  0.00    -0.227 N 
ATOM     33  C   UNL     1      -1.068  -1.025   4.449  0.00  0.00    +0.247 C 
ATOM     34  O   UNL     1      -2.069  -0.410   4.151  0.00  0.00    -0.273 OA
ATOM     35  C   UNL     1      -2.465  -2.837   5.227  0.00  0.00    +0.143 C 
ATOM     36  C   UNL     1       2.285  -3.488   5.654  0.00  0.00    +0.136 C 
ENDBRANCH  22  28
ENDBRANCH   1  22
TORSDOF 5
