REMARK  Name = ZINC26357747
REMARK  13 active torsions:
REMARK  status: ('A' for Active; 'I' for Inactive)
REMARK    1  A    between atoms: C_1  and  C_2
REMARK    2  A    between atoms: C_2  and  C_3
REMARK    3  A    between atoms: C_3  and  C_4
REMARK    4  A    between atoms: C_3  and  C_5
REMARK    5  A    between atoms: C_3  and  N_6
REMARK    6  A    between atoms: C_7  and  C_9
REMARK    7  A    between atoms: C_9  and  C_11
REMARK    8  A    between atoms: C_9  and  N_12
REMARK    9  A    between atoms: N_12  and  C_13
REMARK   10  A    between atoms: N_12  and  C_14
REMARK   11  A    between atoms: C_14  and  C_15
REMARK   12  A    between atoms: N_17  and  C_18
REMARK   13  A    between atoms: C_23  and  C_24
REMARK                            x       y       z     vdW  Elec       q    Type
REMARK                         _______ _______ _______ _____ _____    ______ ____
ROOT
ATOM      1  N   UNL     1       1.393  -0.475  -0.001  0.00  0.00    +0.391 N 
ATOM      2  C   UNL     1       2.058  -0.117  -1.261  0.00  0.00    -0.094 C 
ATOM      3  H   UNL     1       1.929   0.027   0.818  0.00  0.00    -0.080 HD
ENDROOT
BRANCH   1   4
ATOM      4  C   UNL     1       1.461  -1.923   0.236  0.00  0.00    +0.016 C 
ATOM      5  C   UNL     1       0.904  -2.666  -0.980  0.00  0.00    -0.004 C 
BRANCH   4   7
ATOM      6  N   UNL     1       3.201  -3.620   0.698  0.00  0.00    -0.312 N 
ATOM      7  C   UNL     1       2.895  -2.329   0.459  0.00  0.00    +0.200 C 
ATOM      8  O   UNL     1       3.774  -1.494   0.423  0.00  0.00    -0.278 OA
ATOM      9  H   UNL     1       2.404  -4.377   0.730  0.00  0.00    +0.149 HD
BRANCH   6  10
ATOM     10  C   UNL     1       4.595  -4.014   0.914  0.00  0.00    +0.029 C 
ATOM     11  C   UNL     1       5.423  -3.661  -0.323  0.00  0.00    +0.031 C 
ATOM     12  C   UNL     1       5.152  -3.271   2.130  0.00  0.00    +0.031 C 
BRANCH  10  14
ATOM     13  C   UNL     1       6.122  -5.934   1.388  0.00  0.00    +0.006 C 
ATOM     14  C   UNL     1       4.666  -5.522   1.162  0.00  0.00    +0.022 C 
ENDBRANCH  10  14
ENDBRANCH   6  10
ENDBRANCH   4   7
ENDBRANCH   1   4
BRANCH   1  15
ATOM     15  C   UNL     1       0.002  -0.004   0.013  0.00  0.00    +0.020 C 
BRANCH  15  16
ATOM     16  C   UNL     1      -0.018   1.502   0.013  0.00  0.00    +0.201 C 
ATOM     17  O   UNL     1       1.024   2.123   0.003  0.00  0.00    -0.278 OA
ATOM     18  N   UNL     1      -1.195   2.161   0.019  0.00  0.00    -0.287 N 
ATOM     19  H   UNL     1      -2.138   1.602  -0.064  0.00  0.00    +0.155 HD
BRANCH  18  20
ATOM     20  C   UNL     1      -1.215   3.556   0.133  0.00  0.00    +0.036 A 
ATOM     21  C   UNL     1      -0.156   4.220   0.738  0.00  0.00    +0.024 A 
ATOM     22  C   UNL     1      -0.179   5.596   0.848  0.00  0.00    +0.017 A 
ATOM     23  C   UNL     1      -1.256   6.314   0.356  0.00  0.00    +0.018 A 
ATOM     24  C   UNL     1      -2.312   5.654  -0.246  0.00  0.00    +0.020 A 
ATOM     25  C   UNL     1      -2.292   4.278  -0.364  0.00  0.00    -0.028 A 
ATOM     26  C   UNL     1      -3.440   3.561  -1.026  0.00  0.00    +0.046 C 
ATOM     27 BR   UNL     1      -1.284   8.198   0.508  0.00  0.00    -0.050 Br
ENDBRANCH  18  20
ENDBRANCH  15  16
ENDBRANCH   1  15
TORSDOF 7
