REMARK  Name = ZINC09172365
REMARK  11 active torsions:
REMARK  status: ('A' for Active; 'I' for Inactive)
REMARK    1  A    between atoms: C_1  and  C_2
REMARK    2  A    between atoms: C_2  and  N_3
REMARK    3  A    between atoms: C_6  and  C_19
REMARK    4  A    between atoms: C_7  and  N_18
REMARK    5  A    between atoms: N_8  and  C_11
REMARK    6  A    between atoms: C_11  and  C_12
REMARK    7  A    between atoms: C_19  and  C_21
REMARK    8  A    between atoms: C_21  and  S_22
REMARK    9  A    between atoms: S_22  and  C_23
REMARK   10  A    between atoms: C_26  and  C_34
REMARK   11  A    between atoms: N_27  and  C_28
REMARK                            x       y       z     vdW  Elec       q    Type
REMARK                         _______ _______ _______ _____ _____    ______ ____
ROOT
ATOM      1  N   UNL     1      -3.308   6.849  -0.035  0.00  0.00    -0.260 N 
ATOM      2  C   UNL     1      -2.258   6.003  -0.047  0.00  0.00    +0.269 A 
ATOM      3  O   UNL     1      -2.429   4.801  -0.139  0.00  0.00    -0.267 OA
ATOM      4  C   UNL     1      -0.904   6.561   0.059  0.00  0.00    +0.121 A 
ATOM      5  C   UNL     1      -0.775   7.958   0.156  0.00  0.00    +0.116 A 
ATOM      6  N   UNL     1      -1.903   8.727   0.154  0.00  0.00    -0.277 N 
ATOM      7  C   UNL     1      -3.123   8.176   0.060  0.00  0.00    +0.334 A 
ATOM      8  O   UNL     1      -4.096   8.904   0.063  0.00  0.00    -0.246 OA
ENDROOT
BRANCH   5   9
ATOM      9  N   UNL     1       0.454   8.534   0.251  0.00  0.00    -0.344 N 
ATOM     10  H   UNL     1       1.253   7.989   0.170  0.00  0.00    +0.144 HD
ATOM     11  H   UNL     1       0.532   9.489   0.400  0.00  0.00    +0.144 HD
ENDBRANCH   5   9
BRANCH   1  13
ATOM     12  C   UNL     1      -5.075   6.222  -1.606  0.00  0.00    +0.027 C 
ATOM     13  C   UNL     1      -4.669   6.314  -0.133  0.00  0.00    +0.126 C 
ENDBRANCH   1  13
BRANCH   4  14
ATOM     14  C   UNL     1       0.232   5.724   0.058  0.00  0.00    +0.182 C 
ATOM     15  O   UNL     1       1.345   6.209   0.033  0.00  0.00    -0.291 OA
BRANCH  14  16
ATOM     16  C   UNL     1       0.063   4.226   0.087  0.00  0.00    +0.157 C 
BRANCH  16  17
ATOM     17  S   UNL     1       1.692   3.436   0.078  0.00  0.00    -0.078 S 
BRANCH  17  18
ATOM     18  C   UNL     1       1.209   1.741   0.116  0.00  0.00    +0.192 A 
ATOM     19  N   UNL     1      -0.019   1.280   0.141  0.00  0.00    -0.122 NA
ATOM     20  N   UNL     1      -0.003  -0.005   0.164  0.00  0.00    -0.134 NA
ATOM     21  C   UNL     1       1.226  -0.437   0.154  0.00  0.00    +0.131 A 
ATOM     22  N   UNL     1       2.043   0.660   0.123  0.00  0.00    -0.303 N 
ATOM     23  C   UNL     1       1.667  -1.878   0.173  0.00  0.00    +0.088 C 
BRANCH  22  24
ATOM     24  C   UNL     1       3.508   0.672   0.102  0.00  0.00    +0.091 C 
ATOM     25  C   UNL     1       4.029   1.420   1.331  0.00  0.00    +0.025 C 
ATOM     26  C   UNL     1       5.559   1.432   1.309  0.00  0.00    +0.002 C 
ATOM     27  C   UNL     1       6.045   2.135   0.040  0.00  0.00    +0.000 C 
ATOM     28  C   UNL     1       5.524   1.387  -1.188  0.00  0.00    +0.002 C 
ATOM     29  C   UNL     1       3.994   1.375  -1.167  0.00  0.00    +0.025 C 
ENDBRANCH  22  24
ENDBRANCH  17  18
ENDBRANCH  16  17
ENDBRANCH  14  16
ENDBRANCH   4  14
BRANCH   6  30
ATOM     30  C   UNL     1      -1.779  10.184   0.255  0.00  0.00    +0.163 C 
BRANCH  30  31
ATOM     31  C   UNL     1      -1.670  10.776  -1.127  0.00  0.00    -0.028 A 
ATOM     32  C   UNL     1      -0.428  10.948  -1.709  0.00  0.00    +0.005 A 
ATOM     33  C   UNL     1      -0.328  11.486  -2.978  0.00  0.00    +0.000 A 
ATOM     34  C   UNL     1      -1.470  11.863  -3.661  0.00  0.00    +0.000 A 
ATOM     35  C   UNL     1      -2.711  11.695  -3.076  0.00  0.00    +0.000 A 
ATOM     36  C   UNL     1      -2.812  11.152  -1.810  0.00  0.00    +0.005 A 
ENDBRANCH  30  31
ENDBRANCH   6  30
TORSDOF 9
