REMARK  Name = ZINC48430554
REMARK  4 active torsions:
REMARK  status: ('A' for Active; 'I' for Inactive)
REMARK    1  A    between atoms: C_6  and  C_7
REMARK    2  A    between atoms: N_9  and  C_10
REMARK    3  A    between atoms: C_10  and  C_11
REMARK    4  A    between atoms: C_10  and  C_14
REMARK                            x       y       z     vdW  Elec       q    Type
REMARK                         _______ _______ _______ _____ _____    ______ ____
ROOT
ATOM      1  C   UNL     1      -1.619  -1.567  -1.017  0.00  0.00    +0.245 C 
ATOM      2  O   UNL     1      -1.856  -2.723  -0.726  0.00  0.00    -0.270 OA
ATOM      3  N   UNL     1      -2.478  -0.592  -0.660  0.00  0.00    -0.293 N 
ATOM      4  H   UNL     1      -2.289   0.330  -0.892  0.00  0.00    +0.150 HD
ENDROOT
BRANCH   1  10
ATOM      5  C   UNL     1      -0.110   0.095  -2.102  0.00  0.00    +0.013 A 
ATOM      6  C   UNL     1       1.039   0.393  -2.799  0.00  0.00    +0.004 A 
ATOM      7  C   UNL     1       1.926  -0.611  -3.170  0.00  0.00    -0.044 A 
ATOM      8  C   UNL     1       1.660  -1.922  -2.835  0.00  0.00    -0.043 A 
ATOM      9  C   UNL     1       0.504  -2.234  -2.136  0.00  0.00    +0.017 A 
ATOM     10  C   UNL     1      -0.388  -1.231  -1.764  0.00  0.00    +0.037 A 
ATOM     11  C   UNL     1       2.587  -3.054  -3.192  0.00  0.00    +0.035 C 
ATOM     12  C   UNL     1       3.553  -2.630  -4.296  0.00  0.00    +0.005 C 
ATOM     13  C   UNL     1       4.212  -1.310  -3.882  0.00  0.00    +0.005 C 
ATOM     14  C   UNL     1       3.158  -0.206  -3.938  0.00  0.00    +0.035 C 
ENDBRANCH   1  10
BRANCH   3  15
ATOM     15  C   UNL     1      -3.698  -0.926   0.080  0.00  0.00    +0.245 C 
BRANCH  15  16
ATOM     16  C   UNL     1      -3.388  -0.995   1.553  0.00  0.00    +0.240 C 
ATOM     17  O   UNL     1      -2.458  -0.364   2.008  0.00  0.00    -0.273 OA
ATOM     18  N   UNL     1      -4.146  -1.757   2.366  0.00  0.00    -0.327 N 
ATOM     19  H   UNL     1      -4.845  -2.318   1.993  0.00  0.00    +0.145 HD
ATOM     20  H   UNL     1      -3.993  -1.746   3.324  0.00  0.00    +0.145 HD
ENDBRANCH  15  16
BRANCH  15  21
ATOM     21  C   UNL     1      -4.740   0.135  -0.165  0.00  0.00    +0.240 C 
ATOM     22  O   UNL     1      -4.402   1.252  -0.496  0.00  0.00    -0.273 OA
ATOM     23  N   UNL     1      -6.047  -0.158  -0.017  0.00  0.00    -0.327 N 
ATOM     24  H   UNL     1      -6.321  -1.068   0.178  0.00  0.00    +0.145 HD
ATOM     25  H   UNL     1      -6.714   0.541  -0.106  0.00  0.00    +0.145 HD
ENDBRANCH  15  21
ENDBRANCH   3  15
TORSDOF 4
