REMARK  Name = ZINC30911209
REMARK  8 active torsions:
REMARK  status: ('A' for Active; 'I' for Inactive)
REMARK    1  A    between atoms: C_1  and  C_2
REMARK    2  A    between atoms: C_2  and  C_3
REMARK    3  A    between atoms: C_3  and  C_29
REMARK    4  A    between atoms: N_6  and  N_10
REMARK    5  A    between atoms: C_11  and  C_13
REMARK    6  A    between atoms: C_13  and  N_14
REMARK    7  A    between atoms: N_17  and  C_20
REMARK    8  A    between atoms: C_25  and  N_26
REMARK                            x       y       z     vdW  Elec       q    Type
REMARK                         _______ _______ _______ _____ _____    ______ ____
ROOT
ATOM      1  N   UNL     1      -2.358   5.475  -3.546  0.00  0.00    -0.225 N 
ATOM      2  C   UNL     1      -1.851   4.833  -2.474  0.00  0.00    +0.213 C 
ATOM      3  O   UNL     1      -1.805   5.392  -1.399  0.00  0.00    -0.276 OA
ATOM      4  H   UNL     1      -2.400   4.968  -4.521  0.00  0.00    +0.173 HD
ENDROOT
BRANCH   1   8
ATOM      5  C   UNL     1      -3.051   9.059  -3.513  0.00  0.00    +0.139 C 
ATOM      6  C   UNL     1      -2.173   7.875  -3.867  0.00  0.00    +0.268 C 
ATOM      7  O   UNL     1      -1.103   7.902  -4.435  0.00  0.00    -0.271 OA
ATOM      8  N   UNL     1      -2.830   6.788  -3.418  0.00  0.00    -0.137 N 
ATOM      9  C   UNL     1      -3.991   7.116  -2.839  0.00  0.00    +0.327 C 
ATOM     10  O   UNL     1      -4.761   6.306  -2.362  0.00  0.00    -0.251 OA
ATOM     11  N   UNL     1      -4.209   8.443  -2.842  0.00  0.00    -0.280 N 
ATOM     12  H   UNL     1      -5.026   9.075  -2.465  0.00  0.00    +0.152 HD
BRANCH   5  13
ATOM     13  C   UNL     1      -3.482   9.791  -4.758  0.00  0.00    -0.015 A 
ATOM     14  C   UNL     1      -2.720  10.837  -5.244  0.00  0.00    +0.006 A 
ATOM     15  C   UNL     1      -3.114  11.504  -6.389  0.00  0.00    +0.000 A 
ATOM     16  C   UNL     1      -4.274  11.133  -7.042  0.00  0.00    +0.000 A 
ATOM     17  C   UNL     1      -5.039  10.090  -6.553  0.00  0.00    +0.000 A 
ATOM     18  C   UNL     1      -4.643   9.419  -5.411  0.00  0.00    +0.006 A 
ENDBRANCH   5  13
BRANCH   5  20
ATOM     19  C   UNL     1      -1.939   9.254  -1.284  0.00  0.00    +0.007 C 
ATOM     20  C   UNL     1      -2.318  10.007  -2.561  0.00  0.00    +0.037 C 
ENDBRANCH   5  20
ENDBRANCH   1   8
BRANCH   2  21
ATOM     21  C   UNL     1      -1.344   3.421  -2.612  0.00  0.00    +0.020 C 
BRANCH  21  22
ATOM     22  N   UNL     1      -0.719   3.000  -1.350  0.00  0.00    +0.387 N 
ATOM     23  C   UNL     1       0.499   3.776  -1.081  0.00  0.00    -0.059 C 
ATOM     24  C   UNL     1       1.074   3.364   0.276  0.00  0.00    +0.086 C 
ATOM     25  N   UNL     1       1.363   1.923   0.266  0.00  0.00    -0.332 N 
ATOM     26  C   UNL     1       0.145   1.147  -0.004  0.00  0.00    +0.086 C 
ATOM     27  C   UNL     1      -0.430   1.559  -1.361  0.00  0.00    -0.059 C 
ATOM     28  H   UNL     1      -1.434   3.197  -0.538  0.00  0.00    -0.081 HD
BRANCH  25  29
ATOM     29  C   UNL     1       1.956   1.523   1.465  0.00  0.00    +0.060 A 
ATOM     30  C   UNL     1       1.242   1.597   2.655  0.00  0.00    +0.025 A 
ATOM     31  C   UNL     1       1.830   1.196   3.838  0.00  0.00    +0.002 A 
ATOM     32  C   UNL     1       3.132   0.731   3.841  0.00  0.00    +0.002 A 
ATOM     33  C   UNL     1       3.849   0.662   2.661  0.00  0.00    +0.034 A 
ATOM     34  C   UNL     1       3.264   1.056   1.473  0.00  0.00    +0.147 A 
BRANCH  34  35
ATOM     35  N   UNL     1       4.032   0.982   0.209  0.00  0.00    +0.058 N 
ATOM     36  O   UNL     1       5.144   0.486   0.201  0.00  0.00    -0.126 OA
ATOM     37  O   UNL     1       3.551   1.418  -0.822  0.00  0.00    -0.126 OA
ENDBRANCH  34  35
ENDBRANCH  25  29
ENDBRANCH  21  22
ENDBRANCH   2  21
TORSDOF 7
