REMARK  Name = ZINC01891969
REMARK  6 active torsions:
REMARK  status: ('A' for Active; 'I' for Inactive)
REMARK    1  A    between atoms: C_3  and  S_10
REMARK    2  A    between atoms: C_6  and  N_7
REMARK    3  A    between atoms: S_10  and  C_13
REMARK    4  A    between atoms: C_19  and  C_21
REMARK    5  A    between atoms: C_21  and  O_22
REMARK    6  A    between atoms: O_22  and  C_23
REMARK                            x       y       z     vdW  Elec       q    Type
REMARK                         _______ _______ _______ _____ _____    ______ ____
ROOT
ATOM      1  C   UNL     1       4.355   2.571   1.656  0.00  0.00    +0.152 A 
ATOM      2  C   UNL     1       5.122   1.804   2.469  0.00  0.00    +0.148 A 
ATOM      3  N   UNL     1       5.313   2.240   3.701  0.00  0.00    -0.231 NA
ATOM      4  C   UNL     1       4.779   3.369   4.113  0.00  0.00    +0.166 A 
ATOM      5  S   UNL     1       3.952   3.920   2.754  0.00  0.00    -0.033 S 
ATOM      6  N   UNL     1       4.879   3.966   5.364  0.00  0.00    -0.262 N 
ATOM      7  C   UNL     1       5.598   3.374   6.338  0.00  0.00    +0.256 C 
ATOM      8  O   UNL     1       6.159   2.320   6.122  0.00  0.00    -0.272 OA
ATOM      9  H   UNL     1       4.431   4.809   5.537  0.00  0.00    +0.157 HD
ENDROOT
BRANCH   1  10
ATOM     10  S   UNL     1       3.891   2.312  -0.024  0.00  0.00    +0.033 S 
ATOM     11  O   UNL     1       4.872   1.453  -0.588  0.00  0.00    -0.164 OA
ATOM     12  O   UNL     1       3.597   3.593  -0.566  0.00  0.00    -0.164 OA
BRANCH  10  15
ATOM     13  C   UNL     1      -0.017   1.378   0.010  0.00  0.00    +0.034 A 
ATOM     14  C   UNL     1       1.171   2.086   0.002  0.00  0.00    +0.029 A 
ATOM     15  C   UNL     1       2.377   1.411  -0.013  0.00  0.00    +0.094 A 
ATOM     16  C   UNL     1       2.396   0.029  -0.020  0.00  0.00    +0.029 A 
ATOM     17  C   UNL     1       1.208  -0.679  -0.012  0.00  0.00    +0.034 A 
ATOM     18  C   UNL     1       0.002  -0.004   0.002  0.00  0.00    +0.126 A 
BRANCH  18  19
ATOM     19  N   UNL     1      -1.270  -0.761   0.011  0.00  0.00    +0.056 N 
ATOM     20  O   UNL     1      -2.325  -0.171   0.024  0.00  0.00    -0.126 OA
ATOM     21  O   UNL     1      -1.253  -1.970   0.004  0.00  0.00    -0.126 OA
ENDBRANCH  18  19
ENDBRANCH  10  15
ENDBRANCH   1  10
BRANCH   7  22
ATOM     22  C   UNL     1       5.707   4.021   7.694  0.00  0.00    +0.324 C 
BRANCH  22  23
ATOM     23  O   UNL     1       6.515   3.208   8.547  0.00  0.00    -0.483 OA
BRANCH  23  24
ATOM     24  C   UNL     1       6.714   3.651   9.816  0.00  0.00    +0.121 A 
ATOM     25  C   UNL     1       6.138   4.842  10.234  0.00  0.00    +0.047 A 
ATOM     26  C   UNL     1       6.342   5.292  11.524  0.00  0.00    +0.019 A 
ATOM     27  C   UNL     1       7.120   4.555  12.399  0.00  0.00    +0.018 A 
ATOM     28  C   UNL     1       7.695   3.368  11.985  0.00  0.00    +0.019 A 
ATOM     29  C   UNL     1       7.489   2.912  10.697  0.00  0.00    +0.047 A 
ATOM     30 BR   UNL     1       7.396   5.173  14.165  0.00  0.00    -0.050 Br
ENDBRANCH  23  24
ENDBRANCH  22  23
ENDBRANCH   7  22
TORSDOF 6
