REMARK  Name = ZINC03429640
REMARK  5 active torsions:
REMARK  status: ('A' for Active; 'I' for Inactive)
REMARK    1  A    between atoms: C_1  and  C_2
REMARK    2  A    between atoms: C_4  and  C_8
REMARK    3  A    between atoms: C_5  and  C_7
REMARK    4  A    between atoms: N_10  and  N_11
REMARK    5  A    between atoms: C_12  and  C_14
REMARK                            x       y       z     vdW  Elec       q    Type
REMARK                         _______ _______ _______ _____ _____    ______ ____
ROOT
ATOM      1  N   UNL     1      -4.821   1.639  -0.261  0.00  0.00    -0.231 N 
ATOM      2  C   UNL     1      -3.598   2.106   0.059  0.00  0.00    +0.273 C 
ATOM      3  O   UNL     1      -3.487   3.148   0.669  0.00  0.00    -0.270 OA
ATOM      4  H   UNL     1      -4.910   0.806  -0.749  0.00  0.00    +0.173 HD
ENDROOT
BRANCH   2   5
ATOM      5  C   UNL     1      -2.368   1.333  -0.341  0.00  0.00    +0.297 C 
ATOM      6  C   UNL     1      -2.343  -0.015   0.393  0.00  0.00    +0.283 C 
ATOM      7  O   UNL     1      -1.158  -0.716   0.002  0.00  0.00    -0.484 OA
ATOM      8  C   UNL     1       0.002  -0.004   0.002  0.00  0.00    +0.162 A 
ATOM      9  C   UNL     1       1.215  -0.677  -0.009  0.00  0.00    +0.049 A 
ATOM     10  C   UNL     1       2.401   0.032  -0.015  0.00  0.00    +0.004 A 
ATOM     11  C   UNL     1       2.382   1.414  -0.011  0.00  0.00    +0.004 A 
ATOM     12  C   UNL     1       1.177   2.091   0.002  0.00  0.00    +0.049 A 
ATOM     13  C   UNL     1      -0.017   1.385   0.010  0.00  0.00    +0.163 A 
ATOM     14  O   UNL     1      -1.195   2.066   0.030  0.00  0.00    -0.472 OA
ENDBRANCH   2   5
BRANCH   1  17
ATOM     15  C   UNL     1      -7.188   1.892  -0.209  0.00  0.00    +0.263 C 
ATOM     16  O   UNL     1      -7.299   0.846  -0.821  0.00  0.00    -0.269 OA
ATOM     17  N   UNL     1      -5.965   2.358   0.111  0.00  0.00    -0.230 N 
ATOM     18  H   UNL     1      -5.876   3.192   0.599  0.00  0.00    +0.173 HD
BRANCH  15  22
ATOM     19  C   UNL     1     -10.292   5.446   1.731  0.00  0.00    +0.086 C 
ATOM     20  C   UNL     1      -9.742   4.223   1.042  0.00  0.00    +0.103 A 
ATOM     21  C   UNL     1      -8.441   3.920   0.918  0.00  0.00    +0.057 A 
ATOM     22  C   UNL     1      -8.391   2.648   0.182  0.00  0.00    +0.079 A 
ATOM     23  C   UNL     1      -9.691   2.317  -0.068  0.00  0.00    +0.114 A 
ATOM     24  O   UNL     1     -10.475   3.264   0.456  0.00  0.00    -0.464 OA
ATOM     25  C   UNL     1     -10.162   1.092  -0.808  0.00  0.00    +0.087 C 
ENDBRANCH  15  22
ENDBRANCH   1  17
TORSDOF 3
