REMARK  Name = ZINC37507704
REMARK  6 active torsions:
REMARK  status: ('A' for Active; 'I' for Inactive)
REMARK    1  A    between atoms: C_1  and  C_2
REMARK    2  A    between atoms: C_2  and  C_3
REMARK    3  A    between atoms: C_4  and  C_15
REMARK    4  A    between atoms: N_6  and  C_9
REMARK    5  A    between atoms: C_7  and  N_8
REMARK    6  A    between atoms: C_19  and  C_20
REMARK                            x       y       z     vdW  Elec       q    Type
REMARK                         _______ _______ _______ _____ _____    ______ ____
ROOT
ATOM      1  C   UNL     1      -1.465  -0.403   0.028  0.00  0.00    +0.020 A 
ATOM      2  C   UNL     1      -2.147  -0.906   1.151  0.00  0.00    +0.101 A 
ATOM      3  N   UNL     1      -3.288  -1.421   0.744  0.00  0.00    -0.164 NA
ATOM      4  N   UNL     1      -3.371  -1.263  -0.646  0.00  0.00    -0.218 N 
ATOM      5  C   UNL     1      -2.241  -0.630  -1.065  0.00  0.00    +0.124 A 
ENDROOT
BRANCH   4   6
ATOM      6  C   UNL     1      -4.432  -1.679  -1.459  0.00  0.00    +0.067 A 
ATOM      7  C   UNL     1      -4.793  -0.929  -2.571  0.00  0.00    +0.028 A 
ATOM      8  C   UNL     1      -5.840  -1.342  -3.371  0.00  0.00    +0.002 A 
ATOM      9  C   UNL     1      -6.529  -2.501  -3.067  0.00  0.00    +0.000 A 
ATOM     10  C   UNL     1      -6.173  -3.251  -1.960  0.00  0.00    +0.002 A 
ATOM     11  C   UNL     1      -5.123  -2.846  -1.160  0.00  0.00    +0.028 A 
ENDBRANCH   4   6
BRANCH   2  12
ATOM     12  C   UNL     1      -1.662  -0.865   2.554  0.00  0.00    +0.043 A 
ATOM     13  C   UNL     1      -0.324  -1.220   3.039  0.00  0.00    +0.051 A 
ATOM     14  C   UNL     1      -0.348  -1.029   4.369  0.00  0.00    +0.196 A 
ATOM     15  O   UNL     1      -1.567  -0.595   4.725  0.00  0.00    -0.467 OA
ATOM     16  C   UNL     1      -2.364  -0.486   3.652  0.00  0.00    +0.111 A 
ATOM     17  C   UNL     1      -3.799  -0.023   3.664  0.00  0.00    +0.087 C 
ENDBRANCH   2  12
BRANCH   5  18
ATOM     18  N   UNL     1      -1.935  -0.280  -2.377  0.00  0.00    -0.343 N 
ATOM     19  H   UNL     1      -1.099   0.170  -2.577  0.00  0.00    +0.144 HD
ATOM     20  H   UNL     1      -2.557  -0.486  -3.092  0.00  0.00    +0.144 HD
ENDBRANCH   5  18
BRANCH   1  22
ATOM     21  C   UNL     1      -0.297   1.763   0.337  0.00  0.00    +0.009 C 
ATOM     22  C   UNL     1      -0.118   0.274   0.035  0.00  0.00    +0.037 C 
ENDBRANCH   1  22
TORSDOF 4
