REMARK  Name = ZINC62531513
REMARK  6 active torsions:
REMARK  status: ('A' for Active; 'I' for Inactive)
REMARK    1  A    between atoms: C_1  and  C_2
REMARK    2  A    between atoms: C_9  and  N_18
REMARK    3  A    between atoms: C_11  and  C_14
REMARK    4  A    between atoms: C_14  and  C_15
REMARK    5  A    between atoms: C_14  and  C_16
REMARK    6  A    between atoms: C_14  and  C_17
REMARK                            x       y       z     vdW  Elec       q    Type
REMARK                         _______ _______ _______ _____ _____    ______ ____
ROOT
ATOM      1  C   UNL     1      -0.019   1.526   0.010  0.00  0.00    +0.062 C 
ATOM      2  C   UNL     1       0.002  -0.004   0.002  0.00  0.00    +0.256 C 
ATOM      3  C   UNL     1      -1.413  -0.525   0.011  0.00  0.00    +0.258 C 
ATOM      4  O   UNL     1      -2.306   0.131  -0.480  0.00  0.00    -0.271 OA
ATOM      5  N   UNL     1      -1.680  -1.726   0.568  0.00  0.00    -0.279 N 
ATOM      6  C   UNL     1      -0.635  -2.449   1.161  0.00  0.00    +0.078 A 
ATOM      7  C   UNL     1      -0.783  -3.795   1.452  0.00  0.00    +0.049 A 
ATOM      8  C   UNL     1       0.264  -4.493   2.039  0.00  0.00    +0.027 A 
ATOM      9  C   UNL     1       1.455  -3.842   2.333  0.00  0.00    +0.030 A 
ATOM     10  C   UNL     1       1.603  -2.498   2.041  0.00  0.00    +0.003 A 
ATOM     11  C   UNL     1       0.562  -1.799   1.455  0.00  0.00    +0.146 A 
ATOM     12  O   UNL     1       0.695  -0.477   1.160  0.00  0.00    -0.478 OA
ATOM     13  H   UNL     1      -2.582  -2.083   0.559  0.00  0.00    +0.155 HD
ENDROOT
BRANCH  10  14
ATOM     14  C   UNL     1       2.897  -1.795   2.362  0.00  0.00    -0.009 C 
ATOM     15  C   UNL     1       3.872  -2.788   2.999  0.00  0.00    +0.015 C 
ATOM     16  C   UNL     1       3.506  -1.236   1.075  0.00  0.00    +0.015 C 
ATOM     17  C   UNL     1       2.626  -0.648   3.338  0.00  0.00    +0.015 C 
ENDBRANCH  10  14
BRANCH   8  18
ATOM     18  N   UNL     1       0.118  -5.852   2.336  0.00  0.00    -0.358 N 
ATOM     19  H   UNL     1      -0.714  -6.307   2.132  0.00  0.00    +0.142 HD
ATOM     20  H   UNL     1       0.849  -6.340   2.747  0.00  0.00    +0.142 HD
ENDBRANCH   8  18
TORSDOF 2
