REMARK  Name = ZINC63302979
REMARK  5 active torsions:
REMARK  status: ('A' for Active; 'I' for Inactive)
REMARK    1  A    between atoms: C_5  and  C_7
REMARK    2  A    between atoms: C_7  and  N_8
REMARK    3  A    between atoms: C_9  and  C_11
REMARK    4  A    between atoms: C_14  and  C_18
REMARK    5  A    between atoms: C_18  and  C_19
REMARK                            x       y       z     vdW  Elec       q    Type
REMARK                         _______ _______ _______ _____ _____    ______ ____
ROOT
ATOM      1  C   UNL     1       1.819  -4.511   2.961  0.00  0.00    +0.297 C 
ATOM      2  N   UNL     1       3.210  -4.185   3.372  0.00  0.00    -0.265 NA
ATOM      3  C   UNL     1       3.121  -4.195   4.857  0.00  0.00    +0.154 C 
ATOM      4  N   UNL     1       1.782  -3.622   5.130  0.00  0.00    -0.181 NA
ATOM      5  O   UNL     1       0.982  -3.828   3.912  0.00  0.00    -0.270 OA
ATOM      6  H   UNL     1       3.857  -4.886   3.044  0.00  0.00    +0.126 HD
ATOM      7  H   UNL     1       1.352  -4.071   5.924  0.00  0.00    +0.156 HD
ENDROOT
BRANCH   1   9
ATOM      8  N   UNL     1       1.489  -2.679   1.333  0.00  0.00    -0.308 N 
ATOM      9  C   UNL     1       1.552  -4.005   1.567  0.00  0.00    +0.259 C 
ATOM     10  O   UNL     1       1.393  -4.790   0.657  0.00  0.00    -0.271 OA
ATOM     11  H   UNL     1       1.615  -2.051   2.062  0.00  0.00    +0.149 HD
BRANCH   8  12
ATOM     12  C   UNL     1       1.229  -2.186  -0.022  0.00  0.00    +0.141 C 
BRANCH  12  17
ATOM     13  C   UNL     1      -0.017   1.378   0.010  0.00  0.00    +0.000 A 
ATOM     14  C   UNL     1       1.171   2.086   0.002  0.00  0.00    +0.001 A 
ATOM     15  C   UNL     1       2.377   1.412  -0.013  0.00  0.00    +0.020 A 
ATOM     16  C   UNL     1       2.397   0.029  -0.021  0.00  0.00    +0.046 A 
ATOM     17  C   UNL     1       1.208  -0.679  -0.013  0.00  0.00    -0.012 A 
ATOM     18  C   UNL     1       0.002  -0.004   0.002  0.00  0.00    +0.006 A 
ATOM     19 CL   UNL     1       3.912  -0.818  -0.041  0.00  0.00    -0.083 Cl
ENDBRANCH  12  17
ENDBRANCH   8  12
ENDBRANCH   1   9
BRANCH   3  20
ATOM     20  C   UNL     1       4.219  -3.321   5.467  0.00  0.00    +0.070 C 
BRANCH  20  21
ATOM     21  C   UNL     1       4.184  -3.446   6.969  0.00  0.00    -0.039 C 
ATOM     22  C   UNL     1       4.928  -4.276   7.734  0.00  0.00    -0.001 A 
ATOM     23  C   UNL     1       5.954  -5.275   7.409  0.00  0.00    +0.010 A 
ATOM     24  C   UNL     1       6.536  -5.968   8.414  0.00  0.00    +0.001 A 
ATOM     25  C   UNL     1       6.185  -5.758   9.754  0.00  0.00    +0.002 A 
ATOM     26  C   UNL     1       5.252  -4.858  10.131  0.00  0.00    +0.026 A 
ATOM     27  C   UNL     1       4.576  -4.073   9.157  0.00  0.00    +0.043 A 
ATOM     28  N   UNL     1       3.649  -3.152   9.268  0.00  0.00    -0.380 N 
ATOM     29  C   UNL     1       3.313  -2.663   7.926  0.00  0.00    +0.144 C 
ATOM     30  H   UNL     1       3.254  -2.843  10.098  0.00  0.00    +0.160 HD
ENDBRANCH  20  21
ENDBRANCH   3  20
TORSDOF 5
