REMARK  Name = ZINC04577747
REMARK  10 active torsions:
REMARK  status: ('A' for Active; 'I' for Inactive)
REMARK    1  A    between atoms: C_1  and  C_2
REMARK    2  A    between atoms: C_2  and  C_26
REMARK    3  A    between atoms: C_6  and  C_7
REMARK    4  A    between atoms: C_6  and  C_8
REMARK    5  A    between atoms: C_9  and  C_24
REMARK    6  A    between atoms: C_9  and  O_25
REMARK    7  A    between atoms: N_10  and  C_14
REMARK    8  A    between atoms: C_14  and  C_15
REMARK    9  A    between atoms: C_15  and  C_17
REMARK   10  A    between atoms: C_15  and  O_23
REMARK                            x       y       z     vdW  Elec       q    Type
REMARK                         _______ _______ _______ _____ _____    ______ ____
ROOT
ATOM      1  C   UNL     1      -3.472   4.566   3.853  0.00  0.00    -0.010 C 
ATOM      2  C   UNL     1      -4.016   3.150   4.073  0.00  0.00    -0.070 C 
ATOM      3  C   UNL     1      -3.584   2.240   2.928  0.00  0.00    +0.040 C 
ATOM      4  C   UNL     1      -2.139   1.778   3.085  0.00  0.00    +0.158 C 
ATOM      5  C   UNL     1      -1.950   1.099   4.430  0.00  0.00    +0.040 C 
ATOM      6  C   UNL     1      -2.361   2.017   5.583  0.00  0.00    -0.070 C 
ATOM      7  C   UNL     1      -1.266   3.056   5.843  0.00  0.00    -0.010 C 
ATOM      8  C   UNL     1      -2.458   1.137   6.852  0.00  0.00    -0.010 C 
ATOM      9  C   UNL     1      -1.778   0.844   1.917  0.00  0.00    +0.175 C 
ATOM     10  N   UNL     1      -0.698   1.558   1.213  0.00  0.00    -0.233 N 
ATOM     11  C   UNL     1      -0.448   2.705   1.857  0.00  0.00    +0.406 C 
ATOM     12  O   UNL     1       0.403   3.496   1.501  0.00  0.00    -0.226 OA
ATOM     13  O   UNL     1      -1.223   2.896   2.930  0.00  0.00    -0.439 OA
ATOM     14  C   UNL     1      -1.284  -0.522   2.388  0.00  0.00    +0.068 C 
ATOM     15  C   UNL     1      -5.560   3.250   4.023  0.00  0.00    -0.010 C 
ATOM     16  N   UNL     1      -3.697   2.651   5.437  0.00  0.00    +0.386 N 
ATOM     17  H   UNL     1      -4.408   1.957   5.696  0.00  0.00    -0.084 HD
ATOM     18  H   UNL     1      -3.744   3.446   6.085  0.00  0.00    -0.084 HD
ENDROOT
BRANCH   9  19
ATOM     19  O   UNL     1      -2.903   0.683   1.044  0.00  0.00    -0.368 OA
ATOM     20  H   UNL     1      -2.714   0.162   0.252  0.00  0.00    +0.212 HD
ENDBRANCH   9  19
BRANCH  10  21
ATOM     21  C   UNL     1      -0.013   1.086   0.008  0.00  0.00    +0.150 C 
BRANCH  21  22
ATOM     22  C   UNL     1      -0.753   1.593  -1.232  0.00  0.00    +0.162 C 
BRANCH  22  23
ATOM     23  C   UNL     1      -0.121   1.007  -2.468  0.00  0.00    -0.018 A 
ATOM     24  C   UNL     1       1.037   1.561  -2.982  0.00  0.00    +0.006 A 
ATOM     25  C   UNL     1       1.618   1.021  -4.113  0.00  0.00    +0.000 A 
ATOM     26  C   UNL     1       1.037  -0.067  -4.737  0.00  0.00    +0.000 A 
ATOM     27  C   UNL     1      -0.123  -0.618  -4.226  0.00  0.00    +0.000 A 
ATOM     28  C   UNL     1      -0.702  -0.081  -3.092  0.00  0.00    +0.006 A 
ENDBRANCH  22  23
BRANCH  22  29
ATOM     29  O   UNL     1      -0.672   3.018  -1.285  0.00  0.00    -0.386 OA
ATOM     30  H   UNL     1       0.232   3.360  -1.333  0.00  0.00    +0.210 HD
ENDBRANCH  22  29
ENDBRANCH  21  22
ENDBRANCH  10  21
TORSDOF 5
