REMARK  Name = ZINC15906668
REMARK  8 active torsions:
REMARK  status: ('A' for Active; 'I' for Inactive)
REMARK    1  A    between atoms: C_1  and  C_2
REMARK    2  A    between atoms: C_3  and  S_26
REMARK    3  A    between atoms: C_4  and  C_25
REMARK    4  A    between atoms: C_7  and  C_9
REMARK    5  A    between atoms: N_14  and  S_15
REMARK    6  A    between atoms: S_15  and  C_18
REMARK    7  A    between atoms: S_26  and  C_27
REMARK    8  A    between atoms: C_30  and  N_33
REMARK                            x       y       z     vdW  Elec       q    Type
REMARK                         _______ _______ _______ _____ _____    ______ ____
ROOT
ATOM      1  C   UNL     1      -3.736  -3.614  -4.100  0.00  0.00    +0.069 C 
ATOM      2  C   UNL     1      -3.598  -2.735  -2.884  0.00  0.00    +0.074 A 
ATOM      3  C   UNL     1      -4.099  -3.022  -1.601  0.00  0.00    +0.056 A 
ATOM      4  C   UNL     1      -3.767  -1.991  -0.785  0.00  0.00    +0.059 A 
ATOM      5  N   UNL     1      -3.084  -1.077  -1.538  0.00  0.00    -0.202 N 
ATOM      6  N   UNL     1      -2.995  -1.577  -2.843  0.00  0.00    -0.168 NA
ATOM      7  C   UNL     1      -2.582   0.095  -1.100  0.00  0.00    +0.267 C 
ATOM      8  O   UNL     1      -2.723   0.419   0.055  0.00  0.00    -0.269 OA
ATOM      9  C   UNL     1      -4.094  -1.874   0.681  0.00  0.00    +0.067 C 
ENDROOT
BRANCH   7  10
ATOM     10  C   UNL     1      -1.843   1.000  -2.052  0.00  0.00    +0.170 C 
ATOM     11  C   UNL     1      -2.802   2.076  -2.626  0.00  0.00    +0.031 C 
ATOM     12  C   UNL     1      -1.806   3.200  -3.018  0.00  0.00    +0.019 C 
ATOM     13  C   UNL     1      -0.737   3.117  -1.907  0.00  0.00    +0.110 C 
ATOM     14  N   UNL     1      -0.808   1.765  -1.333  0.00  0.00    -0.164 NA
BRANCH  14  15
ATOM     15  S   UNL     1       0.125   1.194  -0.090  0.00  0.00    +0.062 S 
ATOM     16  O   UNL     1       0.401   2.304   0.753  0.00  0.00    -0.153 OA
ATOM     17  O   UNL     1      -0.508   0.015   0.385  0.00  0.00    -0.153 OA
BRANCH  15  18
ATOM     18  C   UNL     1       1.666   0.694  -0.783  0.00  0.00    +0.106 A 
ATOM     19  C   UNL     1       1.799  -0.566  -1.335  0.00  0.00    +0.030 A 
ATOM     20  C   UNL     1       3.006  -0.957  -1.884  0.00  0.00    +0.022 A 
ATOM     21  C   UNL     1       4.084  -0.091  -1.870  0.00  0.00    +0.041 A 
ATOM     22  C   UNL     1       3.953   1.168  -1.312  0.00  0.00    +0.022 A 
ATOM     23  C   UNL     1       2.744   1.560  -0.769  0.00  0.00    +0.030 A 
ATOM     24 CL   UNL     1       5.602  -0.584  -2.553  0.00  0.00    -0.084 Cl
ENDBRANCH  15  18
ENDBRANCH  14  15
ENDBRANCH   7  10
BRANCH   3  25
ATOM     25  S   UNL     1      -4.992  -4.468  -1.135  0.00  0.00    -0.086 S 
BRANCH  25  26
ATOM     26  C   UNL     1      -3.739  -5.596  -0.623  0.00  0.00    +0.013 A 
ATOM     27  C   UNL     1      -2.402  -5.219  -0.667  0.00  0.00    +0.017 A 
ATOM     28  C   UNL     1      -1.424  -6.104  -0.260  0.00  0.00    +0.034 A 
ATOM     29  C   UNL     1      -1.772  -7.368   0.180  0.00  0.00    +0.126 A 
ATOM     30  C   UNL     1      -3.101  -7.749   0.220  0.00  0.00    +0.034 A 
ATOM     31  C   UNL     1      -4.085  -6.867  -0.180  0.00  0.00    +0.017 A 
BRANCH  29  32
ATOM     32  N   UNL     1      -0.719  -8.316   0.610  0.00  0.00    +0.056 N 
ATOM     33  O   UNL     1      -1.024  -9.430   0.998  0.00  0.00    -0.126 OA
ATOM     34  O   UNL     1       0.452  -7.982   0.576  0.00  0.00    -0.126 OA
ENDBRANCH  29  32
ENDBRANCH  25  26
ENDBRANCH   3  25
TORSDOF 6
