REMARK  Name = ZINC01080781
REMARK  6 active torsions:
REMARK  status: ('A' for Active; 'I' for Inactive)
REMARK    1  A    between atoms: C_2  and  C_3
REMARK    2  A    between atoms: C_3  and  N_4
REMARK    3  A    between atoms: C_5  and  C_24
REMARK    4  A    between atoms: C_8  and  S_9
REMARK    5  A    between atoms: S_9  and  C_10
REMARK    6  A    between atoms: C_10  and  C_11
REMARK                            x       y       z     vdW  Elec       q    Type
REMARK                         _______ _______ _______ _____ _____    ______ ____
ROOT
ATOM      1  C   UNL     1      -0.068  -5.516   0.444  0.00  0.00    +0.153 C 
ENDROOT
BRANCH   1   2
ATOM      2  C   UNL     1      -0.677  -6.385  -0.625  0.00  0.00    +0.146 A 
ATOM      3  N   UNL     1      -1.990  -6.427  -0.772  0.00  0.00    -0.199 NA
ATOM      4  C   UNL     1      -2.532  -7.193  -1.715  0.00  0.00    +0.217 A 
ATOM      5  N   UNL     1      -1.752  -7.918  -2.510  0.00  0.00    -0.181 NA
ATOM      6  C   UNL     1      -0.433  -7.873  -2.359  0.00  0.00    +0.222 A 
ATOM      7  N   UNL     1       0.102  -7.101  -1.417  0.00  0.00    -0.198 NA
ATOM      8  N   UNL     1       0.382  -8.624  -3.182  0.00  0.00    -0.300 N 
ATOM      9  C   UNL     1       1.843  -8.590  -3.022  0.00  0.00    +0.108 C 
ATOM     10  C   UNL     1       2.356 -10.025  -2.868  0.00  0.00    +0.019 C 
ATOM     11  C   UNL     1       1.872 -10.866  -4.052  0.00  0.00    +0.003 C 
ATOM     12  C   UNL     1       0.342 -10.899  -4.065  0.00  0.00    +0.019 C 
ATOM     13  C   UNL     1      -0.194  -9.478  -4.229  0.00  0.00    +0.108 C 
ATOM     14  N   UNL     1      -3.903  -7.236  -1.868  0.00  0.00    -0.327 N 
ATOM     15  H   UNL     1      -4.472  -6.707  -1.287  0.00  0.00    +0.145 HD
ATOM     16  H   UNL     1      -4.297  -7.795  -2.555  0.00  0.00    +0.145 HD
ENDBRANCH   1   2
BRANCH   1  17
ATOM     17  S   UNL     1       0.252  -3.862  -0.231  0.00  0.00    -0.078 S 
BRANCH  17  22
ATOM     18  N   UNL     1       1.367  -1.676   1.111  0.00  0.00    -0.296 N 
ATOM     19  C   UNL     1       1.836  -1.425   2.383  0.00  0.00    +0.201 A 
ATOM     20  N   UNL     1       1.695  -2.537   3.071  0.00  0.00    -0.125 NA
ATOM     21  N   UNL     1       1.180  -3.450   2.328  0.00  0.00    -0.122 NA
ATOM     22  C   UNL     1       0.954  -2.978   1.122  0.00  0.00    +0.193 A 
BRANCH  19  23
ATOM     23  C   UNL     1       2.389  -0.154   2.876  0.00  0.00    +0.172 A 
ATOM     24  C   UNL     1       2.587   0.178   4.183  0.00  0.00    +0.053 A 
ATOM     25  C   UNL     1       3.131   1.477   4.193  0.00  0.00    +0.042 A 
ATOM     26  C   UNL     1       3.237   1.872   2.908  0.00  0.00    +0.196 A 
ATOM     27  O   UNL     1       2.792   0.882   2.115  0.00  0.00    -0.460 OA
ENDBRANCH  19  23
BRANCH  18  28
ATOM     28  C   UNL     1       1.317  -0.740  -0.015  0.00  0.00    +0.152 C 
BRANCH  28  30
ATOM     29  C   UNL     1      -0.016   1.306   0.009  0.00  0.00    +0.005 C 
ATOM     30  C   UNL     1       0.002  -0.004   0.002  0.00  0.00    -0.013 C 
ENDBRANCH  28  30
ENDBRANCH  18  28
ENDBRANCH  17  22
ENDBRANCH   1  17
TORSDOF 6
