REMARK  Name = ZINC00156385
REMARK  7 active torsions:
REMARK  status: ('A' for Active; 'I' for Inactive)
REMARK    1  A    between atoms: C_1  and  C_2
REMARK    2  A    between atoms: C_3  and  C_8
REMARK    3  A    between atoms: C_4  and  C_7
REMARK    4  A    between atoms: C_8  and  S_9
REMARK    5  A    between atoms: S_9  and  C_10
REMARK    6  A    between atoms: N_16  and  C_17
REMARK    7  A    between atoms: C_17  and  C_18
REMARK                            x       y       z     vdW  Elec       q    Type
REMARK                         _______ _______ _______ _____ _____    ______ ____
ROOT
ATOM      1  C   UNL     1      -3.011  -2.407  -1.399  0.00  0.00    +0.193 A 
ATOM      2  N   UNL     1      -3.445  -2.778  -0.229  0.00  0.00    -0.145 NA
ATOM      3  N   UNL     1      -4.532  -3.642  -0.422  0.00  0.00    -0.226 N 
ATOM      4  H   UNL     1      -5.055  -4.069   0.445  0.00  0.00    +0.194 HD
ATOM      5  C   UNL     1      -4.713  -3.770  -1.753  0.00  0.00    +0.345 A 
ATOM      6  O   UNL     1      -5.565  -4.447  -2.301  0.00  0.00    -0.245 OA
ATOM      7  N   UNL     1      -3.781  -3.013  -2.365  0.00  0.00    -0.263 N 
ENDROOT
BRANCH   1   8
ATOM      8  S   UNL     1      -1.659  -1.317  -1.696  0.00  0.00    -0.081 S 
BRANCH   8   9
ATOM      9  C   UNL     1      -1.173  -0.948   0.008  0.00  0.00    +0.117 C 
BRANCH   9  12
ATOM     10  C   UNL     1       1.982  -1.708  -0.027  0.00  0.00    +0.069 C 
ATOM     11  C   UNL     1       1.378  -0.327  -0.013  0.00  0.00    +0.085 A 
ATOM     12  C   UNL     1       0.002  -0.004   0.002  0.00  0.00    +0.027 A 
ATOM     13  C   UNL     1      -0.016   1.350   0.009  0.00  0.00    +0.138 A 
ATOM     14  O   UNL     1       1.264   1.747  -0.001  0.00  0.00    -0.359 OA
ATOM     15  N   UNL     1       2.022   0.805  -0.013  0.00  0.00    -0.083 NA
ATOM     16  C   UNL     1      -1.236   2.236   0.020  0.00  0.00    +0.089 C 
ENDBRANCH   9  12
ENDBRANCH   8   9
ENDBRANCH   1   8
BRANCH   7  17
ATOM     17  C   UNL     1      -3.615  -2.862  -3.813  0.00  0.00    +0.203 C 
BRANCH  17  18
ATOM     18  C   UNL     1      -2.669  -3.918  -4.324  0.00  0.00    +0.125 A 
ATOM     19  C   UNL     1      -3.017  -5.145  -4.751  0.00  0.00    +0.046 A 
ATOM     20  C   UNL     1      -1.823  -5.797  -5.139  0.00  0.00    +0.041 A 
ATOM     21  C   UNL     1      -0.817  -4.932  -4.916  0.00  0.00    +0.195 A 
ATOM     22  O   UNL     1      -1.335  -3.796  -4.423  0.00  0.00    -0.466 OA
ENDBRANCH  17  18
ENDBRANCH   7  17
TORSDOF 5
