REMARK  Name = ZINC05041087
REMARK  11 active torsions:
REMARK  status: ('A' for Active; 'I' for Inactive)
REMARK    1  A    between atoms: C_1  and  C_2
REMARK    2  A    between atoms: C_4  and  C_33
REMARK    3  A    between atoms: C_5  and  N_9
REMARK    4  A    between atoms: C_6  and  C_8
REMARK    5  A    between atoms: C_10  and  C_12
REMARK    6  A    between atoms: C_12  and  C_14
REMARK    7  A    between atoms: C_12  and  O_15
REMARK    8  A    between atoms: O_15  and  C_16
REMARK    9  A    between atoms: C_16  and  C_18
REMARK   10  A    between atoms: C_18  and  N_19
REMARK   11  A    between atoms: C_27  and  C_29
REMARK                            x       y       z     vdW  Elec       q    Type
REMARK                         _______ _______ _______ _____ _____    ______ ____
ROOT
ATOM      1  C   UNL     1       8.418  -0.279  -0.209  0.00  0.00    +0.326 C 
ATOM      2  O   UNL     1       8.572  -1.264   0.473  0.00  0.00    -0.249 OA
ENDROOT
BRANCH   1   3
ATOM      3  O   UNL     1       7.203   0.015  -0.698  0.00  0.00    -0.451 OA
BRANCH   3   4
ATOM      4  C   UNL     1       6.121  -0.894  -0.366  0.00  0.00    +0.259 C 
ATOM      5  C   UNL     1       6.029  -1.988  -1.432  0.00  0.00    +0.062 C 
BRANCH   4   7
ATOM      6  N   UNL     1       3.691  -0.753   0.074  0.00  0.00    -0.282 N 
ATOM      7  C   UNL     1       4.822  -0.132  -0.316  0.00  0.00    +0.258 C 
ATOM      8  O   UNL     1       4.794   1.040  -0.625  0.00  0.00    -0.271 OA
ATOM      9  H   UNL     1       3.725  -1.670   0.389  0.00  0.00    +0.155 HD
BRANCH   6  14
ATOM     10  C   UNL     1      -1.267   1.997  -0.134  0.00  0.00    +0.044 C 
ATOM     11  C   UNL     1       0.049   1.264  -0.075  0.00  0.00    -0.050 A 
ATOM     12  C   UNL     1       1.101   1.792   0.650  0.00  0.00    +0.008 A 
ATOM     13  C   UNL     1       2.309   1.126   0.702  0.00  0.00    -0.029 A 
ATOM     14  C   UNL     1       2.468  -0.076   0.024  0.00  0.00    +0.039 A 
ATOM     15  C   UNL     1       1.409  -0.604  -0.703  0.00  0.00    -0.029 A 
ATOM     16  C   UNL     1       0.203   0.067  -0.750  0.00  0.00    +0.008 A 
ATOM     17  C   UNL     1       1.576  -1.908  -1.440  0.00  0.00    +0.045 C 
ATOM     18  C   UNL     1       3.456   1.703   1.492  0.00  0.00    +0.045 C 
ENDBRANCH   6  14
ENDBRANCH   4   7
ENDBRANCH   3   4
ENDBRANCH   1   3
BRANCH   1  19
ATOM     19  C   UNL     1       9.589   0.619  -0.512  0.00  0.00    +0.238 C 
BRANCH  19  20
ATOM     20  N   UNL     1      10.793   0.086   0.131  0.00  0.00    -0.213 N 
ATOM     21  C   UNL     1      11.195   0.413   1.377  0.00  0.00    +0.247 C 
ATOM     22  O   UNL     1      10.652   1.174   2.148  0.00  0.00    -0.273 OA
ATOM     23  C   UNL     1      12.466  -0.372   1.609  0.00  0.00    +0.115 C 
ATOM     24  C   UNL     1      13.635   0.575   1.855  0.00  0.00    +0.035 C 
ATOM     25  C   UNL     1      14.918  -0.236   2.051  0.00  0.00    +0.003 C 
ATOM     26  C   UNL     1      14.746  -1.181   3.242  0.00  0.00    +0.000 C 
ATOM     27  C   UNL     1      13.584  -2.139   2.972  0.00  0.00    +0.006 C 
ATOM     28  C   UNL     1      12.296  -1.335   2.779  0.00  0.00    +0.018 C 
ATOM     29  C   UNL     1      11.137  -2.290   2.489  0.00  0.00    +0.010 C 
ATOM     30  N   UNL     1      12.661  -1.115   0.357  0.00  0.00    -0.285 N 
ATOM     31  C   UNL     1      11.632  -0.782  -0.447  0.00  0.00    +0.310 C 
ATOM     32  O   UNL     1      11.483  -1.222  -1.570  0.00  0.00    -0.252 OA
ATOM     33  H   UNL     1      13.386  -1.724   0.150  0.00  0.00    +0.151 HD
ENDBRANCH  19  20
ENDBRANCH   1  19
TORSDOF 6
