REMARK  Name = ZINC39710593
REMARK  10 active torsions:
REMARK  status: ('A' for Active; 'I' for Inactive)
REMARK    1  A    between atoms: C_1  and  C_2
REMARK    2  A    between atoms: C_7  and  C_14
REMARK    3  A    between atoms: C_14  and  C_16
REMARK    4  A    between atoms: C_14  and  N_25
REMARK    5  A    between atoms: N_20  and  C_21
REMARK    6  A    between atoms: C_21  and  C_22
REMARK    7  A    between atoms: C_22  and  O_23
REMARK    8  A    between atoms: O_23  and  C_24
REMARK    9  A    between atoms: N_28  and  C_31
REMARK   10  A    between atoms: C_36  and  C_37
REMARK                            x       y       z     vdW  Elec       q    Type
REMARK                         _______ _______ _______ _____ _____    ______ ____
ROOT
ATOM      1  C   UNL     1       1.325  -5.759   1.300  0.00  0.00    +0.142 C 
ENDROOT
BRANCH   1   8
ATOM      2  C   UNL     1      -4.634  -7.143  -3.034  0.00  0.00    +0.044 C 
ATOM      3  C   UNL     1      -3.683  -6.898  -1.891  0.00  0.00    -0.049 A 
ATOM      4  C   UNL     1      -3.778  -7.705  -0.756  0.00  0.00    +0.004 A 
ATOM      5  C   UNL     1      -2.949  -7.532   0.305  0.00  0.00    +0.010 A 
ATOM      6  C   UNL     1      -1.939  -6.475   0.247  0.00  0.00    -0.007 A 
ATOM      7  C   UNL     1      -1.085  -6.266   1.289  0.00  0.00    -0.003 C 
ATOM      8  C   UNL     1      -0.070  -5.149   1.142  0.00  0.00    +0.123 C 
ATOM      9  C   UNL     1      -0.087  -4.360  -0.147  0.00  0.00    +0.226 C 
ATOM     10  O   UNL     1       0.706  -3.453  -0.318  0.00  0.00    -0.275 OA
ATOM     11  N   UNL     1      -0.967  -4.659  -1.088  0.00  0.00    -0.284 N 
ATOM     12  C   UNL     1      -1.861  -5.639  -0.963  0.00  0.00    +0.041 A 
ATOM     13  C   UNL     1      -2.764  -5.904  -2.009  0.00  0.00    +0.027 A 
ATOM     14  H   UNL     1      -0.961  -4.140  -1.907  0.00  0.00    +0.155 HD
ENDBRANCH   1   8
BRANCH   1  15
ATOM     15  N   UNL     1       1.441  -6.380   2.626  0.00  0.00    -0.289 NA
ATOM     16  C   UNL     1       1.329  -5.374   3.690  0.00  0.00    +0.104 C 
ATOM     17  C   UNL     1       1.272  -6.078   5.050  0.00  0.00    +0.120 C 
ATOM     18  N   UNL     1       2.433  -6.973   5.161  0.00  0.00    -0.327 N 
ATOM     19  C   UNL     1       2.691  -7.919   4.064  0.00  0.00    +0.120 C 
ATOM     20  C   UNL     1       2.691  -7.143   2.743  0.00  0.00    +0.104 C 
BRANCH  18  21
ATOM     21  C   UNL     1       3.270  -6.927   6.279  0.00  0.00    +0.034 A 
ATOM     22  C   UNL     1       3.004  -7.730   7.381  0.00  0.00    +0.043 A 
ATOM     23  C   UNL     1       3.834  -7.682   8.485  0.00  0.00    +0.043 A 
ATOM     24  C   UNL     1       4.929  -6.835   8.492  0.00  0.00    +0.020 A 
ATOM     25  C   UNL     1       5.196  -6.035   7.397  0.00  0.00    +0.006 A 
ATOM     26  C   UNL     1       4.373  -6.083   6.288  0.00  0.00    -0.029 A 
ATOM     27  C   UNL     1       4.669  -5.216   5.092  0.00  0.00    +0.045 C 
ATOM     28 CL   UNL     1       3.503  -8.684   9.863  0.00  0.00    -0.083 Cl
ENDBRANCH  18  21
ENDBRANCH   1  15
BRANCH   1  29
ATOM     29  C   UNL     1       1.539  -6.804   0.235  0.00  0.00    +0.170 A 
ATOM     30  N   UNL     1       1.016  -8.006   0.202  0.00  0.00    -0.112 NA
ATOM     31  N   UNL     1       1.439  -8.593  -0.864  0.00  0.00    -0.023 NA
ATOM     32  N   UNL     1       2.217  -7.798  -1.512  0.00  0.00    -0.044 NA
ATOM     33  N   UNL     1       2.300  -6.683  -0.868  0.00  0.00    -0.225 N 
BRANCH  33  34
ATOM     34  C   UNL     1       3.079  -5.506  -1.263  0.00  0.00    +0.175 C 
BRANCH  34  35
ATOM     35  C   UNL     1       4.487  -5.606  -0.673  0.00  0.00    +0.183 C 
BRANCH  35  36
ATOM     36  O   UNL     1       5.247  -4.458  -1.058  0.00  0.00    -0.381 OA
ATOM     37  C   UNL     1       6.585  -4.452  -0.556  0.00  0.00    +0.194 C 
ENDBRANCH  35  36
ENDBRANCH  34  35
ENDBRANCH  33  34
ENDBRANCH   1  29
TORSDOF 7
