REMARK  Name = ZINC00076419
REMARK  4 active torsions:
REMARK  status: ('A' for Active; 'I' for Inactive)
REMARK    1  A    between atoms: C_3  and  C_6
REMARK    2  A    between atoms: C_9  and  C_20
REMARK    3  A    between atoms: C_15  and  N_19
REMARK    4  A    between atoms: C_16  and  C_17
REMARK                            x       y       z     vdW  Elec       q    Type
REMARK                         _______ _______ _______ _____ _____    ______ ____
ROOT
ATOM      1  C   UNL     1       3.761   1.845  -0.024  0.00  0.00    +0.108 C 
ATOM      2  C   UNL     1       4.495   1.331   1.187  0.00  0.00    +0.059 A 
ATOM      3  C   UNL     1       4.362   1.702   2.518  0.00  0.00    +0.173 A 
ATOM      4  N   UNL     1       5.205   0.987   3.226  0.00  0.00    -0.167 NA
ATOM      5  N   UNL     1       5.904   0.136   2.356  0.00  0.00    -0.246 N 
ATOM      6  H   UNL     1       6.589  -0.503   2.610  0.00  0.00    +0.192 HD
ATOM      7  C   UNL     1       5.456   0.362   1.111  0.00  0.00    +0.223 A 
ATOM      8  O   UNL     1       5.826  -0.212  -0.061  0.00  0.00    -0.423 OA
ATOM      9  C   UNL     1       5.423   0.383  -1.202  0.00  0.00    +0.200 C 
ATOM     10  C   UNL     1       4.472   1.343  -1.256  0.00  0.00    +0.099 C 
ENDROOT
BRANCH   1  13
ATOM     11  C   UNL     1      -0.016   1.351   0.009  0.00  0.00    +0.008 A 
ATOM     12  C   UNL     1       1.183   2.038   0.002  0.00  0.00    +0.012 A 
ATOM     13  C   UNL     1       2.343   1.336  -0.013  0.00  0.00    +0.003 A 
ATOM     14  S   UNL     1       1.754  -0.349  -0.017  0.00  0.00    -0.101 S 
ATOM     15  C   UNL     1       0.002  -0.004   0.002  0.00  0.00    +0.045 A 
ENDBRANCH   1  13
BRANCH   3  16
ATOM     16  C   UNL     1       3.415   2.743   3.057  0.00  0.00    +0.436 C 
ATOM     17  F   UNL     1       2.198   2.138   3.389  0.00  0.00    -0.164 F 
ATOM     18  F   UNL     1       3.970   3.332   4.198  0.00  0.00    -0.164 F 
ATOM     19  F   UNL     1       3.199   3.724   2.084  0.00  0.00    -0.164 F 
ENDBRANCH   3  16
BRANCH   9  20
ATOM     20  N   UNL     1       6.010  -0.011  -2.379  0.00  0.00    -0.328 N 
ATOM     21  H   UNL     1       6.694  -0.698  -2.373  0.00  0.00    +0.145 HD
ATOM     22  H   UNL     1       5.741   0.398  -3.216  0.00  0.00    +0.145 HD
ENDBRANCH   9  20
BRANCH  10  23
ATOM     23  C   UNL     1       4.129   1.905  -2.528  0.00  0.00    +0.101 C 
ATOM     24  N   UNL     1       3.857   2.351  -3.536  0.00  0.00    -0.191 NA
ENDBRANCH  10  23
TORSDOF 4
