REMARK  Name = ZINC39708626
REMARK  10 active torsions:
REMARK  status: ('A' for Active; 'I' for Inactive)
REMARK    1  A    between atoms: C_1  and  N_2
REMARK    2  A    between atoms: C_8  and  O_9
REMARK    3  A    between atoms: O_9  and  C_10
REMARK    4  A    between atoms: C_13  and  C_18
REMARK    5  A    between atoms: C_15  and  O_16
REMARK    6  A    between atoms: O_16  and  C_17
REMARK    7  A    between atoms: C_19  and  C_20
REMARK    8  A    between atoms: C_19  and  C_22
REMARK    9  A    between atoms: N_31  and  C_38
REMARK   10  A    between atoms: N_34  and  C_37
REMARK                            x       y       z     vdW  Elec       q    Type
REMARK                         _______ _______ _______ _____ _____    ______ ____
ROOT
ATOM      1  C   UNL     1       3.168  -1.613   0.345  0.00  0.00    +0.173 A 
ATOM      2  C   UNL     1       2.971  -2.872   0.897  0.00  0.00    +0.051 A 
ATOM      3  C   UNL     1       3.922  -3.856   0.735  0.00  0.00    +0.012 A 
ATOM      4  C   UNL     1       5.090  -3.587   0.012  0.00  0.00    -0.020 A 
ATOM      5  C   UNL     1       5.287  -2.318  -0.545  0.00  0.00    +0.057 A 
ATOM      6  C   UNL     1       4.326  -1.340  -0.381  0.00  0.00    +0.163 A 
ENDROOT
BRANCH   6   7
ATOM      7  O   UNL     1       4.511  -0.107  -0.925  0.00  0.00    -0.491 OA
ATOM      8  C   UNL     1       5.721   0.104  -1.657  0.00  0.00    +0.277 C 
ENDBRANCH   6   7
BRANCH   4   9
ATOM      9  C   UNL     1       6.106  -4.635  -0.163  0.00  0.00    +0.026 C 
ATOM     10  C   UNL     1       5.729  -5.920  -0.330  0.00  0.00    +0.072 C 
BRANCH  10  11
ATOM     11  C   UNL     1       6.766  -7.014  -0.340  0.00  0.00    +0.216 C 
ATOM     12  N   UNL     1       6.683  -7.776  -1.592  0.00  0.00    -0.359 N 
ATOM     13  C   UNL     1       6.407  -9.009  -1.282  0.00  0.00    +0.060 A 
ATOM     14  C   UNL     1       6.203 -10.220  -2.088  0.00  0.00    +0.027 A 
ATOM     15  C   UNL     1       5.922 -11.388  -1.475  0.00  0.00    +0.002 A 
ATOM     16  C   UNL     1       5.811 -11.503  -0.078  0.00  0.00    +0.002 A 
ATOM     17  C   UNL     1       5.979 -10.455   0.753  0.00  0.00    +0.027 A 
ATOM     18  C   UNL     1       6.290  -9.131   0.197  0.00  0.00    +0.060 A 
ATOM     19  N   UNL     1       6.500  -7.969   0.744  0.00  0.00    -0.359 N 
ATOM     20  H   UNL     1       6.811  -7.424  -2.487  0.00  0.00    +0.162 HD
ATOM     21  H   UNL     1       6.483  -7.770   1.693  0.00  0.00    +0.162 HD
ENDBRANCH  10  11
BRANCH  10  22
ATOM     22  C   UNL     1       4.345  -6.244  -0.499  0.00  0.00    +0.099 C 
ATOM     23  N   UNL     1       3.246  -6.500  -0.633  0.00  0.00    -0.191 NA
ENDBRANCH  10  22
ENDBRANCH   4   9
BRANCH   1  24
ATOM     24  O   UNL     1       2.226  -0.647   0.509  0.00  0.00    -0.423 OA
BRANCH  24  30
ATOM     25  C   UNL     1      -0.471   0.891   0.711  0.00  0.00    +0.134 C 
ATOM     26  N   UNL     1       0.319   0.497  -0.458  0.00  0.00    -0.273 N 
ATOM     27  C   UNL     1       0.182   0.944  -1.843  0.00  0.00    +0.206 C 
ATOM     28  C   UNL     1       0.413  -0.443  -2.522  0.00  0.00    +0.229 C 
ATOM     29  N   UNL     1       1.495  -0.958  -1.715  0.00  0.00    -0.211 NA
ATOM     30  C   UNL     1       1.393  -0.393  -0.524  0.00  0.00    +0.288 C 
ATOM     31  N   UNL     1       0.532  -0.200  -3.934  0.00  0.00    -0.264 N 
ATOM     32  C   UNL     1      -0.409   0.633  -4.466  0.00  0.00    +0.312 C 
ATOM     33  O   UNL     1      -0.415   0.833  -5.665  0.00  0.00    -0.252 OA
ATOM     34  N   UNL     1      -1.333   1.239  -3.693  0.00  0.00    -0.227 N 
ATOM     35  C   UNL     1      -1.143   1.419  -2.337  0.00  0.00    +0.247 C 
ATOM     36  O   UNL     1      -1.970   1.921  -1.606  0.00  0.00    -0.273 OA
ATOM     37  C   UNL     1      -2.571   1.726  -4.306  0.00  0.00    +0.143 C 
ATOM     38  C   UNL     1       1.590  -0.805  -4.746  0.00  0.00    +0.136 C 
ENDBRANCH  24  30
ENDBRANCH   1  24
TORSDOF 6
