REMARK  Name = ZINC09125982
REMARK  7 active torsions:
REMARK  status: ('A' for Active; 'I' for Inactive)
REMARK    1  A    between atoms: C_1  and  C_2
REMARK    2  A    between atoms: C_2  and  C_4
REMARK    3  A    between atoms: C_2  and  N_61
REMARK    4  A    between atoms: C_7  and  S_16
REMARK    5  A    between atoms: N_8  and  C_9
REMARK    6  A    between atoms: S_16  and  C_17
REMARK    7  A    between atoms: C_17  and  C_18
REMARK                            x       y       z     vdW  Elec       q    Type
REMARK                         _______ _______ _______ _____ _____    ______ ____
ROOT
ATOM      1  C   UNL     1      -0.723   1.951   1.250  0.00  0.00    +0.125 A 
ATOM      2  N   UNL     1      -1.843   1.490   1.732  0.00  0.00    -0.135 NA
ATOM      3  N   UNL     1      -2.161   2.131   2.800  0.00  0.00    -0.122 NA
ATOM      4  C   UNL     1      -1.255   3.044   3.061  0.00  0.00    +0.197 A 
ATOM      5  N   UNL     1      -0.303   2.954   2.082  0.00  0.00    -0.275 N 
ENDROOT
BRANCH   5   6
ATOM      6  C   UNL     1       0.858   3.731   1.955  0.00  0.00    +0.050 A 
ATOM      7  C   UNL     1       2.107   3.137   2.073  0.00  0.00    +0.028 A 
ATOM      8  C   UNL     1       3.249   3.903   1.943  0.00  0.00    +0.022 A 
ATOM      9  C   UNL     1       3.149   5.262   1.706  0.00  0.00    +0.041 A 
ATOM     10  C   UNL     1       1.905   5.857   1.593  0.00  0.00    +0.022 A 
ATOM     11  C   UNL     1       0.760   5.095   1.717  0.00  0.00    +0.028 A 
ATOM     12 CL   UNL     1       4.587   6.223   1.551  0.00  0.00    -0.084 Cl
ENDBRANCH   5   6
BRANCH   1  14
ATOM     13  C   UNL     1      -0.758   1.972  -1.229  0.00  0.00    -0.005 C 
ATOM     14  C   UNL     1      -0.018   1.465   0.010  0.00  0.00    -0.002 C 
BRANCH  14  20
ATOM     15  C   UNL     1       0.617  -0.529   1.228  0.00  0.00    -0.078 C 
ATOM     16  C   UNL     1       0.490  -2.054   1.252  0.00  0.00    -0.019 C 
ATOM     17  C   UNL     1       1.185  -2.638   0.019  0.00  0.00    -0.004 C 
ATOM     18  C   UNL     1       0.558  -2.039  -1.243  0.00  0.00    -0.019 C 
ATOM     19  C   UNL     1       0.683  -0.515  -1.195  0.00  0.00    -0.078 C 
ATOM     20  N   UNL     1      -0.027  -0.013   0.001  0.00  0.00    +0.386 N 
ATOM     21  H   UNL     1      -0.999  -0.340  -0.027  0.00  0.00    -0.081 HD
ENDBRANCH  14  20
ENDBRANCH   1  14
BRANCH   4  22
ATOM     22  S   UNL     1      -1.259   4.167   4.419  0.00  0.00    -0.076 S 
BRANCH  22  23
ATOM     23  C   UNL     1      -2.794   3.666   5.237  0.00  0.00    +0.173 C 
BRANCH  23  24
ATOM     24  C   UNL     1      -3.011   4.515   6.462  0.00  0.00    +0.230 C 
ATOM     25  O   UNL     1      -2.207   5.375   6.754  0.00  0.00    -0.274 OA
ATOM     26  N   UNL     1      -4.098   4.320   7.234  0.00  0.00    -0.270 N 
ATOM     27  C   UNL     1      -4.413   5.076   8.449  0.00  0.00    +0.118 C 
ATOM     28  C   UNL     1      -5.739   4.487   8.958  0.00  0.00    +0.056 C 
ATOM     29  C   UNL     1      -6.079   3.400   7.964  0.00  0.00    -0.024 A 
ATOM     30  C   UNL     1      -5.088   3.361   6.996  0.00  0.00    +0.040 A 
ATOM     31  C   UNL     1      -5.186   2.428   5.963  0.00  0.00    +0.024 A 
ATOM     32  C   UNL     1      -6.257   1.560   5.908  0.00  0.00    +0.002 A 
ATOM     33  C   UNL     1      -7.240   1.608   6.878  0.00  0.00    +0.000 A 
ATOM     34  C   UNL     1      -7.150   2.528   7.906  0.00  0.00    +0.005 A 
ENDBRANCH  23  24
ENDBRANCH  22  23
ENDBRANCH   4  22
TORSDOF 6
