REMARK  Name = ZINC22459046
REMARK  7 active torsions:
REMARK  status: ('A' for Active; 'I' for Inactive)
REMARK    1  A    between atoms: C_1  and  C_2
REMARK    2  A    between atoms: C_8  and  C_10
REMARK    3  A    between atoms: C_10  and  C_12
REMARK    4  A    between atoms: C_10  and  N_17
REMARK    5  A    between atoms: N_20  and  C_23
REMARK    6  A    between atoms: C_23  and  C_24
REMARK    7  A    between atoms: C_24  and  O_25
REMARK                            x       y       z     vdW  Elec       q    Type
REMARK                         _______ _______ _______ _____ _____    ______ ____
ROOT
ATOM      1  C   UNL     1      -1.946   3.024  -2.510  0.00  0.00    +0.042 C 
ENDROOT
BRANCH   1   9
ATOM      2  C   UNL     1      -3.366  10.323  -3.090  0.00  0.00    +0.090 C 
ATOM      3  C   UNL     1      -2.925   8.890  -2.941  0.00  0.00    +0.150 A 
ATOM      4  N   UNL     1      -1.687   8.489  -2.657  0.00  0.00    -0.205 NA
ATOM      5  C   UNL     1      -1.658   7.186  -2.602  0.00  0.00    +0.199 A 
ATOM      6  N   UNL     1      -2.900   6.689  -2.853  0.00  0.00    -0.170 N 
ATOM      7  N   UNL     1      -3.697   7.844  -3.069  0.00  0.00    -0.147 NA
ATOM      8  C   UNL     1      -3.047   5.323  -2.840  0.00  0.00    +0.282 A 
ATOM      9  C   UNL     1      -2.003   4.528  -2.578  0.00  0.00    +0.053 A 
ATOM     10  S   UNL     1      -0.692   5.718  -2.338  0.00  0.00    -0.050 S 
ATOM     11  O   UNL     1      -4.266   4.774  -3.092  0.00  0.00    -0.265 OA
ENDBRANCH   1   9
BRANCH   1  12
ATOM     12  N   UNL     1      -1.180   2.616  -1.325  0.00  0.00    +0.391 N 
ATOM     13  C   UNL     1      -1.204   1.156  -1.159  0.00  0.00    -0.062 C 
ATOM     14  C   UNL     1      -0.331   0.766   0.036  0.00  0.00    +0.066 C 
ATOM     15  N   UNL     1      -0.830   1.439   1.244  0.00  0.00    -0.304 NA
ATOM     16  C   UNL     1      -0.806   2.899   1.078  0.00  0.00    +0.066 C 
ATOM     17  C   UNL     1      -1.679   3.288  -0.117  0.00  0.00    -0.062 C 
ATOM     18  H   UNL     1      -0.135   2.924  -1.477  0.00  0.00    -0.080 HD
BRANCH  15  19
ATOM     19  C   UNL     1      -0.062   1.031   2.429  0.00  0.00    +0.112 C 
BRANCH  19  20
ATOM     20  C   UNL     1      -0.548   1.819   3.647  0.00  0.00    +0.171 C 
BRANCH  20  21
ATOM     21  O   UNL     1      -1.919   1.508   3.900  0.00  0.00    -0.394 OA
ATOM     22  H   UNL     1      -2.444   1.982   4.742  0.00  0.00    +0.209 HD
ENDBRANCH  20  21
ENDBRANCH  19  20
ENDBRANCH  15  19
ENDBRANCH   1  12
BRANCH   1  23
ATOM     23  C   UNL     1      -1.277   2.489  -3.749  0.00  0.00    +0.096 A 
ATOM     24  C   UNL     1      -1.905   1.975  -4.823  0.00  0.00    +0.043 A 
ATOM     25  C   UNL     1      -0.900   1.600  -5.744  0.00  0.00    +0.041 A 
ATOM     26  C   UNL     1       0.282   1.907  -5.178  0.00  0.00    +0.195 A 
ATOM     27  O   UNL     1       0.047   2.450  -3.973  0.00  0.00    -0.469 OA
ENDBRANCH   1  23
TORSDOF 6
