REMARK  Name = ZINC63996726
REMARK  8 active torsions:
REMARK  status: ('A' for Active; 'I' for Inactive)
REMARK    1  A    between atoms: C_1  and  C_2
REMARK    2  A    between atoms: C_2  and  C_3
REMARK    3  A    between atoms: C_2  and  N_4
REMARK    4  A    between atoms: N_4  and  C_5
REMARK    5  A    between atoms: C_11  and  C_13
REMARK    6  A    between atoms: C_13  and  N_14
REMARK    7  A    between atoms: C_17  and  C_22
REMARK    8  A    between atoms: C_22  and  C_23
REMARK                            x       y       z     vdW  Elec       q    Type
REMARK                         _______ _______ _______ _____ _____    ______ ____
ROOT
ATOM      1  N   UNL     1      -2.900   0.803   3.042  0.00  0.00    -0.216 N 
ATOM      2  C   UNL     1      -3.786   1.819   3.020  0.00  0.00    +0.244 C 
ATOM      3  O   UNL     1      -3.815   2.748   2.241  0.00  0.00    -0.273 OA
ATOM      4  C   UNL     1      -4.739   1.557   4.169  0.00  0.00    +0.165 C 
ATOM      5  N   UNL     1      -4.232   0.307   4.762  0.00  0.00    -0.287 N 
ATOM      6  C   UNL     1      -3.161  -0.057   4.033  0.00  0.00    +0.310 C 
ATOM      7  O   UNL     1      -2.503  -1.055   4.253  0.00  0.00    -0.252 OA
ATOM      8  H   UNL     1      -4.599  -0.162   5.527  0.00  0.00    +0.151 HD
ENDROOT
BRANCH   1   9
ATOM      9  C   UNL     1      -1.792   0.656   2.095  0.00  0.00    +0.213 C 
BRANCH   9  11
ATOM     10  N   UNL     1      -1.376  -0.479  -0.062  0.00  0.00    -0.295 N 
ATOM     11  C   UNL     1      -2.254  -0.140   0.902  0.00  0.00    +0.234 C 
ATOM     12  O   UNL     1      -3.416  -0.475   0.809  0.00  0.00    -0.274 OA
BRANCH  10  13
ATOM     13  C   UNL     1      -1.796  -1.350  -1.163  0.00  0.00    +0.076 C 
ATOM     14  C   UNL     1      -2.945  -0.688  -1.926  0.00  0.00    +0.022 C 
ATOM     15  C   UNL     1      -3.385  -1.598  -3.075  0.00  0.00    +0.002 C 
ATOM     16  C   UNL     1      -3.853  -2.941  -2.512  0.00  0.00    +0.000 C 
ATOM     17  C   UNL     1      -2.704  -3.603  -1.749  0.00  0.00    +0.002 C 
ATOM     18  C   UNL     1      -2.264  -2.693  -0.600  0.00  0.00    +0.022 C 
ENDBRANCH  10  13
BRANCH  10  20
ATOM     19  C   UNL     1       0.970  -1.157   0.085  0.00  0.00    +0.028 C 
ATOM     20  C   UNL     1      -0.000   0.022  -0.010  0.00  0.00    +0.070 C 
ATOM     21  C   UNL     1       0.298   0.827  -1.277  0.00  0.00    +0.028 C 
ENDBRANCH  10  20
ENDBRANCH   9  11
ENDBRANCH   1   9
BRANCH   4  22
ATOM     22  C   UNL     1      -6.167   1.371   3.653  0.00  0.00    +0.065 C 
BRANCH  22  23
ATOM     23  C   UNL     1      -7.110   1.236   4.821  0.00  0.00    -0.039 C 
ATOM     24  C   UNL     1      -7.837   2.220   5.398  0.00  0.00    -0.001 A 
ATOM     25  C   UNL     1      -7.963   3.656   5.121  0.00  0.00    +0.010 A 
ATOM     26  C   UNL     1      -8.790   4.402   5.888  0.00  0.00    +0.001 A 
ATOM     27  C   UNL     1      -9.528   3.839   6.939  0.00  0.00    +0.002 A 
ATOM     28  C   UNL     1      -9.465   2.528   7.254  0.00  0.00    +0.026 A 
ATOM     29  C   UNL     1      -8.627   1.650   6.512  0.00  0.00    +0.043 A 
ATOM     30  N   UNL     1      -8.397   0.364   6.621  0.00  0.00    -0.380 N 
ATOM     31  C   UNL     1      -7.439  -0.029   5.582  0.00  0.00    +0.144 C 
ATOM     32  H   UNL     1      -8.797  -0.229   7.276  0.00  0.00    +0.160 HD
ENDBRANCH  22  23
ENDBRANCH   4  22
TORSDOF 6
