REMARK  Name = ZINC39324592
REMARK  6 active torsions:
REMARK  status: ('A' for Active; 'I' for Inactive)
REMARK    1  A    between atoms: C_1  and  C_2
REMARK    2  A    between atoms: C_4  and  C_16
REMARK    3  A    between atoms: C_6  and  C_14
REMARK    4  A    between atoms: C_7  and  N_13
REMARK    5  A    between atoms: C_20  and  O_22
REMARK    6  A    between atoms: O_22  and  C_23
REMARK                            x       y       z     vdW  Elec       q    Type
REMARK                         _______ _______ _______ _____ _____    ______ ____
ROOT
ATOM      1  C   UNL     1       0.515   2.829  -0.202  0.00  0.00    +0.067 C 
ATOM      2  C   UNL     1       0.956   1.402  -0.402  0.00  0.00    +0.066 C 
ATOM      3  C   UNL     1       0.147   0.378  -0.526  0.00  0.00    +0.030 C 
ATOM      4  C   UNL     1      -1.342   0.210  -0.387  0.00  0.00    +0.098 C 
ATOM      5  C   UNL     1      -1.536  -1.088   0.374  0.00  0.00    +0.097 C 
ATOM      6  C   UNL     1      -0.507  -1.923   0.625  0.00  0.00    +0.195 C 
ATOM      7  O   UNL     1       0.782  -1.736   0.288  0.00  0.00    -0.448 OA
ATOM      8  C   UNL     1       1.059  -0.823  -0.778  0.00  0.00    +0.343 C 
ATOM      9  N   UNL     1       2.392  -0.223  -0.661  0.00  0.00    -0.138 NA
ATOM     10  N   UNL     1       2.248   0.994  -0.485  0.00  0.00    -0.155 NA
ENDROOT
BRANCH   4  11
ATOM     11  C   UNL     1      -1.926   1.364   0.387  0.00  0.00    -0.031 A 
ATOM     12  C   UNL     1      -1.502   1.613   1.679  0.00  0.00    +0.007 A 
ATOM     13  C   UNL     1      -2.036   2.671   2.393  0.00  0.00    +0.042 A 
ATOM     14  C   UNL     1      -2.995   3.482   1.815  0.00  0.00    +0.165 A 
ATOM     15  C   UNL     1      -3.422   3.232   0.516  0.00  0.00    +0.164 A 
ATOM     16  C   UNL     1      -2.880   2.174  -0.198  0.00  0.00    +0.053 A 
ATOM     17  F   UNL     1      -3.518   4.514   2.512  0.00  0.00    -0.202 F 
BRANCH  15  18
ATOM     18  O   UNL     1      -4.366   4.027  -0.055  0.00  0.00    -0.453 OA
BRANCH  18  19
ATOM     19  C   UNL     1      -4.754   3.744  -1.326  0.00  0.00    +0.129 A 
ATOM     20  C   UNL     1      -5.817   2.880  -1.551  0.00  0.00    +0.046 A 
ATOM     21  C   UNL     1      -6.210   2.593  -2.844  0.00  0.00    +0.004 A 
ATOM     22  C   UNL     1      -5.546   3.166  -3.913  0.00  0.00    +0.000 A 
ATOM     23  C   UNL     1      -4.487   4.027  -3.691  0.00  0.00    +0.004 A 
ATOM     24  C   UNL     1      -4.093   4.322  -2.400  0.00  0.00    +0.046 A 
ENDBRANCH  18  19
ENDBRANCH  15  18
ENDBRANCH   4  11
BRANCH   6  25
ATOM     25  N   UNL     1      -0.805  -3.083   1.296  0.00  0.00    -0.329 N 
ATOM     26  H   UNL     1      -1.719  -3.268   1.563  0.00  0.00    +0.145 HD
ATOM     27  H   UNL     1      -0.102  -3.719   1.502  0.00  0.00    +0.145 HD
ENDBRANCH   6  25
BRANCH   5  28
ATOM     28  C   UNL     1      -2.846  -1.435   0.837  0.00  0.00    +0.101 C 
ATOM     29  N   UNL     1      -3.885  -1.711   1.205  0.00  0.00    -0.191 NA
ENDBRANCH   5  28
TORSDOF 5
