REMARK  Name = ZINC40795391
REMARK  3 active torsions:
REMARK  status: ('A' for Active; 'I' for Inactive)
REMARK    1  A    between atoms: C_1  and  C_2
REMARK    2  A    between atoms: C_2  and  C_13
REMARK    3  A    between atoms: N_15  and  C_16
REMARK                            x       y       z     vdW  Elec       q    Type
REMARK                         _______ _______ _______ _____ _____    ______ ____
ROOT
ATOM      1  C   UNL     1      -0.015   1.542  -0.007  0.00  0.00    +0.043 C 
ATOM      2  C   UNL     1       0.000   0.012  -0.006  0.00  0.00    +0.170 C 
ATOM      3  C   UNL     1      -1.413  -0.508   0.030  0.00  0.00    +0.242 C 
ATOM      4  O   UNL     1      -2.306   0.219  -0.353  0.00  0.00    -0.273 OA
ATOM      5  N   UNL     1      -1.730  -1.725   0.460  0.00  0.00    -0.283 N 
ATOM      6  C   UNL     1      -0.869  -2.651   1.040  0.00  0.00    +0.047 A 
ATOM      7  C   UNL     1      -1.260  -3.985   1.119  0.00  0.00    +0.024 A 
ATOM      8  C   UNL     1      -0.419  -4.925   1.681  0.00  0.00    +0.002 A 
ATOM      9  C   UNL     1       0.820  -4.553   2.171  0.00  0.00    +0.001 A 
ATOM     10  C   UNL     1       1.220  -3.231   2.103  0.00  0.00    +0.016 A 
ATOM     11  C   UNL     1       0.378  -2.284   1.544  0.00  0.00    +0.031 A 
ATOM     12  S   UNL     1       0.873  -0.590   1.472  0.00  0.00    -0.098 S 
ATOM     13  H   UNL     1      -2.657  -1.995   0.358  0.00  0.00    +0.155 HD
ENDROOT
BRANCH   2  14
ATOM     14  C   UNL     1       0.697  -0.489  -1.245  0.00  0.00    +0.242 C 
ATOM     15  O   UNL     1       0.050  -0.955  -2.158  0.00  0.00    -0.273 OA
ATOM     16  N   UNL     1       2.040  -0.417  -1.338  0.00  0.00    -0.283 N 
ATOM     17  H   UNL     1       2.552   0.015  -0.636  0.00  0.00    +0.155 HD
BRANCH  16  18
ATOM     18  C   UNL     1       2.695  -0.967  -2.446  0.00  0.00    +0.052 A 
ATOM     19  C   UNL     1       2.097  -0.928  -3.698  0.00  0.00    +0.026 A 
ATOM     20  C   UNL     1       2.745  -1.471  -4.790  0.00  0.00    +0.022 A 
ATOM     21  C   UNL     1       3.990  -2.055  -4.638  0.00  0.00    +0.042 A 
ATOM     22  C   UNL     1       4.590  -2.096  -3.392  0.00  0.00    +0.041 A 
ATOM     23  C   UNL     1       3.948  -1.549  -2.296  0.00  0.00    +0.064 A 
ATOM     24 CL   UNL     1       4.704  -1.595  -0.734  0.00  0.00    -0.082 Cl
ATOM     25 CL   UNL     1       4.801  -2.737  -6.013  0.00  0.00    -0.083 Cl
ENDBRANCH  16  18
ENDBRANCH   2  14
TORSDOF 2
