REMARK  Name = ZINC32259740
REMARK  3 active torsions:
REMARK  status: ('A' for Active; 'I' for Inactive)
REMARK    1  A    between atoms: C_8  and  C_13
REMARK    2  A    between atoms: N_15  and  N_16
REMARK    3  A    between atoms: C_17  and  C_19
REMARK                            x       y       z     vdW  Elec       q    Type
REMARK                         _______ _______ _______ _____ _____    ______ ____
ROOT
ATOM      1  C   UNL     1      -6.440   3.187   2.199  0.00  0.00    +0.277 C 
ATOM      2  O   UNL     1      -6.967   2.467   1.374  0.00  0.00    -0.267 OA
ATOM      3  N   UNL     1      -5.100   3.177   2.344  0.00  0.00    -0.229 N 
ATOM      4  H   UNL     1      -4.623   3.828   3.091  0.00  0.00    +0.173 HD
ENDROOT
BRANCH   1  12
ATOM      5  C   UNL     1     -11.567   5.810   4.391  0.00  0.00    +0.001 A 
ATOM      6  C   UNL     1     -10.940   6.623   5.326  0.00  0.00    +0.001 A 
ATOM      7  C   UNL     1      -9.569   6.607   5.468  0.00  0.00    +0.014 A 
ATOM      8  C   UNL     1      -8.804   5.766   4.663  0.00  0.00    +0.046 A 
ATOM      9  C   UNL     1      -9.441   4.938   3.710  0.00  0.00    -0.011 A 
ATOM     10  C   UNL     1     -10.831   4.970   3.584  0.00  0.00    +0.009 A 
ATOM     11  C   UNL     1      -8.612   4.064   2.879  0.00  0.00    +0.039 A 
ATOM     12  C   UNL     1      -7.266   4.071   3.042  0.00  0.00    +0.106 A 
ATOM     13  N   UNL     1      -6.646   4.874   3.975  0.00  0.00    -0.318 N 
ATOM     14  H   UNL     1      -5.552   4.846   4.085  0.00  0.00    +0.169 HD
ATOM     15  C   UNL     1      -7.339   5.710   4.773  0.00  0.00    +0.257 A 
ATOM     16  O   UNL     1      -6.758   6.408   5.583  0.00  0.00    -0.267 OA
ENDBRANCH   1  12
BRANCH   3  17
ATOM     17  N   UNL     1      -4.315   2.337   1.544  0.00  0.00    -0.232 N 
ATOM     18  C   UNL     1      -2.975   2.327   1.689  0.00  0.00    +0.258 C 
ATOM     19  O   UNL     1      -2.449   3.045   2.512  0.00  0.00    -0.271 OA
ATOM     20  H   UNL     1      -4.792   1.685   0.797  0.00  0.00    +0.173 HD
BRANCH  18  21
ATOM     21  C   UNL     1      -2.131   1.423   0.827  0.00  0.00    +0.205 C 
ATOM     22  C   UNL     1      -2.230   1.847  -0.655  0.00  0.00    +0.043 C 
ATOM     23  C   UNL     1      -0.804   1.620  -1.206  0.00  0.00    +0.031 C 
ATOM     24  C   UNL     1      -0.013   1.086   0.008  0.00  0.00    +0.161 C 
ATOM     25  O   UNL     1      -0.731   1.573   1.163  0.00  0.00    -0.367 OA
ENDBRANCH  18  21
ENDBRANCH   3  17
TORSDOF 3
