REMARK  Name = ZINC01718687
REMARK  17 active torsions:
REMARK  status: ('A' for Active; 'I' for Inactive)
REMARK    1  A    between atoms: C_1  and  C_2
REMARK    2  A    between atoms: C_4  and  C_26
REMARK    3  A    between atoms: C_5  and  O_25
REMARK    4  A    between atoms: C_6  and  C_8
REMARK    5  A    between atoms: C_8  and  N_61
REMARK    6  A    between atoms: C_9  and  C_10
REMARK    7  A    between atoms: C_9  and  N_61
REMARK    8  A    between atoms: C_10  and  C_11
REMARK    9  A    between atoms: C_11  and  C_12
REMARK   10  A    between atoms: C_12  and  C_13
REMARK   11  A    between atoms: C_13  and  C_14
REMARK   12  A    between atoms: C_14  and  N_64
REMARK   13  A    between atoms: C_15  and  C_16
REMARK   14  A    between atoms: C_15  and  N_64
REMARK   15  A    between atoms: C_18  and  C_24
REMARK   16  A    between atoms: C_20  and  C_23
REMARK   17  A    between atoms: C_21  and  O_22
REMARK                            x       y       z     vdW  Elec       q    Type
REMARK                         _______ _______ _______ _____ _____    ______ ____
ROOT
ATOM      1  C   UNL     1       6.861   4.606   2.838  0.00  0.00    -0.002 C 
ENDROOT
BRANCH   1   2
ATOM      2  C   UNL     1       5.547   3.821   2.807  0.00  0.00    -0.019 C 
BRANCH   2   3
ATOM      3  C   UNL     1       5.256   3.373   1.373  0.00  0.00    -0.082 C 
BRANCH   3   4
ATOM      4  N   UNL     1       3.989   2.618   1.351  0.00  0.00    +0.382 N 
ATOM      5  H   UNL     1       4.072   1.798   1.963  0.00  0.00    -0.085 HD
ATOM      6  H   UNL     1       3.229   3.221   1.689  0.00  0.00    -0.085 HD
BRANCH   4   7
ATOM      7  C   UNL     1       3.682   2.172  -0.021  0.00  0.00    -0.043 C 
BRANCH   7  13
ATOM      8  C   UNL     1       1.226  -2.187  -0.022  0.00  0.00    +0.044 C 
ATOM      9  C   UNL     1       1.208  -0.680  -0.014  0.00  0.00    -0.050 A 
ATOM     10  C   UNL     1       0.002  -0.004   0.002  0.00  0.00    +0.010 A 
ATOM     11  C   UNL     1      -0.017   1.377   0.010  0.00  0.00    -0.009 A 
ATOM     12  C   UNL     1       1.176   2.086   0.002  0.00  0.00    +0.121 A 
ATOM     13  C   UNL     1       2.385   1.405  -0.013  0.00  0.00    -0.022 A 
ATOM     14  C   UNL     1       2.398   0.024  -0.021  0.00  0.00    +0.008 A 
ATOM     15  C   UNL     1      -1.331   2.113   0.020  0.00  0.00    +0.047 C 
BRANCH  12  16
ATOM     16  O   UNL     1       1.160   3.445   0.009  0.00  0.00    -0.506 OA
ATOM     17  H   UNL     1       1.164   3.834   0.894  0.00  0.00    +0.292 HD
ENDBRANCH  12  16
ENDBRANCH   7  13
ENDBRANCH   4   7
ENDBRANCH   3   4
ENDBRANCH   2   3
ENDBRANCH   1   2
BRANCH   1  18
ATOM     18  C   UNL     1       7.152   5.054   4.272  0.00  0.00    -0.002 C 
BRANCH  18  19
ATOM     19  C   UNL     1       8.466   5.838   4.304  0.00  0.00    -0.019 C 
BRANCH  19  20
ATOM     20  C   UNL     1       8.757   6.287   5.737  0.00  0.00    -0.082 C 
BRANCH  20  21
ATOM     21  N   UNL     1      10.024   7.042   5.759  0.00  0.00    +0.382 N 
ATOM     22  H   UNL     1       9.941   7.862   5.147  0.00  0.00    -0.085 HD
ATOM     23  H   UNL     1      10.783   6.439   5.421  0.00  0.00    -0.085 HD
BRANCH  21  24
ATOM     24  C   UNL     1      10.331   7.488   7.131  0.00  0.00    -0.043 C 
BRANCH  24  25
ATOM     25  C   UNL     1      11.628   8.255   7.123  0.00  0.00    -0.022 A 
ATOM     26  C   UNL     1      12.799   7.636   7.517  0.00  0.00    +0.008 A 
ATOM     27  C   UNL     1      13.990   8.339   7.509  0.00  0.00    -0.050 A 
ATOM     28  C   UNL     1      14.012   9.662   7.108  0.00  0.00    +0.010 A 
ATOM     29  C   UNL     1      12.844  10.285   6.714  0.00  0.00    -0.009 A 
ATOM     30  C   UNL     1      11.648   9.580   6.715  0.00  0.00    +0.121 A 
ATOM     31  C   UNL     1      12.868  11.727   6.277  0.00  0.00    +0.047 C 
ATOM     32  C   UNL     1      15.266   7.662   7.939  0.00  0.00    +0.044 C 
BRANCH  30  33
ATOM     33  O   UNL     1      10.499  10.189   6.321  0.00  0.00    -0.506 OA
ATOM     34  H   UNL     1      10.018  10.623   7.039  0.00  0.00    +0.292 HD
ENDBRANCH  30  33
ENDBRANCH  24  25
ENDBRANCH  21  24
ENDBRANCH  20  21
ENDBRANCH  19  20
ENDBRANCH  18  19
ENDBRANCH   1  18
TORSDOF 13
