REMARK  Name = ZINC29155261
REMARK  10 active torsions:
REMARK  status: ('A' for Active; 'I' for Inactive)
REMARK    1  A    between atoms: C_1  and  C_2
REMARK    2  A    between atoms: C_2  and  C_3
REMARK    3  A    between atoms: C_3  and  C_29
REMARK    4  A    between atoms: N_6  and  N_10
REMARK    5  A    between atoms: C_11  and  C_13
REMARK    6  A    between atoms: C_13  and  N_14
REMARK    7  A    between atoms: N_14  and  C_15
REMARK    8  A    between atoms: N_14  and  C_16
REMARK    9  A    between atoms: C_16  and  C_17
REMARK   10  A    between atoms: C_22  and  N_23
REMARK                            x       y       z     vdW  Elec       q    Type
REMARK                         _______ _______ _______ _____ _____    ______ ____
ROOT
ATOM      1  C   UNL     1      -5.118  -0.796   4.523  0.00  0.00    +0.020 C 
ENDROOT
BRANCH   1   3
ATOM      2  N   UNL     1      -3.211  -0.478   2.981  0.00  0.00    -0.225 N 
ATOM      3  C   UNL     1      -3.936  -0.011   4.016  0.00  0.00    +0.213 C 
ATOM      4  O   UNL     1      -3.638   1.042   4.539  0.00  0.00    -0.276 OA
ATOM      5  H   UNL     1      -3.481  -1.433   2.506  0.00  0.00    +0.173 HD
BRANCH   2   9
ATOM      6  C   UNL     1      -0.729   1.579   1.267  0.00  0.00    +0.111 C 
ATOM      7  C   UNL     1      -2.112   0.968   1.368  0.00  0.00    +0.263 C 
ATOM      8  O   UNL     1      -3.029   1.097   0.585  0.00  0.00    -0.271 OA
ATOM      9  N   UNL     1      -2.112   0.252   2.509  0.00  0.00    -0.137 N 
ATOM     10  C   UNL     1      -0.933   0.325   3.137  0.00  0.00    +0.326 C 
ATOM     11  O   UNL     1      -0.690  -0.237   4.187  0.00  0.00    -0.251 OA
ATOM     12  N   UNL     1      -0.045   1.091   2.477  0.00  0.00    -0.284 N 
ATOM     13  C   UNL     1      -0.013   1.086   0.008  0.00  0.00    +0.041 C 
ATOM     14  H   UNL     1       0.997   1.380   2.675  0.00  0.00    +0.151 HD
BRANCH   6  16
ATOM     15  C   UNL     1       0.603   3.693   1.227  0.00  0.00    +0.006 C 
ATOM     16  C   UNL     1      -0.810   3.107   1.274  0.00  0.00    +0.032 C 
ENDBRANCH   6  16
ENDBRANCH   2   9
ENDBRANCH   1   3
BRANCH   1  17
ATOM     17  N   UNL     1      -5.737  -0.080   5.647  0.00  0.00    +0.386 N 
ATOM     18  C   UNL     1      -4.830  -0.029   6.801  0.00  0.00    -0.095 C 
ATOM     19  H   UNL     1      -5.931   0.953   5.323  0.00  0.00    -0.081 HD
BRANCH  17  20
ATOM     20  C   UNL     1      -7.023  -0.687   6.014  0.00  0.00    -0.041 C 
BRANCH  20  21
ATOM     21  C   UNL     1      -7.739   0.207   6.993  0.00  0.00    -0.043 A 
ATOM     22  C   UNL     1      -7.704  -0.079   8.344  0.00  0.00    +0.003 A 
ATOM     23  C   UNL     1      -8.361   0.741   9.243  0.00  0.00    +0.000 A 
ATOM     24  C   UNL     1      -9.053   1.851   8.794  0.00  0.00    +0.002 A 
ATOM     25  C   UNL     1      -9.091   2.143   7.445  0.00  0.00    +0.023 A 
ATOM     26  C   UNL     1      -8.429   1.324   6.539  0.00  0.00    +0.031 A 
BRANCH  26  27
ATOM     27  N   UNL     1      -8.461   1.619   5.174  0.00  0.00    -0.330 N 
ATOM     28  C   UNL     1      -7.787   2.893   4.896  0.00  0.00    +0.105 C 
ATOM     29  C   UNL     1      -7.713   3.113   3.383  0.00  0.00    +0.019 C 
ATOM     30  C   UNL     1      -9.131   3.128   2.805  0.00  0.00    +0.003 C 
ATOM     31  C   UNL     1      -9.829   1.809   3.151  0.00  0.00    +0.019 C 
ATOM     32  C   UNL     1      -9.841   1.627   4.670  0.00  0.00    +0.105 C 
ENDBRANCH  26  27
ENDBRANCH  20  21
ENDBRANCH  17  20
ENDBRANCH   1  17
TORSDOF 7
