REMARK  Name = ZINC64348626
REMARK  7 active torsions:
REMARK  status: ('A' for Active; 'I' for Inactive)
REMARK    1  A    between atoms: C_1  and  O_2
REMARK    2  A    between atoms: O_2  and  C_3
REMARK    3  A    between atoms: C_6  and  C_9
REMARK    4  A    between atoms: C_9  and  C_10
REMARK    5  A    between atoms: C_10  and  N_11
REMARK    6  A    between atoms: C_31  and  C_33
REMARK    7  A    between atoms: C_37  and  N_39
REMARK                            x       y       z     vdW  Elec       q    Type
REMARK                         _______ _______ _______ _____ _____    ______ ____
ROOT
ATOM      1  N   UNL     1       4.482  -3.571  -5.191  0.00  0.00    -0.291 N 
ATOM      2  C   UNL     1       4.584  -5.019  -5.271  0.00  0.00    +0.203 C 
ATOM      3  C   UNL     1       5.314  -5.466  -6.494  0.00  0.00    +0.234 C 
ATOM      4  O   UNL     1       5.456  -6.659  -6.660  0.00  0.00    -0.274 OA
ATOM      5  N   UNL     1       5.823  -4.644  -7.420  0.00  0.00    -0.279 N 
ATOM      6  C   UNL     1       5.732  -3.192  -7.320  0.00  0.00    +0.167 C 
ATOM      7  C   UNL     1       4.989  -2.745  -6.104  0.00  0.00    +0.237 C 
ATOM      8  O   UNL     1       4.841  -1.553  -5.936  0.00  0.00    -0.274 OA
ATOM      9  C   UNL     1       7.143  -2.575  -7.326  0.00  0.00    +0.065 C 
ATOM     10  C   UNL     1       7.902  -3.250  -8.441  0.00  0.00    -0.034 C 
ATOM     11  C   UNL     1       8.605  -2.756  -9.452  0.00  0.00    -0.001 A 
ATOM     12  C   UNL     1       8.996  -1.378  -9.794  0.00  0.00    +0.010 A 
ATOM     13  C   UNL     1       9.713  -1.225 -10.938  0.00  0.00    +0.001 A 
ATOM     14  C   UNL     1      10.078  -2.291 -11.767  0.00  0.00    +0.002 A 
ATOM     15  C   UNL     1       9.769  -3.590 -11.525  0.00  0.00    +0.026 A 
ATOM     16  C   UNL     1       9.024  -3.879 -10.345  0.00  0.00    +0.043 A 
ATOM     17  N   UNL     1       8.619  -5.017  -9.864  0.00  0.00    -0.375 N 
ATOM     18  C   UNL     1       7.953  -4.767  -8.585  0.00  0.00    +0.131 C 
ATOM     19  C   UNL     1       6.502  -5.254  -8.586  0.00  0.00    +0.133 C 
ATOM     20  H   UNL     1       8.739  -5.885 -10.281  0.00  0.00    +0.160 HD
ENDROOT
BRANCH  19  21
ATOM     21  C   UNL     1       5.818  -4.822  -9.858  0.00  0.00    -0.023 A 
ATOM     22  C   UNL     1       5.726  -3.479 -10.172  0.00  0.00    +0.005 A 
ATOM     23  C   UNL     1       5.099  -3.083 -11.338  0.00  0.00    +0.003 A 
ATOM     24  C   UNL     1       4.565  -4.031 -12.192  0.00  0.00    +0.033 A 
ATOM     25  C   UNL     1       4.658  -5.374 -11.878  0.00  0.00    +0.127 A 
ATOM     26  C   UNL     1       5.289  -5.770 -10.713  0.00  0.00    +0.038 A 
BRANCH  25  27
ATOM     27  N   UNL     1       4.086  -6.388 -12.792  0.00  0.00    +0.056 N 
ATOM     28  O   UNL     1       3.537  -6.042 -13.812  0.00  0.00    -0.126 OA
ATOM     29  O   UNL     1       4.167  -7.563 -12.518  0.00  0.00    -0.126 OA
ENDBRANCH  25  27
ENDBRANCH  19  21
BRANCH   1  30
ATOM     30  C   UNL     1       3.778  -2.989  -4.045  0.00  0.00    +0.113 C 
BRANCH  30  31
ATOM     31  C   UNL     1       2.293  -2.839  -4.382  0.00  0.00    +0.054 C 
BRANCH  31  35
ATOM     32  C   UNL     1       0.240  -1.141  -1.040  0.00  0.00    +0.120 A 
ATOM     33  C   UNL     1       0.783  -0.316  -2.015  0.00  0.00    +0.046 A 
ATOM     34  C   UNL     1       1.446  -0.867  -3.094  0.00  0.00    +0.007 A 
ATOM     35  C   UNL     1       1.569  -2.240  -3.203  0.00  0.00    -0.046 A 
ATOM     36  C   UNL     1       1.029  -3.065  -2.234  0.00  0.00    +0.007 A 
ATOM     37  C   UNL     1       0.370  -2.518  -1.150  0.00  0.00    +0.046 A 
BRANCH  32  39
ATOM     38  C   UNL     1      -0.508   0.824   0.070  0.00  0.00    +0.277 C 
ATOM     39  O   UNL     1      -0.413  -0.601   0.022  0.00  0.00    -0.495 OA
ENDBRANCH  32  39
ENDBRANCH  31  35
ENDBRANCH  30  31
ENDBRANCH   1  30
TORSDOF 6
