REMARK  Name = ZINC08845379
REMARK  10 active torsions:
REMARK  status: ('A' for Active; 'I' for Inactive)
REMARK    1  A    between atoms: C_1  and  C_2
REMARK    2  A    between atoms: C_2  and  O_3
REMARK    3  A    between atoms: O_3  and  C_4
REMARK    4  A    between atoms: C_7  and  C_10
REMARK    5  A    between atoms: C_13  and  C_24
REMARK    6  A    between atoms: N_20  and  C_21
REMARK    7  A    between atoms: C_21  and  C_22
REMARK    8  A    between atoms: C_22  and  O_23
REMARK    9  A    between atoms: C_27  and  C_31
REMARK   10  A    between atoms: C_29  and  O_30
REMARK                            x       y       z     vdW  Elec       q    Type
REMARK                         _______ _______ _______ _____ _____    ______ ____
ROOT
ATOM      1  C   UNL     1       1.109  -6.040  -1.847  0.00  0.00    +0.141 C 
ATOM      2  C   UNL     1       0.074  -6.525  -2.825  0.00  0.00    +0.035 A 
ATOM      3  C   UNL     1      -1.243  -6.653  -3.134  0.00  0.00    +0.075 A 
ATOM      4  N   UNL     1      -1.302  -7.284  -4.343  0.00  0.00    -0.276 N 
ATOM      5  H   UNL     1      -2.119  -7.510  -4.814  0.00  0.00    +0.189 HD
ATOM      6  N   UNL     1      -0.114  -7.535  -4.765  0.00  0.00    -0.168 NA
ATOM      7  C   UNL     1       0.784  -7.105  -3.901  0.00  0.00    +0.153 A 
ATOM      8  C   UNL     1       2.224  -6.989  -3.608  0.00  0.00    +0.268 C 
ATOM      9  O   UNL     1       3.114  -7.390  -4.332  0.00  0.00    -0.268 OA
ATOM     10  N   UNL     1       2.415  -6.376  -2.425  0.00  0.00    -0.283 N 
ENDROOT
BRANCH   3  11
ATOM     11  C   UNL     1      -2.390  -6.198  -2.318  0.00  0.00    +0.043 A 
ATOM     12  C   UNL     1      -3.275  -7.128  -1.774  0.00  0.00    +0.034 A 
ATOM     13  C   UNL     1      -4.344  -6.697  -1.013  0.00  0.00    +0.045 A 
ATOM     14  C   UNL     1      -4.539  -5.344  -0.788  0.00  0.00    -0.029 A 
ATOM     15  C   UNL     1      -3.667  -4.415  -1.322  0.00  0.00    +0.050 A 
ATOM     16  C   UNL     1      -2.587  -4.833  -2.083  0.00  0.00    +0.126 A 
ATOM     17  C   UNL     1      -5.709  -4.884   0.044  0.00  0.00    +0.045 C 
ATOM     18 CL   UNL     1      -5.446  -7.854  -0.336  0.00  0.00    -0.083 Cl
BRANCH  16  19
ATOM     19  O   UNL     1      -1.727  -3.920  -2.604  0.00  0.00    -0.506 OA
ATOM     20  H   UNL     1      -1.975  -3.602  -3.483  0.00  0.00    +0.292 HD
ENDBRANCH  16  19
ENDBRANCH   3  11
BRANCH   1  24
ATOM     21  C   UNL     1       0.777  -1.810  -1.336  0.00  0.00    +0.121 A 
ATOM     22  C   UNL     1       0.243  -2.669  -0.386  0.00  0.00    +0.046 A 
ATOM     23  C   UNL     1       0.351  -4.036  -0.554  0.00  0.00    +0.009 A 
ATOM     24  C   UNL     1       0.992  -4.548  -1.667  0.00  0.00    -0.022 A 
ATOM     25  C   UNL     1       1.525  -3.694  -2.615  0.00  0.00    +0.009 A 
ATOM     26  C   UNL     1       1.414  -2.327  -2.455  0.00  0.00    +0.046 A 
BRANCH  21  27
ATOM     27  O   UNL     1       0.671  -0.465  -1.174  0.00  0.00    -0.492 OA
BRANCH  27  29
ATOM     28  C   UNL     1      -0.019   1.526   0.010  0.00  0.00    +0.048 C 
ATOM     29  C   UNL     1       0.002  -0.004   0.002  0.00  0.00    +0.225 C 
ENDBRANCH  27  29
ENDBRANCH  21  27
ENDBRANCH   1  24
BRANCH  10  30
ATOM     30  C   UNL     1       3.716  -6.090  -1.815  0.00  0.00    +0.137 C 
BRANCH  30  31
ATOM     31  C   UNL     1       4.135  -7.268  -0.933  0.00  0.00    +0.175 C 
BRANCH  31  32
ATOM     32  O   UNL     1       4.347  -8.422  -1.749  0.00  0.00    -0.393 OA
ATOM     33  H   UNL     1       4.616  -9.209  -1.255  0.00  0.00    +0.209 HD
ENDBRANCH  31  32
ENDBRANCH  30  31
ENDBRANCH  10  30
TORSDOF 8
