REMARK  Name = ZINC11854354
REMARK  6 active torsions:
REMARK  status: ('A' for Active; 'I' for Inactive)
REMARK    1  A    between atoms: C_1  and  C_2
REMARK    2  A    between atoms: C_11  and  N_20
REMARK    3  A    between atoms: C_13  and  C_15
REMARK    4  A    between atoms: C_21  and  C_23
REMARK    5  A    between atoms: C_23  and  O_24
REMARK    6  A    between atoms: O_24  and  C_25
REMARK                            x       y       z     vdW  Elec       q    Type
REMARK                         _______ _______ _______ _____ _____    ______ ____
ROOT
ATOM      1  C   UNL     1      -4.178  -1.509   0.009  0.00  0.00    +0.066 C 
ATOM      2  C   UNL     1      -3.933  -0.022   0.017  0.00  0.00    +0.047 A 
ATOM      3  C   UNL     1      -4.988   0.842   0.027  0.00  0.00    +0.093 A 
ATOM      4  C   UNL     1      -4.732   2.226   0.034  0.00  0.00    +0.253 A 
ATOM      5  O   UNL     1      -5.652   3.029   0.042  0.00  0.00    -0.268 OA
ATOM      6  N   UNL     1      -3.450   2.649   0.036  0.00  0.00    -0.291 N 
ATOM      7  H   UNL     1      -3.250   3.598   0.045  0.00  0.00    +0.172 HD
ATOM      8  C   UNL     1      -2.440   1.739   0.021  0.00  0.00    +0.234 A 
ATOM      9  N   UNL     1      -2.686   0.447   0.015  0.00  0.00    -0.217 NA
ATOM     10  N   UNL     1      -1.131   2.180   0.019  0.00  0.00    -0.185 N 
ATOM     11  C   UNL     1      -0.017   1.389   0.010  0.00  0.00    +0.132 A 
ATOM     12  C   UNL     1       1.068   2.204   0.004  0.00  0.00    +0.074 A 
ATOM     13  C   UNL     1       0.606   3.538   0.015  0.00  0.00    +0.102 A 
ATOM     14  N   UNL     1      -0.712   3.517   0.028  0.00  0.00    -0.162 NA
ENDROOT
BRANCH  13  15
ATOM     15  C   UNL     1       1.453   4.749   0.013  0.00  0.00    +0.039 A 
ATOM     16  C   UNL     1       1.077   6.065   0.024  0.00  0.00    +0.018 A 
ATOM     17  C   UNL     1       2.056   7.034   0.019  0.00  0.00    +0.008 A 
ATOM     18  C   UNL     1       3.360   6.656   0.004  0.00  0.00    +0.046 A 
ATOM     19  S   UNL     1       3.234   4.876   0.004  0.00  0.00    -0.095 S 
ENDBRANCH  13  15
BRANCH  11  20
ATOM     20  N   UNL     1       0.002  -0.004   0.002  0.00  0.00    -0.268 N 
ATOM     21  C   UNL     1       1.178  -0.662  -0.012  0.00  0.00    +0.244 C 
ATOM     22  O   UNL     1       2.220  -0.041  -0.018  0.00  0.00    -0.273 OA
ATOM     23  H   UNL     1      -0.831  -0.500   0.007  0.00  0.00    +0.156 HD
BRANCH  21  24
ATOM     24  C   UNL     1       1.199  -2.169  -0.021  0.00  0.00    +0.255 C 
BRANCH  24  25
ATOM     25  O   UNL     1       2.552  -2.627  -0.035  0.00  0.00    -0.374 OA
ATOM     26  C   UNL     1       2.684  -4.050  -0.044  0.00  0.00    +0.194 C 
ENDBRANCH  24  25
ENDBRANCH  21  24
ENDBRANCH  11  20
TORSDOF 4
