REMARK  Name = ZINC00672550
REMARK  4 active torsions:
REMARK  status: ('A' for Active; 'I' for Inactive)
REMARK    1  A    between atoms: C_3  and  N_7
REMARK    2  A    between atoms: C_8  and  C_10
REMARK    3  A    between atoms: C_15  and  C_28
REMARK    4  A    between atoms: C_18  and  C_21
REMARK                            x       y       z     vdW  Elec       q    Type
REMARK                         _______ _______ _______ _____ _____    ______ ____
ROOT
ATOM      1  C   UNL     1       6.045   1.977   0.167  0.00  0.00    +0.149 A 
ATOM      2  C   UNL     1       7.312   1.357   0.258  0.00  0.00    +0.078 A 
ATOM      3  C   UNL     1       8.238   2.333   0.333  0.00  0.00    +0.119 A 
ATOM      4  N   UNL     1       7.592   3.537   0.294  0.00  0.00    -0.238 N 
ATOM      5  N   UNL     1       6.225   3.286   0.183  0.00  0.00    -0.164 NA
ATOM      6  C   UNL     1       8.278   4.830   0.359  0.00  0.00    +0.215 C 
ATOM      7  C   UNL     1       9.679   4.620   0.946  0.00  0.00    +0.063 C 
ATOM      8  C   UNL     1      10.387   3.478   0.209  0.00  0.00    +0.104 C 
ATOM      9  N   UNL     1       9.628   2.232   0.435  0.00  0.00    -0.322 N 
ATOM     10  H   UNL     1      10.068   1.392   0.640  0.00  0.00    +0.148 HD
ENDROOT
BRANCH   8  11
ATOM     11  C   UNL     1      11.789   3.325   0.742  0.00  0.00    -0.027 A 
ATOM     12  C   UNL     1      12.007   2.642   1.925  0.00  0.00    +0.006 A 
ATOM     13  C   UNL     1      13.293   2.501   2.413  0.00  0.00    +0.015 A 
ATOM     14  C   UNL     1      14.360   3.042   1.720  0.00  0.00    +0.018 A 
ATOM     15  C   UNL     1      14.140   3.725   0.537  0.00  0.00    +0.015 A 
ATOM     16  C   UNL     1      12.855   3.861   0.046  0.00  0.00    +0.006 A 
ATOM     17 BR   UNL     1      16.118   2.850   2.388  0.00  0.00    -0.050 Br
ENDBRANCH   8  11
BRANCH   1  19
ATOM     18  N   UNL     1       3.605   1.995  -0.022  0.00  0.00    -0.279 N 
ATOM     19  C   UNL     1       4.745   1.282   0.065  0.00  0.00    +0.268 C 
ATOM     20  O   UNL     1       4.705   0.067   0.059  0.00  0.00    -0.268 OA
ATOM     21  H   UNL     1       3.642   2.962  -0.095  0.00  0.00    +0.155 HD
BRANCH  18  24
ATOM     22  C   UNL     1       0.953  -0.440   0.710  0.00  0.00    +0.021 A 
ATOM     23  C   UNL     1       2.197   0.171   0.727  0.00  0.00    +0.026 A 
ATOM     24  C   UNL     1       2.368   1.341  -0.008  0.00  0.00    +0.052 A 
ATOM     25  C   UNL     1       1.294   1.850  -0.726  0.00  0.00    +0.134 A 
ATOM     26  N   UNL     1       0.127   1.237  -0.714  0.00  0.00    -0.261 NA
ATOM     27  C   UNL     1      -0.068   0.128  -0.029  0.00  0.00    +0.111 A 
ENDBRANCH  18  24
ENDBRANCH   1  19
BRANCH   6  28
ATOM     28  C   UNL     1       7.485   5.787   1.250  0.00  0.00    +0.412 C 
ATOM     29  F   UNL     1       7.383   5.250   2.538  0.00  0.00    -0.168 F 
ATOM     30  F   UNL     1       8.141   7.021   1.310  0.00  0.00    -0.168 F 
ATOM     31  F   UNL     1       6.204   5.967   0.717  0.00  0.00    -0.168 F 
ENDBRANCH   6  28
TORSDOF 4
