REMARK  Name = ZINC03429605
REMARK  8 active torsions:
REMARK  status: ('A' for Active; 'I' for Inactive)
REMARK    1  A    between atoms: C_1  and  C_2
REMARK    2  A    between atoms: C_3  and  C_29
REMARK    3  A    between atoms: C_5  and  N_25
REMARK    4  A    between atoms: C_6  and  C_7
REMARK    5  A    between atoms: C_7  and  O_9
REMARK    6  A    between atoms: O_9  and  C_10
REMARK    7  A    between atoms: C_10  and  C_11
REMARK    8  A    between atoms: C_26  and  C_28
REMARK                            x       y       z     vdW  Elec       q    Type
REMARK                         _______ _______ _______ _____ _____    ______ ____
ROOT
ATOM      1  O   UNL     1      -1.192   1.871   0.018  0.00  0.00    -0.455 OA
ENDROOT
BRANCH   1   2
ATOM      2  C   UNL     1      -0.014   1.212   0.009  0.00  0.00    +0.342 C 
ATOM      3  O   UNL     1       0.002  -0.004   0.002  0.00  0.00    -0.245 OA
BRANCH   2   9
ATOM      4  C   UNL     1       1.327   1.997   2.573  0.00  0.00    +0.045 C 
ATOM      5  C   UNL     1       1.904   2.348   1.226  0.00  0.00    -0.025 A 
ATOM      6  C   UNL     1       3.058   3.029   1.113  0.00  0.00    -0.008 A 
ATOM      7  S   UNL     1       3.276   3.179  -0.648  0.00  0.00    -0.078 S 
ATOM      8  C   UNL     1       1.859   2.342  -1.187  0.00  0.00    +0.086 A 
ATOM      9  C   UNL     1       1.244   1.962   0.001  0.00  0.00    +0.091 A 
ATOM     10  C   UNL     1       3.949   3.546   2.213  0.00  0.00    +0.052 C 
BRANCH   8  11
ATOM     11  N   UNL     1       1.440   2.108  -2.487  0.00  0.00    -0.280 N 
ATOM     12  C   UNL     1       2.175   2.558  -3.524  0.00  0.00    +0.214 C 
ATOM     13  O   UNL     1       3.204   3.167  -3.318  0.00  0.00    -0.276 OA
ATOM     14  C   UNL     1       1.720   2.303  -4.938  0.00  0.00    +0.109 C 
ATOM     15  H   UNL     1       0.618   1.620  -2.652  0.00  0.00    +0.155 HD
ENDBRANCH   8  11
ENDBRANCH   2   9
ENDBRANCH   1   2
BRANCH   1  16
ATOM     16  C   UNL     1      -2.398   1.063   0.019  0.00  0.00    +0.288 C 
BRANCH  16  17
ATOM     17  C   UNL     1      -3.606   1.965   0.030  0.00  0.00    +0.087 A 
ATOM     18  C   UNL     1      -4.465   1.987  -1.034  0.00  0.00    +0.097 A 
ATOM     19  C   UNL     1      -5.579   2.829  -1.008  0.00  0.00    +0.260 A 
ATOM     20  O   UNL     1      -6.349   2.853  -1.955  0.00  0.00    -0.267 OA
ATOM     21  N   UNL     1      -5.805   3.625   0.080  0.00  0.00    -0.255 N 
ATOM     22  C   UNL     1      -6.882   4.507   0.226  0.00  0.00    +0.066 A 
ATOM     23  C   UNL     1      -7.910   4.731  -0.706  0.00  0.00    +0.027 A 
ATOM     24  C   UNL     1      -8.916   5.629  -0.442  0.00  0.00    +0.002 A 
ATOM     25  C   UNL     1      -8.950   6.341   0.746  0.00  0.00    +0.001 A 
ATOM     26  C   UNL     1      -7.950   6.141   1.681  0.00  0.00    +0.017 A 
ATOM     27  C   UNL     1      -6.944   5.241   1.415  0.00  0.00    +0.040 A 
ATOM     28  S   UNL     1      -5.510   4.694   2.308  0.00  0.00    -0.049 S 
ATOM     29  C   UNL     1      -4.899   3.541   1.097  0.00  0.00    +0.181 A 
ATOM     30  N   UNL     1      -3.855   2.748   1.077  0.00  0.00    -0.224 NA
ENDBRANCH  16  17
ENDBRANCH   1  16
TORSDOF 5
