REMARK  Name = ZINC63138197
REMARK  7 active torsions:
REMARK  status: ('A' for Active; 'I' for Inactive)
REMARK    1  A    between atoms: C_1  and  O_2
REMARK    2  A    between atoms: O_2  and  C_3
REMARK    3  A    between atoms: C_7  and  C_9
REMARK    4  A    between atoms: N_28  and  C_31
REMARK    5  A    between atoms: C_31  and  C_32
REMARK    6  A    between atoms: C_32  and  C_34
REMARK    7  A    between atoms: C_32  and  O_40
REMARK                            x       y       z     vdW  Elec       q    Type
REMARK                         _______ _______ _______ _____ _____    ______ ____
ROOT
ATOM      1  C   UNL     1       1.325  -4.106  -2.289  0.00  0.00    +0.134 C 
ATOM      2  C   UNL     1       0.211  -4.594  -3.213  0.00  0.00    +0.131 C 
ATOM      3  C   UNL     1       0.682  -4.288  -4.633  0.00  0.00    -0.034 C 
ATOM      4  C   UNL     1      -0.203  -3.452  -5.158  0.00  0.00    -0.001 A 
ATOM      5  C   UNL     1      -0.296  -2.834  -6.491  0.00  0.00    +0.010 A 
ATOM      6  C   UNL     1      -1.355  -2.006  -6.695  0.00  0.00    +0.001 A 
ATOM      7  C   UNL     1      -2.318  -1.734  -5.719  0.00  0.00    +0.002 A 
ATOM      8  C   UNL     1      -2.311  -2.259  -4.467  0.00  0.00    +0.026 A 
ATOM      9  C   UNL     1      -1.247  -3.147  -4.133  0.00  0.00    +0.043 A 
ATOM     10  N   UNL     1      -1.008  -3.800  -3.014  0.00  0.00    -0.375 N 
ATOM     11  C   UNL     1       1.954  -4.879  -5.177  0.00  0.00    +0.065 C 
ATOM     12  C   UNL     1       3.024  -4.855  -4.116  0.00  0.00    +0.167 C 
ATOM     13  N   UNL     1       2.641  -4.506  -2.766  0.00  0.00    -0.279 N 
ATOM     14  C   UNL     1       3.662  -4.513  -1.846  0.00  0.00    +0.234 C 
ATOM     15  O   UNL     1       3.458  -4.304  -0.669  0.00  0.00    -0.274 OA
ATOM     16  C   UNL     1       5.054  -4.794  -2.372  0.00  0.00    +0.203 C 
ATOM     17  N   UNL     1       5.250  -4.021  -3.612  0.00  0.00    -0.288 N 
ATOM     18  C   UNL     1       4.237  -4.057  -4.521  0.00  0.00    +0.237 C 
ATOM     19  O   UNL     1       4.308  -3.485  -5.588  0.00  0.00    -0.274 OA
ATOM     20  H   UNL     1      -1.534  -3.765  -2.199  0.00  0.00    +0.160 HD
ENDROOT
BRANCH   1  25
ATOM     21  C   UNL     1       0.606  -0.607  -1.056  0.00  0.00    +0.120 A 
ATOM     22  C   UNL     1       1.173   0.161  -2.063  0.00  0.00    +0.045 A 
ATOM     23  C   UNL     1       1.786  -0.455  -3.136  0.00  0.00    +0.004 A 
ATOM     24  C   UNL     1       1.836  -1.835  -3.208  0.00  0.00    +0.006 A 
ATOM     25  C   UNL     1       1.271  -2.602  -2.207  0.00  0.00    -0.021 A 
ATOM     26  C   UNL     1       0.661  -1.991  -1.128  0.00  0.00    +0.051 A 
BRANCH  21  28
ATOM     27  C   UNL     1      -0.017   1.425   0.010  0.00  0.00    +0.277 C 
ATOM     28  O   UNL     1       0.002  -0.004   0.002  0.00  0.00    -0.495 OA
ENDBRANCH  21  28
ENDBRANCH   1  25
BRANCH  17  29
ATOM     29  C   UNL     1       6.474  -3.252  -3.853  0.00  0.00    +0.144 C 
BRANCH  29  30
ATOM     30  C   UNL     1       7.501  -4.138  -4.561  0.00  0.00    +0.162 C 
BRANCH  30  31
ATOM     31  C   UNL     1       8.760  -3.347  -4.809  0.00  0.00    -0.018 A 
ATOM     32  C   UNL     1       9.724  -3.254  -3.823  0.00  0.00    +0.006 A 
ATOM     33  C   UNL     1      10.879  -2.529  -4.050  0.00  0.00    +0.000 A 
ATOM     34  C   UNL     1      11.069  -1.897  -5.265  0.00  0.00    +0.000 A 
ATOM     35  C   UNL     1      10.106  -1.990  -6.251  0.00  0.00    +0.000 A 
ATOM     36  C   UNL     1       8.953  -2.719  -6.025  0.00  0.00    +0.006 A 
ENDBRANCH  30  31
BRANCH  30  37
ATOM     37  O   UNL     1       7.803  -5.268  -3.740  0.00  0.00    -0.386 OA
ATOM     38  H   UNL     1       8.171  -5.038  -2.876  0.00  0.00    +0.210 HD
ENDBRANCH  30  37
ENDBRANCH  29  30
ENDBRANCH  17  29
TORSDOF 6
