REMARK  Name = ZINC67353216
REMARK  7 active torsions:
REMARK  status: ('A' for Active; 'I' for Inactive)
REMARK    1  A    between atoms: C_1  and  C_2
REMARK    2  A    between atoms: C_2  and  C_4
REMARK    3  A    between atoms: C_2  and  N_13
REMARK    4  A    between atoms: C_8  and  N_10
REMARK    5  A    between atoms: N_16  and  C_17
REMARK    6  A    between atoms: C_20  and  S_24
REMARK    7  A    between atoms: S_24  and  C_27
REMARK                            x       y       z     vdW  Elec       q    Type
REMARK                         _______ _______ _______ _____ _____    ______ ____
ROOT
ATOM      1  N   UNL     1      -1.370  -0.517   0.012  0.00  0.00    -0.293 N 
ATOM      2  C   UNL     1      -2.051  -0.641  -1.144  0.00  0.00    +0.304 C 
ATOM      3  O   UNL     1      -1.526  -0.331  -2.196  0.00  0.00    -0.252 OA
ATOM      4  N   UNL     1      -3.315  -1.109  -1.135  0.00  0.00    -0.269 N 
ATOM      5  H   UNL     1      -1.790  -0.764   0.851  0.00  0.00    +0.151 HD
ATOM      6  H   UNL     1      -3.711  -1.420  -0.306  0.00  0.00    +0.156 HD
ENDROOT
BRANCH   4   7
ATOM      7  C   UNL     1      -4.056  -1.148  -2.322  0.00  0.00    +0.040 A 
ATOM      8  C   UNL     1      -5.422  -0.903  -2.297  0.00  0.00    +0.063 A 
ATOM      9  C   UNL     1      -6.153  -0.941  -3.471  0.00  0.00    +0.153 A 
ATOM     10  C   UNL     1      -5.522  -1.224  -4.671  0.00  0.00    +0.158 A 
ATOM     11  C   UNL     1      -4.159  -1.468  -4.698  0.00  0.00    +0.153 A 
ATOM     12  C   UNL     1      -3.424  -1.425  -3.527  0.00  0.00    +0.063 A 
ATOM     13  F   UNL     1      -3.546  -1.744  -5.870  0.00  0.00    -0.203 F 
ATOM     14  F   UNL     1      -7.482  -0.703  -3.447  0.00  0.00    -0.203 F 
BRANCH  10  15
ATOM     15  S   UNL     1      -6.455  -1.272  -6.165  0.00  0.00    -0.000 S 
ATOM     16  O   UNL     1      -5.724  -2.141  -7.020  0.00  0.00    -0.169 OA
ATOM     17  O   UNL     1      -7.776  -1.599  -5.757  0.00  0.00    -0.169 OA
ATOM     18  C   UNL     1      -6.400   0.424  -6.804  0.00  0.00    +0.200 C 
ENDBRANCH  10  15
ENDBRANCH   4   7
BRANCH   1  20
ATOM     19  C   UNL     1      -0.020   1.522   0.021  0.00  0.00    +0.033 C 
ATOM     20  C   UNL     1       0.003  -0.008   0.002  0.00  0.00    +0.102 C 
BRANCH  20  21
ATOM     21  C   UNL     1       0.736  -0.515   1.218  0.00  0.00    -0.025 A 
ATOM     22  C   UNL     1       0.088  -0.579   2.438  0.00  0.00    +0.005 A 
ATOM     23  C   UNL     1       0.760  -1.044   3.553  0.00  0.00    +0.003 A 
ATOM     24  C   UNL     1       2.079  -1.445   3.448  0.00  0.00    +0.033 A 
ATOM     25  C   UNL     1       2.726  -1.381   2.228  0.00  0.00    +0.127 A 
ATOM     26  C   UNL     1       2.053  -0.920   1.112  0.00  0.00    +0.038 A 
BRANCH  25  27
ATOM     27  N   UNL     1       4.138  -1.809   2.116  0.00  0.00    +0.056 N 
ATOM     28  O   UNL     1       4.726  -2.215   3.091  0.00  0.00    -0.126 OA
ATOM     29  O   UNL     1       4.704  -1.754   1.049  0.00  0.00    -0.126 OA
ENDBRANCH  25  27
ENDBRANCH  20  21
ENDBRANCH   1  20
TORSDOF 5
