REMARK  Name = ZINC48742632
REMARK  7 active torsions:
REMARK  status: ('A' for Active; 'I' for Inactive)
REMARK    1  A    between atoms: C_1  and  C_2
REMARK    2  A    between atoms: C_4  and  O_22
REMARK    3  A    between atoms: C_5  and  C_19
REMARK    4  A    between atoms: C_7  and  S_8
REMARK    5  A    between atoms: S_8  and  N_11
REMARK    6  A    between atoms: N_11  and  C_12
REMARK    7  A    between atoms: N_16  and  C_18
REMARK                            x       y       z     vdW  Elec       q    Type
REMARK                         _______ _______ _______ _____ _____    ______ ____
ROOT
ATOM      1  C   UNL     1       2.335  -1.709   1.804  0.00  0.00    +0.046 C 
ATOM      2  C   UNL     1       1.275  -1.474   0.759  0.00  0.00    -0.021 A 
ATOM      3  C   UNL     1       1.429  -2.006  -0.506  0.00  0.00    +0.051 A 
ATOM      4  C   UNL     1       0.457  -1.794  -1.473  0.00  0.00    +0.131 A 
ATOM      5  C   UNL     1      -0.682  -1.038  -1.159  0.00  0.00    +0.106 A 
ATOM      6  C   UNL     1      -0.825  -0.506   0.127  0.00  0.00    +0.047 A 
ATOM      7  C   UNL     1       0.149  -0.731   1.075  0.00  0.00    +0.109 A 
ENDROOT
BRANCH   7   8
ATOM      8  S   UNL     1      -0.035  -0.066   2.696  0.00  0.00    +0.059 S 
ATOM      9  O   UNL     1      -1.257   0.660   2.701  0.00  0.00    -0.153 OA
ATOM     10  O   UNL     1       0.223  -1.128   3.603  0.00  0.00    -0.153 OA
BRANCH   8  11
ATOM     11  N   UNL     1       1.175   1.044   2.910  0.00  0.00    -0.189 NA
ATOM     12  H   UNL     1       1.858   0.894   3.583  0.00  0.00    +0.148 HD
BRANCH  11  13
ATOM     13  C   UNL     1       1.215   2.253   2.084  0.00  0.00    +0.058 C 
ATOM     14  C   UNL     1       0.625   3.453   2.860  0.00  0.00    -0.000 C 
ATOM     15  C   UNL     1       1.886   4.153   3.427  0.00  0.00    -0.078 C 
ATOM     16  N   UNL     1       2.878   4.004   2.331  0.00  0.00    +0.379 N 
ATOM     17  C   UNL     1       2.673   2.645   1.780  0.00  0.00    -0.059 C 
ATOM     18  C   UNL     1       4.242   4.135   2.861  0.00  0.00    -0.096 C 
ATOM     19  H   UNL     1       2.714   4.697   1.616  0.00  0.00    -0.082 HD
ENDBRANCH  11  13
ENDBRANCH   8  11
ENDBRANCH   7   8
BRANCH   5  20
ATOM     20  C   UNL     1      -1.720  -0.805  -2.175  0.00  0.00    +0.390 C 
ATOM     21  O   UNL     1      -2.712  -0.145  -1.897  0.00  0.00    -0.240 OA
ATOM     22  O   UNL     1      -1.592  -1.272  -3.299  0.00  0.00    -0.240 OA
ENDBRANCH   5  20
BRANCH   4  23
ATOM     23  O   UNL     1       0.608  -2.315  -2.716  0.00  0.00    -0.506 OA
ATOM     24  H   UNL     1       0.235  -3.201  -2.819  0.00  0.00    +0.292 HD
ENDBRANCH   4  23
TORSDOF 5
