REMARK  Name = ZINC01220193
REMARK  9 active torsions:
REMARK  status: ('A' for Active; 'I' for Inactive)
REMARK    1  A    between atoms: C_1  and  C_2
REMARK    2  A    between atoms: C_3  and  C_30
REMARK    3  A    between atoms: C_4  and  C_22
REMARK    4  A    between atoms: C_9  and  C_14
REMARK    5  A    between atoms: C_14  and  C_15
REMARK    6  A    between atoms: C_25  and  O_28
REMARK    7  A    between atoms: O_28  and  C_29
REMARK    8  A    between atoms: C_30  and  O_32
REMARK    9  A    between atoms: O_32  and  C_33
REMARK                            x       y       z     vdW  Elec       q    Type
REMARK                         _______ _______ _______ _____ _____    ______ ____
ROOT
ATOM      1  C   UNL     1       3.293  10.040  -4.053  0.00  0.00    +0.066 C 
ATOM      2  C   UNL     1       3.623   8.742  -3.362  0.00  0.00    +0.053 C 
ATOM      3  C   UNL     1       4.895   8.514  -2.921  0.00  0.00    +0.083 C 
ATOM      4  C   UNL     1       5.185   7.201  -2.233  0.00  0.00    +0.152 C 
ATOM      5  N   UNL     1       4.051   6.241  -2.084  0.00  0.00    -0.238 N 
ATOM      6  C   UNL     1       4.140   5.037  -1.499  0.00  0.00    +0.236 C 
ATOM      7  O   UNL     1       5.185   4.633  -1.036  0.00  0.00    -0.274 OA
ATOM      8  C   UNL     1       2.876   4.205  -1.444  0.00  0.00    +0.145 C 
ATOM      9  S   UNL     1       1.703   5.341  -2.282  0.00  0.00    -0.077 S 
ATOM     10  C   UNL     1       2.848   6.672  -2.601  0.00  0.00    +0.164 C 
ATOM     11  N   UNL     1       2.675   7.830  -3.186  0.00  0.00    -0.230 NA
ENDROOT
BRANCH   4  12
ATOM     12  C   UNL     1       5.715   7.507  -0.856  0.00  0.00    -0.022 A 
ATOM     13  C   UNL     1       4.840   7.838   0.163  0.00  0.00    +0.009 A 
ATOM     14  C   UNL     1       5.323   8.114   1.427  0.00  0.00    +0.046 A 
ATOM     15  C   UNL     1       6.688   8.070   1.672  0.00  0.00    +0.120 A 
ATOM     16  C   UNL     1       7.564   7.744   0.647  0.00  0.00    +0.046 A 
ATOM     17  C   UNL     1       7.075   7.463  -0.614  0.00  0.00    +0.009 A 
BRANCH  15  18
ATOM     18  O   UNL     1       7.166   8.348   2.914  0.00  0.00    -0.495 OA
ATOM     19  C   UNL     1       6.206   8.676   3.920  0.00  0.00    +0.277 C 
ENDBRANCH  15  18
ENDBRANCH   4  12
BRANCH   3  20
ATOM     20  C   UNL     1       5.905   9.474  -3.102  0.00  0.00    +0.339 C 
ATOM     21  O   UNL     1       5.652  10.527  -3.659  0.00  0.00    -0.245 OA
BRANCH  20  22
ATOM     22  O   UNL     1       7.157   9.228  -2.658  0.00  0.00    -0.465 OA
ATOM     23  C   UNL     1       8.134  10.248  -2.876  0.00  0.00    +0.280 C 
ENDBRANCH  20  22
ENDBRANCH   3  20
BRANCH   8  24
ATOM     24  C   UNL     1       2.451   3.936   0.001  0.00  0.00    +0.059 C 
BRANCH  24  25
ATOM     25  C   UNL     1       1.156   3.166   0.009  0.00  0.00    -0.046 A 
ATOM     26  C   UNL     1       1.175   1.783   0.000  0.00  0.00    +0.005 A 
ATOM     27  C   UNL     1      -0.013   1.076   0.008  0.00  0.00    +0.015 A 
ATOM     28  C   UNL     1      -1.220   1.751   0.017  0.00  0.00    +0.018 A 
ATOM     29  C   UNL     1      -1.238   3.134   0.031  0.00  0.00    +0.015 A 
ATOM     30  C   UNL     1      -0.050   3.841   0.024  0.00  0.00    +0.005 A 
ATOM     31 BR   UNL     1      -2.845   0.784   0.020  0.00  0.00    -0.050 Br
ENDBRANCH  24  25
ENDBRANCH   8  24
TORSDOF 6
