REMARK  Name = ZINC12873488
REMARK  9 active torsions:
REMARK  status: ('A' for Active; 'I' for Inactive)
REMARK    1  A    between atoms: C_1  and  C_2
REMARK    2  A    between atoms: C_2  and  C_3
REMARK    3  A    between atoms: C_3  and  O_4
REMARK    4  A    between atoms: O_4  and  C_5
REMARK    5  A    between atoms: C_8  and  C_13
REMARK    6  A    between atoms: C_10  and  O_11
REMARK    7  A    between atoms: O_11  and  C_12
REMARK    8  A    between atoms: N_20  and  C_35
REMARK    9  A    between atoms: C_23  and  C_34
REMARK                            x       y       z     vdW  Elec       q    Type
REMARK                         _______ _______ _______ _____ _____    ______ ____
ROOT
ATOM      1  C   UNL     1       3.676   2.185  -0.021  0.00  0.00    +0.069 C 
ATOM      2  C   UNL     1       4.499   1.816   1.219  0.00  0.00    +0.122 C 
ATOM      3  N   UNL     1       5.886   2.280   1.024  0.00  0.00    -0.280 N 
ATOM      4  C   UNL     1       6.371   3.236   1.822  0.00  0.00    +0.234 C 
ATOM      5  O   UNL     1       5.702   3.572   2.776  0.00  0.00    -0.274 OA
ATOM      6  C   UNL     1       7.684   3.917   1.615  0.00  0.00    +0.204 C 
ATOM      7  N   UNL     1       8.360   3.452   0.415  0.00  0.00    -0.288 N 
ATOM      8  C   UNL     1       7.914   2.451  -0.343  0.00  0.00    +0.246 C 
ATOM      9  O   UNL     1       8.559   2.147  -1.325  0.00  0.00    -0.273 OA
ATOM     10  C   UNL     1       6.668   1.681  -0.056  0.00  0.00    +0.151 C 
ATOM     11  C   UNL     1       5.794   1.612  -1.286  0.00  0.00    +0.054 A 
ATOM     12  C   UNL     1       4.461   1.836  -1.259  0.00  0.00    -0.008 A 
ATOM     13  C   UNL     1       3.979   1.677  -2.616  0.00  0.00    +0.004 A 
ATOM     14  C   UNL     1       2.707   1.785  -3.188  0.00  0.00    +0.010 A 
ATOM     15  C   UNL     1       2.615   1.565  -4.540  0.00  0.00    +0.001 A 
ATOM     16  C   UNL     1       3.721   1.250  -5.312  0.00  0.00    +0.002 A 
ATOM     17  C   UNL     1       4.991   1.137  -4.772  0.00  0.00    +0.026 A 
ATOM     18  C   UNL     1       5.115   1.354  -3.401  0.00  0.00    +0.047 A 
ATOM     19  N   UNL     1       6.193   1.324  -2.563  0.00  0.00    -0.356 N 
ATOM     20  H   UNL     1       7.104   1.127  -2.833  0.00  0.00    +0.166 HD
ATOM     21  C   UNL     1       7.049   0.258   0.359  0.00  0.00    +0.048 C 
ENDROOT
BRANCH   1  25
ATOM     22  C   UNL     1       0.002  -0.004   0.002  0.00  0.00    +0.162 A 
ATOM     23  C   UNL     1       1.213  -0.677  -0.013  0.00  0.00    +0.050 A 
ATOM     24  C   UNL     1       2.399   0.033  -0.021  0.00  0.00    +0.008 A 
ATOM     25  C   UNL     1       2.380   1.415  -0.013  0.00  0.00    -0.035 A 
ATOM     26  C   UNL     1       1.175   2.093   0.002  0.00  0.00    +0.053 A 
ATOM     27  C   UNL     1      -0.017   1.387   0.010  0.00  0.00    +0.162 A 
BRANCH  27  28
ATOM     28  O   UNL     1      -1.203   2.053   0.019  0.00  0.00    -0.491 OA
ATOM     29  C   UNL     1      -1.146   3.481   0.026  0.00  0.00    +0.277 C 
ENDBRANCH  27  28
BRANCH  22  30
ATOM     30  O   UNL     1      -1.165  -0.702   0.009  0.00  0.00    -0.488 OA
BRANCH  30  31
ATOM     31  C   UNL     1      -1.069  -2.127   0.000  0.00  0.00    +0.229 C 
BRANCH  31  33
ATOM     32  C   UNL     1      -2.372  -4.260   0.001  0.00  0.00    +0.007 C 
ATOM     33  C   UNL     1      -2.474  -2.733   0.010  0.00  0.00    +0.038 C 
ENDBRANCH  31  33
ENDBRANCH  30  31
ENDBRANCH  22  30
ENDBRANCH   1  25
BRANCH   7  34
ATOM     34  C   UNL     1       9.601   4.121   0.017  0.00  0.00    +0.077 C 
ATOM     35  C   UNL     1      10.632   4.048   1.163  0.00  0.00    +0.022 C 
ATOM     36  C   UNL     1      11.359   5.415   1.107  0.00  0.00    +0.002 C 
ATOM     37  C   UNL     1      10.214   6.397   0.757  0.00  0.00    +0.002 C 
ATOM     38  C   UNL     1       9.335   5.614  -0.241  0.00  0.00    +0.022 C 
ENDBRANCH   7  34
TORSDOF 6
