REMARK  Name = ZINC38889307
REMARK  10 active torsions:
REMARK  status: ('A' for Active; 'I' for Inactive)
REMARK    1  A    between atoms: C_1  and  C_2
REMARK    2  A    between atoms: C_2  and  O_3
REMARK    3  A    between atoms: O_3  and  C_4
REMARK    4  A    between atoms: C_8  and  C_19
REMARK    5  A    between atoms: C_9  and  O_10
REMARK    6  A    between atoms: O_10  and  C_11
REMARK    7  A    between atoms: C_11  and  C_12
REMARK    8  A    between atoms: C_21  and  C_32
REMARK    9  A    between atoms: C_22  and  N_31
REMARK   10  A    between atoms: C_27  and  C_30
REMARK                            x       y       z     vdW  Elec       q    Type
REMARK                         _______ _______ _______ _____ _____    ______ ____
ROOT
ATOM      1  C   UNL     1      -1.498  -1.849   0.006  0.00  0.00    +0.162 A 
ATOM      2  C   UNL     1      -0.389  -2.680  -0.003  0.00  0.00    +0.049 A 
ATOM      3  C   UNL     1      -0.553  -4.052  -0.008  0.00  0.00    +0.004 A 
ATOM      4  C   UNL     1      -1.823  -4.600  -0.005  0.00  0.00    +0.008 A 
ATOM      5  C   UNL     1      -2.934  -3.777   0.004  0.00  0.00    +0.010 A 
ATOM      6  C   UNL     1      -2.776  -2.400   0.016  0.00  0.00    +0.166 A 
ENDROOT
BRANCH   5   7
ATOM      7  C   UNL     1      -4.316  -4.377   0.007  0.00  0.00    +0.101 C 
ATOM      8  C   UNL     1      -4.493  -5.282   1.213  0.00  0.00    +0.098 C 
ATOM      9  C   UNL     1      -4.579  -6.623   1.086  0.00  0.00    +0.195 C 
ATOM     10  O   UNL     1      -4.548  -7.326  -0.061  0.00  0.00    -0.448 OA
ATOM     11  C   UNL     1      -3.959  -6.697  -1.202  0.00  0.00    +0.343 C 
ATOM     12  C   UNL     1      -4.502  -5.263  -1.194  0.00  0.00    +0.030 C 
ATOM     13  C   UNL     1      -5.082  -5.109  -2.358  0.00  0.00    +0.066 C 
ATOM     14  N   UNL     1      -5.068  -6.277  -3.050  0.00  0.00    -0.155 NA
ATOM     15  N   UNL     1      -4.478  -7.224  -2.466  0.00  0.00    -0.138 NA
ATOM     16  C   UNL     1      -5.681  -3.820  -2.859  0.00  0.00    +0.067 C 
BRANCH   9  17
ATOM     17  N   UNL     1      -4.709  -7.344   2.246  0.00  0.00    -0.329 N 
ATOM     18  H   UNL     1      -4.736  -6.886   3.101  0.00  0.00    +0.145 HD
ATOM     19  H   UNL     1      -4.775  -8.311   2.212  0.00  0.00    +0.145 HD
ENDBRANCH   9  17
BRANCH   8  20
ATOM     20  C   UNL     1      -4.570  -4.699   2.518  0.00  0.00    +0.101 C 
ATOM     21  N   UNL     1      -4.631  -4.236   3.554  0.00  0.00    -0.191 NA
ENDBRANCH   8  20
ENDBRANCH   5   7
BRANCH   1  22
ATOM     22  O   UNL     1      -1.339  -0.499   0.012  0.00  0.00    -0.489 OA
BRANCH  22  24
ATOM     23  C   UNL     1      -0.019   1.526   0.010  0.00  0.00    +0.048 C 
ATOM     24  C   UNL     1       0.002  -0.004   0.002  0.00  0.00    +0.226 C 
ENDBRANCH  22  24
ENDBRANCH   1  22
BRANCH   6  25
ATOM     25  O   UNL     1      -3.868  -1.589   0.030  0.00  0.00    -0.483 OA
BRANCH  25  26
ATOM     26  C   UNL     1      -4.401  -1.196  -1.236  0.00  0.00    +0.264 C 
BRANCH  26  27
ATOM     27  C   UNL     1      -5.598  -0.306  -1.022  0.00  0.00    -0.010 A 
ATOM     28  C   UNL     1      -6.860  -0.860  -0.917  0.00  0.00    +0.008 A 
ATOM     29  C   UNL     1      -7.959  -0.044  -0.721  0.00  0.00    +0.020 A 
ATOM     30  C   UNL     1      -7.795   1.327  -0.630  0.00  0.00    +0.041 A 
ATOM     31  C   UNL     1      -6.532   1.880  -0.736  0.00  0.00    +0.020 A 
ATOM     32  C   UNL     1      -5.433   1.063  -0.926  0.00  0.00    +0.008 A 
ATOM     33 CL   UNL     1      -9.175   2.352  -0.385  0.00  0.00    -0.084 Cl
ENDBRANCH  26  27
ENDBRANCH  25  26
ENDBRANCH   6  25
TORSDOF 8
