REMARK  Name = ZINC38966599
REMARK  6 active torsions:
REMARK  status: ('A' for Active; 'I' for Inactive)
REMARK    1  A    between atoms: C_1  and  C_2
REMARK    2  A    between atoms: C_2  and  C_4
REMARK    3  A    between atoms: C_8  and  N_10
REMARK    4  A    between atoms: N_10  and  C_11
REMARK    5  A    between atoms: N_14  and  S_15
REMARK    6  A    between atoms: S_15  and  C_18
REMARK                            x       y       z     vdW  Elec       q    Type
REMARK                         _______ _______ _______ _____ _____    ______ ____
ROOT
ATOM      1  C   UNL     1      -3.691  -4.994   0.132  0.00  0.00    +0.237 C 
ATOM      2  C   UNL     1      -3.551  -5.957   1.289  0.00  0.00    +0.192 C 
ATOM      3  N   UNL     1      -3.271  -5.521   2.481  0.00  0.00    -0.110 NA
ATOM      4  N   UNL     1      -3.722  -7.271   1.067  0.00  0.00    -0.226 NA
ATOM      5  C   UNL     1      -4.007  -7.738  -0.130  0.00  0.00    +0.089 A 
ATOM      6  C   UNL     1      -4.181  -9.131  -0.328  0.00  0.00    +0.030 A 
ATOM      7  C   UNL     1      -4.473  -9.616  -1.555  0.00  0.00    +0.002 A 
ATOM      8  C   UNL     1      -4.619  -8.791  -2.682  0.00  0.00    +0.002 A 
ATOM      9  C   UNL     1      -4.474  -7.450  -2.605  0.00  0.00    +0.027 A 
ATOM     10  C   UNL     1      -4.156  -6.843  -1.304  0.00  0.00    +0.063 A 
ATOM     11  N   UNL     1      -4.009  -5.553  -1.192  0.00  0.00    -0.359 N 
ATOM     12  H   UNL     1      -4.108  -4.974  -1.964  0.00  0.00    +0.162 HD
ENDROOT
BRANCH   3  13
ATOM     13  S   UNL     1      -3.121  -6.586   3.739  0.00  0.00    +0.100 S 
ATOM     14  O   UNL     1      -4.408  -7.150   3.950  0.00  0.00    -0.146 OA
ATOM     15  O   UNL     1      -1.977  -7.383   3.463  0.00  0.00    -0.146 OA
BRANCH  13  16
ATOM     16  C   UNL     1      -2.742  -5.643   5.179  0.00  0.00    +0.114 A 
ATOM     17  C   UNL     1      -1.425  -5.380   5.506  0.00  0.00    +0.029 A 
ATOM     18  C   UNL     1      -1.127  -4.640   6.635  0.00  0.00    +0.003 A 
ATOM     19  C   UNL     1      -2.146  -4.163   7.438  0.00  0.00    +0.020 A 
ATOM     20  C   UNL     1      -3.465  -4.426   7.111  0.00  0.00    +0.043 A 
ATOM     21  C   UNL     1      -3.762  -5.161   5.977  0.00  0.00    +0.049 A 
ATOM     22 CL   UNL     1      -4.745  -3.826   8.118  0.00  0.00    -0.083 Cl
ENDBRANCH  13  16
ENDBRANCH   3  13
BRANCH   1  23
ATOM     23  N   UNL     1      -2.433  -4.253   0.013  0.00  0.00    -0.318 N 
ATOM     24  H   UNL     1      -1.590  -4.731  -0.030  0.00  0.00    +0.148 HD
BRANCH  23  29
ATOM     25  C   UNL     1      -1.276  -0.753  -0.029  0.00  0.00    +0.019 A 
ATOM     26  C   UNL     1      -2.498  -0.080  -0.139  0.00  0.00    +0.011 A 
ATOM     27  C   UNL     1      -3.676  -0.795  -0.197  0.00  0.00    +0.002 A 
ATOM     28  C   UNL     1      -3.655  -2.177  -0.147  0.00  0.00    +0.023 A 
ATOM     29  C   UNL     1      -2.447  -2.857  -0.038  0.00  0.00    +0.030 A 
ATOM     30  C   UNL     1      -1.256  -2.149   0.016  0.00  0.00    +0.034 A 
BRANCH  25  32
ATOM     31  C   UNL     1      -0.043   1.513  -0.017  0.00  0.00    +0.091 C 
ATOM     32  C   UNL     1      -0.017   0.007   0.032  0.00  0.00    +0.160 C 
ATOM     33  O   UNL     1       1.040  -0.579   0.122  0.00  0.00    -0.292 OA
ENDBRANCH  25  32
ENDBRANCH  23  29
ENDBRANCH   1  23
TORSDOF 5
