REMARK  Name = ZINC39770234
REMARK  15 active torsions:
REMARK  status: ('A' for Active; 'I' for Inactive)
REMARK    1  A    between atoms: C_1  and  C_2
REMARK    2  A    between atoms: C_2  and  C_3
REMARK    3  A    between atoms: C_3  and  N_4
REMARK    4  A    between atoms: C_5  and  N_26
REMARK    5  A    between atoms: C_6  and  C_14
REMARK    6  A    between atoms: C_7  and  C_13
REMARK    7  A    between atoms: C_8  and  C_11
REMARK    8  A    between atoms: N_18  and  C_22
REMARK    9  A    between atoms: C_22  and  C_23
REMARK   10  A    between atoms: C_23  and  C_24
REMARK   11  A    between atoms: C_23  and  C_25
REMARK   12  A    between atoms: C_29  and  C_32
REMARK   13  A    between atoms: C_32  and  O_34
REMARK   14  A    between atoms: O_34  and  C_35
REMARK   15  A    between atoms: C_35  and  C_36
REMARK                            x       y       z     vdW  Elec       q    Type
REMARK                         _______ _______ _______ _____ _____    ______ ____
ROOT
ATOM      1  N   UNL     1       0.344  -2.331  -1.421  0.00  0.00    -0.295 N 
ATOM      2  C   UNL     1       1.451  -2.820  -0.805  0.00  0.00    +0.112 A 
ATOM      3  C   UNL     1       1.846  -4.154  -0.999  0.00  0.00    +0.019 A 
ATOM      4  C   UNL     1       1.084  -4.984  -1.839  0.00  0.00    -0.017 A 
ATOM      5  C   UNL     1      -0.046  -4.459  -2.458  0.00  0.00    +0.120 A 
ATOM      6  C   UNL     1      -0.405  -3.107  -2.225  0.00  0.00    +0.270 A 
ATOM      7  O   UNL     1      -1.396  -2.643  -2.760  0.00  0.00    -0.266 OA
ATOM      8  C   UNL     1       1.485  -6.419  -2.066  0.00  0.00    +0.046 C 
ENDROOT
BRANCH   3   9
ATOM      9  C   UNL     1       3.041  -4.675  -0.333  0.00  0.00    +0.032 C 
ATOM     10  C   UNL     1       2.924  -5.644   0.615  0.00  0.00    +0.077 C 
ATOM     11  C   UNL     1       1.748  -6.218   1.186  0.00  0.00    +0.258 C 
ATOM     12  O   UNL     1       0.639  -5.852   0.840  0.00  0.00    -0.269 OA
ATOM     13  N   UNL     1       1.898  -7.159   2.102  0.00  0.00    -0.255 N 
ATOM     14  C   UNL     1       3.129  -7.565   2.486  0.00  0.00    +0.121 C 
ATOM     15  S   UNL     1       3.554  -8.754   3.643  0.00  0.00    -0.027 S 
ATOM     16  S   UNL     1       4.199  -6.552   1.477  0.00  0.00    -0.061 S 
BRANCH  13  17
ATOM     17  C   UNL     1       0.714  -7.771   2.711  0.00  0.00    +0.118 C 
BRANCH  17  18
ATOM     18  C   UNL     1       0.292  -8.991   1.890  0.00  0.00    +0.001 C 
ATOM     19  C   UNL     1       1.384 -10.060   1.966  0.00  0.00    +0.009 C 
ATOM     20  C   UNL     1      -1.015  -9.555   2.451  0.00  0.00    +0.009 C 
ENDBRANCH  17  18
ENDBRANCH  13  17
ENDBRANCH   3   9
BRANCH   2  21
ATOM     21  N   UNL     1       2.187  -2.009   0.009  0.00  0.00    -0.316 N 
ATOM     22  C   UNL     1       1.956  -1.997   1.460  0.00  0.00    +0.107 C 
ATOM     23  C   UNL     1       3.288  -2.252   2.173  0.00  0.00    +0.033 C 
ATOM     24  C   UNL     1       4.322  -1.231   1.693  0.00  0.00    +0.101 C 
ATOM     25  C   UNL     1       4.542  -1.394   0.187  0.00  0.00    +0.033 C 
ATOM     26  C   UNL     1       3.228  -1.134  -0.548  0.00  0.00    +0.107 C 
BRANCH  24  27
ATOM     27  C   UNL     1       5.625  -1.457   2.417  0.00  0.00    +0.310 C 
ATOM     28  O   UNL     1       5.716  -2.343   3.233  0.00  0.00    -0.251 OA
BRANCH  27  29
ATOM     29  O   UNL     1       6.683  -0.674   2.155  0.00  0.00    -0.465 OA
BRANCH  29  30
ATOM     30  C   UNL     1       7.885  -0.945   2.878  0.00  0.00    +0.229 C 
ATOM     31  C   UNL     1       8.972   0.043   2.449  0.00  0.00    +0.048 C 
ENDBRANCH  29  30
ENDBRANCH  27  29
ENDBRANCH  24  27
ENDBRANCH   2  21
BRANCH   5  32
ATOM     32  C   UNL     1      -0.844  -5.279  -3.320  0.00  0.00    +0.105 C 
ATOM     33  N   UNL     1      -1.476  -5.929  -4.004  0.00  0.00    -0.191 NA
ENDBRANCH   5  32
BRANCH   1  34
ATOM     34  C   UNL     1      -0.044  -0.936  -1.201  0.00  0.00    +0.126 C 
BRANCH  34  36
ATOM     35  C   UNL     1      -1.483   0.592   0.156  0.00  0.00    +0.005 C 
ATOM     36  C   UNL     1      -1.077  -0.865  -0.074  0.00  0.00    +0.018 C 
ENDBRANCH  34  36
ENDBRANCH   1  34
TORSDOF 10
