REMARK  Name = ZINC39521120
REMARK  9 active torsions:
REMARK  status: ('A' for Active; 'I' for Inactive)
REMARK    1  A    between atoms: C_1  and  C_2
REMARK    2  A    between atoms: C_2  and  C_3
REMARK    3  A    between atoms: C_2  and  S_4
REMARK    4  A    between atoms: S_4  and  C_7
REMARK    5  A    between atoms: N_13  and  C_14
REMARK    6  A    between atoms: C_14  and  C_15
REMARK    7  A    between atoms: C_24  and  S_27
REMARK    8  A    between atoms: S_27  and  O_30
REMARK    9  A    between atoms: O_30  and  C_31
REMARK                            x       y       z     vdW  Elec       q    Type
REMARK                         _______ _______ _______ _____ _____    ______ ____
ROOT
ATOM      1  C   UNL     1      -1.372  -0.975   0.085  0.00  0.00    +0.079 C 
ATOM      2  C   UNL     1      -2.651  -0.144  -0.026  0.00  0.00    +0.007 C 
ATOM      3  C   UNL     1      -3.773  -1.015  -0.599  0.00  0.00    -0.001 C 
ATOM      4  C   UNL     1      -3.324  -1.578  -1.946  0.00  0.00    -0.012 C 
ATOM      5  C   UNL     1      -2.054  -2.451  -1.723  0.00  0.00    -0.061 C 
ATOM      6  N   UNL     1      -1.022  -1.546  -1.221  0.00  0.00    +0.401 N 
ATOM      7  C   UNL     1      -1.696  -2.994  -3.098  0.00  0.00    -0.012 C 
ATOM      8  C   UNL     1      -0.941  -4.309  -3.112  0.00  0.00    +0.001 C 
ATOM      9  C   UNL     1      -1.617  -5.335  -2.203  0.00  0.00    +0.030 C 
ATOM     10  C   UNL     1      -1.605  -4.783  -0.775  0.00  0.00    +0.170 C 
ATOM     11  C   UNL     1      -2.447  -3.517  -0.718  0.00  0.00    +0.018 C 
ATOM     12  H   UNL     1      -0.945  -0.767  -1.882  0.00  0.00    -0.078 HD
ENDROOT
BRANCH   1  13
ATOM     13  S   UNL     1      -0.015   0.099   0.641  0.00  0.00    -0.041 S 
ATOM     14  O   UNL     1      -0.547   1.071   1.531  0.00  0.00    -0.176 OA
ATOM     15  O   UNL     1       0.713   0.532  -0.500  0.00  0.00    -0.176 OA
BRANCH  13  17
ATOM     16  C   UNL     1       2.164  -0.252   2.257  0.00  0.00    +0.031 C 
ATOM     17  C   UNL     1       1.032  -1.038   1.592  0.00  0.00    +0.122 C 
ATOM     18  C   UNL     1       0.190  -1.728   2.666  0.00  0.00    +0.031 C 
ENDBRANCH  13  17
ENDBRANCH   1  13
BRANCH  10  19
ATOM     19  S   UNL     1      -2.309  -6.027   0.347  0.00  0.00    +0.123 S 
ATOM     20  O   UNL     1      -2.147  -5.616   1.697  0.00  0.00    -0.136 OA
ATOM     21  O   UNL     1      -3.575  -6.458  -0.133  0.00  0.00    -0.136 OA
BRANCH  19  22
ATOM     22  O   UNL     1      -1.404  -7.242   0.200  0.00  0.00    -0.346 OA
BRANCH  22  23
ATOM     23  C   UNL     1      -0.203  -7.115   0.822  0.00  0.00    +0.156 A 
ATOM     24  C   UNL     1       0.879  -6.575   0.141  0.00  0.00    +0.048 A 
ATOM     25  C   UNL     1       2.099  -6.447   0.776  0.00  0.00    +0.004 A 
ATOM     26  C   UNL     1       2.243  -6.856   2.089  0.00  0.00    +0.000 A 
ATOM     27  C   UNL     1       1.167  -7.395   2.769  0.00  0.00    +0.004 A 
ATOM     28  C   UNL     1      -0.057  -7.520   2.141  0.00  0.00    +0.048 A 
ENDBRANCH  22  23
ENDBRANCH  19  22
ENDBRANCH  10  19
BRANCH   6  29
ATOM     29  C   UNL     1       0.295  -2.177  -1.128  0.00  0.00    -0.040 C 
BRANCH  29  30
ATOM     30  C   UNL     1       0.749  -2.597  -2.502  0.00  0.00    -0.064 A 
ATOM     31  C   UNL     1       1.559  -3.707  -2.653  0.00  0.00    +0.002 A 
ATOM     32  C   UNL     1       1.976  -4.093  -3.914  0.00  0.00    +0.000 A 
ATOM     33  C   UNL     1       1.581  -3.368  -5.023  0.00  0.00    +0.000 A 
ATOM     34  C   UNL     1       0.771  -2.259  -4.872  0.00  0.00    +0.000 A 
ATOM     35  C   UNL     1       0.351  -1.876  -3.612  0.00  0.00    +0.002 A 
ENDBRANCH  29  30
ENDBRANCH   6  29
TORSDOF 7
