REMARK  Name = ZINC44662358
REMARK  9 active torsions:
REMARK  status: ('A' for Active; 'I' for Inactive)
REMARK    1  A    between atoms: C_1  and  C_2
REMARK    2  A    between atoms: C_2  and  O_3
REMARK    3  A    between atoms: O_3  and  C_4
REMARK    4  A    between atoms: C_7  and  C_9
REMARK    5  A    between atoms: C_9  and  S_10
REMARK    6  A    between atoms: S_10  and  C_11
REMARK    7  A    between atoms: C_15  and  C_24
REMARK    8  A    between atoms: N_16  and  C_17
REMARK    9  A    between atoms: C_22  and  C_23
REMARK                            x       y       z     vdW  Elec       q    Type
REMARK                         _______ _______ _______ _____ _____    ______ ____
ROOT
ATOM      1  C   UNL     1       3.030  -6.515  -5.239  0.00  0.00    +0.241 C 
ATOM      2  N   UNL     1       4.378  -5.924  -5.290  0.00  0.00    -0.237 N 
ATOM      3  N   UNL     1       4.416  -5.115  -6.432  0.00  0.00    -0.169 NA
ATOM      4  C   UNL     1       3.275  -5.142  -7.070  0.00  0.00    +0.151 C 
ATOM      5  N   UNL     1       2.349  -5.973  -6.426  0.00  0.00    -0.254 N 
ATOM      6  H   UNL     1       5.098  -6.067  -4.656  0.00  0.00    +0.171 HD
ENDROOT
BRANCH   4   7
ATOM      7  C   UNL     1       3.012  -4.430  -8.250  0.00  0.00    +0.022 C 
ATOM      8  C   UNL     1       3.888  -3.595  -8.944  0.00  0.00    +0.006 A 
ATOM      9  C   UNL     1       5.227  -3.214  -8.712  0.00  0.00    +0.010 A 
ATOM     10  C   UNL     1       5.845  -2.366  -9.575  0.00  0.00    +0.001 A 
ATOM     11  C   UNL     1       5.187  -1.856 -10.696  0.00  0.00    +0.002 A 
ATOM     12  C   UNL     1       3.901  -2.179 -10.980  0.00  0.00    +0.026 A 
ATOM     13  C   UNL     1       3.190  -3.060 -10.125  0.00  0.00    +0.043 A 
ATOM     14  N   UNL     1       1.956  -3.521 -10.180  0.00  0.00    -0.380 N 
ATOM     15  C   UNL     1       1.722  -4.413  -9.040  0.00  0.00    +0.152 C 
ATOM     16  H   UNL     1       1.307  -3.307 -10.868  0.00  0.00    +0.160 HD
ENDBRANCH   4   7
BRANCH   5  17
ATOM     17  C   UNL     1       1.038  -6.236  -6.829  0.00  0.00    +0.041 A 
ATOM     18  C   UNL     1      -0.002  -5.428  -6.386  0.00  0.00    +0.024 A 
ATOM     19  C   UNL     1      -1.297  -5.690  -6.786  0.00  0.00    +0.002 A 
ATOM     20  C   UNL     1      -1.560  -6.756  -7.628  0.00  0.00    +0.000 A 
ATOM     21  C   UNL     1      -0.528  -7.562  -8.071  0.00  0.00    +0.005 A 
ATOM     22  C   UNL     1       0.771  -7.302  -7.679  0.00  0.00    -0.029 A 
ATOM     23  C   UNL     1       1.896  -8.177  -8.167  0.00  0.00    +0.045 C 
ENDBRANCH   5  17
BRANCH   1  24
ATOM     24  S   UNL     1       2.170  -6.004  -3.726  0.00  0.00    -0.108 S 
BRANCH  24  25
ATOM     25  C   UNL     1       2.192  -4.192  -3.799  0.00  0.00    +0.168 C 
BRANCH  25  29
ATOM     26  C   UNL     1       0.776  -1.797  -1.335  0.00  0.00    +0.407 C 
ATOM     27  O   UNL     1       0.312  -2.548  -0.500  0.00  0.00    -0.226 OA
ATOM     28  N   UNL     1       1.395  -2.298  -2.422  0.00  0.00    -0.221 N 
ATOM     29  C   UNL     1       1.500  -3.632  -2.583  0.00  0.00    +0.232 C 
ATOM     30  O   UNL     1       1.037  -4.381  -1.750  0.00  0.00    -0.274 OA
ATOM     31  H   UNL     1       1.765  -1.698  -3.088  0.00  0.00    +0.161 HD
BRANCH  26  32
ATOM     32  O   UNL     1       0.671  -0.465  -1.174  0.00  0.00    -0.450 OA
BRANCH  32  34
ATOM     33  C   UNL     1      -0.019   1.526   0.010  0.00  0.00    +0.048 C 
ATOM     34  C   UNL     1       0.002  -0.004   0.002  0.00  0.00    +0.230 C 
ENDBRANCH  32  34
ENDBRANCH  26  32
ENDBRANCH  25  29
ENDBRANCH  24  25
ENDBRANCH   1  24
TORSDOF 7
