REMARK  Name = ZINC65101286
REMARK  9 active torsions:
REMARK  status: ('A' for Active; 'I' for Inactive)
REMARK    1  A    between atoms: C_1  and  C_2
REMARK    2  A    between atoms: C_2  and  C_3
REMARK    3  A    between atoms: C_2  and  N_4
REMARK    4  A    between atoms: C_5  and  C_7
REMARK    5  A    between atoms: N_20  and  C_23
REMARK    6  A    between atoms: C_23  and  C_24
REMARK    7  A    between atoms: N_26  and  C_27
REMARK    8  A    between atoms: C_27  and  C_28
REMARK    9  A    between atoms: C_28  and  C_29
REMARK                            x       y       z     vdW  Elec       q    Type
REMARK                         _______ _______ _______ _____ _____    ______ ____
ROOT
ATOM      1  C   UNL     1      -3.465  -1.164  -1.134  0.00  0.00    +0.078 C 
ATOM      2  C   UNL     1      -3.485  -2.570  -0.530  0.00  0.00    +0.032 C 
ATOM      3  C   UNL     1      -4.928  -3.083  -0.489  0.00  0.00    +0.108 C 
ATOM      4  N   UNL     1      -5.498  -2.999  -1.840  0.00  0.00    -0.309 N 
ATOM      5  C   UNL     1      -5.449  -1.713  -2.549  0.00  0.00    +0.108 C 
ATOM      6  C   UNL     1      -4.000  -1.215  -2.567  0.00  0.00    +0.032 C 
ATOM      7  C   UNL     1      -6.068  -4.105  -2.432  0.00  0.00    +0.164 A 
ATOM      8  N   UNL     1      -6.195  -5.316  -1.933  0.00  0.00    -0.205 NA
ATOM      9  C   UNL     1      -6.771  -6.307  -2.613  0.00  0.00    +0.176 A 
ATOM     10  C   UNL     1      -7.219  -5.931  -3.892  0.00  0.00    +0.124 A 
ATOM     11  S   UNL     1      -6.771  -4.218  -3.958  0.00  0.00    -0.045 S 
ATOM     12  C   UNL     1      -7.844  -6.838  -4.737  0.00  0.00    +0.270 A 
ATOM     13  O   UNL     1      -8.229  -6.503  -5.845  0.00  0.00    -0.266 OA
ATOM     14  N   UNL     1      -8.011  -8.108  -4.293  0.00  0.00    -0.289 N 
ATOM     15  C   UNL     1      -7.568  -8.444  -3.054  0.00  0.00    +0.204 A 
ATOM     16  N   UNL     1      -6.984  -7.605  -2.257  0.00  0.00    -0.217 NA
ENDROOT
BRANCH   1  18
ATOM     17  N   UNL     1      -1.372  -0.511   0.012  0.00  0.00    -0.313 N 
ATOM     18  C   UNL     1      -2.051  -0.643  -1.145  0.00  0.00    +0.216 C 
ATOM     19  O   UNL     1      -1.524  -0.341  -2.194  0.00  0.00    -0.276 OA
ATOM     20  H   UNL     1      -1.794  -0.752   0.852  0.00  0.00    +0.149 HD
BRANCH  17  22
ATOM     21  C   UNL     1      -0.019   1.526   0.010  0.00  0.00    +0.027 C 
ATOM     22  C   UNL     1       0.002  -0.004   0.002  0.00  0.00    +0.067 C 
ATOM     23  C   UNL     1       0.742  -0.511   1.242  0.00  0.00    +0.027 C 
ENDBRANCH  17  22
ENDBRANCH   1  18
BRANCH  14  24
ATOM     24  C   UNL     1      -8.664  -9.109  -5.141  0.00  0.00    +0.222 C 
BRANCH  24  25
ATOM     25  C   UNL     1      -7.626  -9.809  -5.980  0.00  0.00    +0.233 C 
ATOM     26  O   UNL     1      -6.457  -9.504  -5.880  0.00  0.00    -0.274 OA
ATOM     27  N   UNL     1      -7.998 -10.776  -6.843  0.00  0.00    -0.314 N 
ATOM     28  H   UNL     1      -8.933 -11.021  -6.924  0.00  0.00    +0.149 HD
BRANCH  27  29
ATOM     29  C   UNL     1      -6.990 -11.457  -7.659  0.00  0.00    +0.108 C 
BRANCH  29  30
ATOM     30  C   UNL     1      -7.671 -12.502  -8.545  0.00  0.00    +0.049 C 
BRANCH  30  31
ATOM     31  C   UNL     1      -6.634 -13.203  -9.384  0.00  0.00    -0.072 C 
ATOM     32  C   UNL     1      -6.157 -14.325  -8.948  0.00  0.00    -0.028 C 
ATOM     33  C   UNL     1      -5.115 -15.131  -9.665  0.00  0.00    +0.027 C 
ATOM     34  C   UNL     1      -5.017 -14.686 -11.126  0.00  0.00    +0.004 C 
ATOM     35  C   UNL     1      -4.898 -13.157 -11.161  0.00  0.00    +0.005 C 
ATOM     36  C   UNL     1      -6.222 -12.560 -10.676  0.00  0.00    +0.030 C 
ENDBRANCH  30  31
ENDBRANCH  29  30
ENDBRANCH  27  29
ENDBRANCH  24  25
ENDBRANCH  14  24
TORSDOF 7
