REMARK  Name = ZINC40381002
REMARK  4 active torsions:
REMARK  status: ('A' for Active; 'I' for Inactive)
REMARK    1  A    between atoms: C_4  and  S_16
REMARK    2  A    between atoms: C_5  and  N_7
REMARK    3  A    between atoms: C_8  and  C_10
REMARK    4  A    between atoms: S_16  and  N_19
REMARK                            x       y       z     vdW  Elec       q    Type
REMARK                         _______ _______ _______ _____ _____    ______ ____
ROOT
ATOM      1  C   UNL     1      -0.028   1.372   0.038  0.00  0.00    +0.002 A 
ATOM      2  C   UNL     1       1.157   2.085   0.033  0.00  0.00    +0.002 A 
ATOM      3  C   UNL     1       2.368   1.419   0.009  0.00  0.00    +0.030 A 
ATOM      4  C   UNL     1       2.399   0.038  -0.009  0.00  0.00    +0.126 A 
ATOM      5  C   UNL     1       1.211  -0.681  -0.003  0.00  0.00    +0.060 A 
ATOM      6  C   UNL     1      -0.005  -0.008   0.020  0.00  0.00    +0.025 A 
ENDROOT
BRANCH   5   7
ATOM      7  N   UNL     1       1.238  -2.079  -0.022  0.00  0.00    -0.277 N 
ATOM      8  C   UNL     1       0.186  -2.767  -0.510  0.00  0.00    +0.286 C 
ATOM      9  O   UNL     1      -0.743  -2.173  -1.025  0.00  0.00    -0.266 OA
ATOM     10  H   UNL     1       2.013  -2.553   0.316  0.00  0.00    +0.155 HD
BRANCH   8  11
ATOM     11  C   UNL     1       0.162  -4.227  -0.419  0.00  0.00    +0.217 C 
ATOM     12  C   UNL     1       1.191  -4.864   0.157  0.00  0.00    +0.238 C 
ATOM     13  O   UNL     1       1.223  -6.210   0.260  0.00  0.00    -0.492 OA
ATOM     14  C   UNL     1      -0.021  -6.900   0.086  0.00  0.00    +0.269 C 
ATOM     15  C   UNL     1      -0.724  -6.311  -1.145  0.00  0.00    +0.270 C 
ATOM     16  O   UNL     1      -0.909  -4.907  -0.917  0.00  0.00    -0.481 OA
ENDBRANCH   8  11
ENDBRANCH   5   7
BRANCH   4  17
ATOM     17  S   UNL     1       3.943  -0.810  -0.040  0.00  0.00    +0.058 S 
ATOM     18  O   UNL     1       3.854  -1.777  -1.077  0.00  0.00    -0.153 OA
ATOM     19  O   UNL     1       4.955   0.188  -0.013  0.00  0.00    -0.153 OA
BRANCH  17  20
ATOM     20  N   UNL     1       4.069  -1.650   1.382  0.00  0.00    -0.203 NA
ATOM     21  H   UNL     1       4.570  -2.479   1.412  0.00  0.00    +0.144 HD
ATOM     22  H   UNL     1       3.641  -1.312   2.184  0.00  0.00    +0.144 HD
ENDBRANCH  17  20
ENDBRANCH   4  17
TORSDOF 4
