REMARK  Name = ZINC65920275
REMARK  5 active torsions:
REMARK  status: ('A' for Active; 'I' for Inactive)
REMARK    1  A    between atoms: C_5  and  C_7
REMARK    2  A    between atoms: C_7  and  N_8
REMARK    3  A    between atoms: C_10  and  C_13
REMARK    4  A    between atoms: N_15  and  N_16
REMARK    5  A    between atoms: N_19  and  C_20
REMARK                            x       y       z     vdW  Elec       q    Type
REMARK                         _______ _______ _______ _____ _____    ______ ____
ROOT
ATOM      1  C   UNL     1       0.446  -4.630   4.265  0.00  0.00    +0.263 C 
ATOM      2  O   UNL     1      -0.562  -5.264   4.021  0.00  0.00    -0.269 OA
ATOM      3  N   UNL     1       1.028  -4.730   5.476  0.00  0.00    -0.229 N 
ATOM      4  H   UNL     1       1.833  -4.223   5.671  0.00  0.00    +0.173 HD
ENDROOT
BRANCH   3   5
ATOM      5  N   UNL     1       0.472  -5.564   6.454  0.00  0.00    -0.218 N 
ATOM      6  C   UNL     1       1.055  -5.664   7.666  0.00  0.00    +0.316 C 
ATOM      7  O   UNL     1       0.572  -6.389   8.514  0.00  0.00    -0.251 OA
ATOM      8  N   UNL     1       2.172  -4.961   7.936  0.00  0.00    -0.295 N 
ATOM      9  H   UNL     1      -0.332  -6.071   6.260  0.00  0.00    +0.174 HD
ATOM     10  H   UNL     1       2.557  -4.383   7.259  0.00  0.00    +0.151 HD
BRANCH   8  11
ATOM     11  C   UNL     1       2.805  -5.070   9.253  0.00  0.00    +0.074 C 
ATOM     12  C   UNL     1       2.186  -4.043  10.223  0.00  0.00    +0.022 C 
ATOM     13  C   UNL     1       3.381  -3.565  11.085  0.00  0.00    +0.002 C 
ATOM     14  C   UNL     1       4.540  -3.505  10.058  0.00  0.00    +0.002 C 
ATOM     15  C   UNL     1       4.302  -4.728   9.148  0.00  0.00    +0.022 C 
ENDBRANCH   8  11
ENDBRANCH   3   5
BRANCH   1  18
ATOM     16  N   UNL     1       1.369  -2.680   1.350  0.00  0.00    -0.266 N 
ATOM     17  C   UNL     1       0.547  -3.550   1.959  0.00  0.00    +0.121 A 
ATOM     18  C   UNL     1       1.031  -3.751   3.236  0.00  0.00    +0.076 A 
ATOM     19  C   UNL     1       2.192  -2.957   3.372  0.00  0.00    +0.147 A 
ATOM     20  N   UNL     1       2.387  -2.331   2.245  0.00  0.00    -0.179 NA
BRANCH  16  21
ATOM     21  C   UNL     1       1.229  -2.186  -0.022  0.00  0.00    +0.180 C 
BRANCH  21  26
ATOM     22  C   UNL     1      -0.017   1.378   0.010  0.00  0.00    +0.000 A 
ATOM     23  C   UNL     1       1.171   2.086   0.002  0.00  0.00    +0.001 A 
ATOM     24  C   UNL     1       2.377   1.412  -0.013  0.00  0.00    +0.020 A 
ATOM     25  C   UNL     1       2.397   0.029  -0.021  0.00  0.00    +0.046 A 
ATOM     26  C   UNL     1       1.208  -0.679  -0.013  0.00  0.00    -0.008 A 
ATOM     27  C   UNL     1       0.002  -0.004   0.002  0.00  0.00    +0.007 A 
ATOM     28 CL   UNL     1       3.912  -0.818  -0.041  0.00  0.00    -0.083 Cl
ENDBRANCH  21  26
ENDBRANCH  16  21
ENDBRANCH   1  18
TORSDOF 5
