REMARK  Name = ZINC66427989
REMARK  6 active torsions:
REMARK  status: ('A' for Active; 'I' for Inactive)
REMARK    1  A    between atoms: C_1  and  N_2
REMARK    2  A    between atoms: N_2  and  C_3
REMARK    3  A    between atoms: C_3  and  C_4
REMARK    4  A    between atoms: N_6  and  C_7
REMARK    5  A    between atoms: C_7  and  C_8
REMARK    6  A    between atoms: C_12  and  C_14
REMARK                            x       y       z     vdW  Elec       q    Type
REMARK                         _______ _______ _______ _____ _____    ______ ____
ROOT
ATOM      1  C   UNL     1      -1.389  -1.016   1.714  0.00  0.00    +0.231 C 
ATOM      2  O   UNL     1      -2.322  -0.631   1.042  0.00  0.00    -0.274 OA
ATOM      3  N   UNL     1      -1.615  -1.688   2.860  0.00  0.00    -0.307 N 
ATOM      4  H   UNL     1      -0.869  -1.996   3.397  0.00  0.00    +0.149 HD
ENDROOT
BRANCH   1   5
ATOM      5  C   UNL     1       0.024  -0.743   1.267  0.00  0.00    +0.201 C 
BRANCH   5   7
ATOM      6  C   UNL     1      -0.018   1.461   0.010  0.00  0.00    +0.131 C 
ATOM      7  N   UNL     1       0.002  -0.004   0.002  0.00  0.00    -0.308 N 
ATOM      8  C   UNL     1       0.000  -0.693  -1.206  0.00  0.00    +0.140 A 
ATOM      9  C   UNL     1       0.090   0.006  -2.408  0.00  0.00    +0.154 A 
ATOM     10  N   UNL     1       0.088  -0.652  -3.552  0.00  0.00    -0.258 NA
ATOM     11  C   UNL     1       0.000  -1.972  -3.558  0.00  0.00    +0.130 A 
ATOM     12  C   UNL     1      -0.089  -2.667  -2.367  0.00  0.00    +0.132 A 
ATOM     13  N   UNL     1      -0.082  -2.017  -1.216  0.00  0.00    -0.237 NA
ENDBRANCH   5   7
ENDBRANCH   1   5
BRANCH   3  14
ATOM     14  C   UNL     1      -2.989  -1.953   3.295  0.00  0.00    +0.180 C 
BRANCH  14  15
ATOM     15  C   UNL     1      -2.966  -2.714   4.595  0.00  0.00    +0.143 A 
ATOM     16  N   UNL     1      -3.062  -2.175   5.824  0.00  0.00    -0.261 N 
ATOM     17  H   UNL     1      -3.159  -1.234   6.039  0.00  0.00    +0.190 HD
ATOM     18  N   UNL     1      -2.997  -3.242   6.735  0.00  0.00    -0.152 NA
ATOM     19  C   UNL     1      -2.868  -4.341   6.022  0.00  0.00    +0.188 A 
ATOM     20  N   UNL     1      -2.856  -4.010   4.722  0.00  0.00    -0.209 NA
BRANCH  19  21
ATOM     21  C   UNL     1      -2.760  -5.713   6.563  0.00  0.00    +0.058 A 
ATOM     22  C   UNL     1      -2.776  -6.129   7.867  0.00  0.00    +0.019 A 
ATOM     23  C   UNL     1      -2.659  -7.476   8.134  0.00  0.00    +0.008 A 
ATOM     24  C   UNL     1      -2.532  -8.346   7.100  0.00  0.00    +0.046 A 
ATOM     25  S   UNL     1      -2.584  -7.258   5.686  0.00  0.00    -0.093 S 
ENDBRANCH  19  21
ENDBRANCH  14  15
ENDBRANCH   3  14
TORSDOF 5
