REMARK  Name = ZINC65832988
REMARK  6 active torsions:
REMARK  status: ('A' for Active; 'I' for Inactive)
REMARK    1  A    between atoms: C_1  and  C_2
REMARK    2  A    between atoms: C_3  and  S_9
REMARK    3  A    between atoms: N_5  and  C_7
REMARK    4  A    between atoms: S_9  and  N_12
REMARK    5  A    between atoms: N_12  and  N_13
REMARK    6  A    between atoms: N_16  and  C_17
REMARK                            x       y       z     vdW  Elec       q    Type
REMARK                         _______ _______ _______ _____ _____    ______ ____
ROOT
ATOM      1  N   UNL     1       1.568  -0.085  -3.281  0.00  0.00    -0.107 NA
ATOM      2  H   UNL     1       1.893   0.782  -3.570  0.00  0.00    +0.172 HD
ENDROOT
BRANCH   1   3
ATOM      3  N   UNL     1       2.433  -1.187  -3.263  0.00  0.00    -0.216 N 
ATOM      4  C   UNL     1       3.100  -1.538  -4.380  0.00  0.00    +0.315 C 
ATOM      5  O   UNL     1       3.851  -2.495  -4.365  0.00  0.00    -0.251 OA
ATOM      6  N   UNL     1       2.935  -0.829  -5.514  0.00  0.00    -0.296 N 
ATOM      7  H   UNL     1       2.552  -1.697  -2.446  0.00  0.00    +0.172 HD
ATOM      8  H   UNL     1       2.336  -0.066  -5.527  0.00  0.00    +0.151 HD
BRANCH   6   9
ATOM      9  C   UNL     1       3.660  -1.211  -6.729  0.00  0.00    +0.074 C 
ATOM     10  C   UNL     1       5.041  -0.524  -6.758  0.00  0.00    +0.022 C 
ATOM     11  C   UNL     1       5.261  -0.175  -8.251  0.00  0.00    +0.002 C 
ATOM     12  C   UNL     1       3.844   0.247  -8.715  0.00  0.00    +0.002 C 
ATOM     13  C   UNL     1       2.899  -0.721  -7.973  0.00  0.00    +0.022 C 
ENDBRANCH   6   9
ENDBRANCH   1   3
BRANCH   1  14
ATOM     14  S   UNL     1      -0.009  -0.263  -2.808  0.00  0.00    +0.078 S 
ATOM     15  O   UNL     1      -0.548  -1.324  -3.583  0.00  0.00    -0.152 OA
ATOM     16  O   UNL     1      -0.579   1.039  -2.798  0.00  0.00    -0.152 OA
BRANCH  14  19
ATOM     17  C   UNL     1      -0.018   1.503   0.010  0.00  0.00    +0.069 C 
ATOM     18  C   UNL     1       0.002  -0.004   0.002  0.00  0.00    +0.088 A 
ATOM     19  C   UNL     1       0.008  -0.818  -1.135  0.00  0.00    +0.166 A 
ATOM     20  C   UNL     1       0.028  -2.108  -0.724  0.00  0.00    +0.154 A 
ATOM     21  N   UNL     1       0.035  -2.109   0.626  0.00  0.00    -0.254 N 
ATOM     22  N   UNL     1       0.023  -0.777   1.058  0.00  0.00    -0.173 NA
ATOM     23  C   UNL     1       0.055  -3.294   1.487  0.00  0.00    +0.174 C 
ATOM     24 CL   UNL     1       0.043  -3.509  -1.749  0.00  0.00    -0.060 Cl
ENDBRANCH  14  19
ENDBRANCH   1  14
TORSDOF 4
