REMARK  Name = ZINC13461528
REMARK  6 active torsions:
REMARK  status: ('A' for Active; 'I' for Inactive)
REMARK    1  A    between atoms: C_6  and  C_7
REMARK    2  A    between atoms: C_7  and  C_9
REMARK    3  A    between atoms: C_7  and  N_12
REMARK    4  A    between atoms: N_15  and  C_18
REMARK    5  A    between atoms: C_21  and  N_27
REMARK    6  A    between atoms: C_22  and  C_24
REMARK                            x       y       z     vdW  Elec       q    Type
REMARK                         _______ _______ _______ _____ _____    ______ ____
ROOT
ATOM      1  N   UNL     1      -1.134  -1.905   0.927  0.00  0.00    -0.285 NA
ATOM      2  C   UNL     1      -0.745  -1.501   2.284  0.00  0.00    +0.104 C 
ATOM      3  C   UNL     1      -0.442  -2.751   3.118  0.00  0.00    +0.120 C 
ATOM      4  N   UNL     1      -1.602  -3.653   3.046  0.00  0.00    -0.327 N 
ATOM      5  C   UNL     1      -2.136  -3.994   1.719  0.00  0.00    +0.120 C 
ATOM      6  C   UNL     1      -2.372  -2.695   0.940  0.00  0.00    +0.104 C 
ENDROOT
BRANCH   4   7
ATOM      7  C   UNL     1      -2.180  -4.172   4.207  0.00  0.00    +0.031 A 
ATOM      8  C   UNL     1      -3.343  -4.929   4.126  0.00  0.00    +0.025 A 
ATOM      9  C   UNL     1      -3.919  -5.446   5.271  0.00  0.00    +0.035 A 
ATOM     10  C   UNL     1      -3.345  -5.213   6.504  0.00  0.00    +0.140 A 
ATOM     11  C   UNL     1      -2.176  -4.452   6.598  0.00  0.00    +0.095 A 
ATOM     12  C   UNL     1      -1.591  -3.936   5.440  0.00  0.00    +0.040 A 
BRANCH  11  13
ATOM     13  C   UNL     1      -1.559  -4.201   7.914  0.00  0.00    +0.389 C 
ATOM     14  O   UNL     1      -1.943  -3.264   8.600  0.00  0.00    -0.241 OA
ATOM     15  O   UNL     1      -0.664  -4.929   8.320  0.00  0.00    -0.241 OA
ENDBRANCH  11  13
BRANCH  10  16
ATOM     16  N   UNL     1      -3.966  -5.767   7.727  0.00  0.00    +0.057 N 
ATOM     17  O   UNL     1      -4.923  -6.502   7.640  0.00  0.00    -0.126 OA
ATOM     18  O   UNL     1      -3.518  -5.486   8.814  0.00  0.00    -0.126 OA
ENDBRANCH  10  16
ENDBRANCH   4   7
BRANCH   1  19
ATOM     19  C   UNL     1      -1.266  -0.735   0.048  0.00  0.00    +0.174 C 
BRANCH  19  25
ATOM     20  C   UNL     1      -0.014   1.432   0.073  0.00  0.00    +0.007 A 
ATOM     21  C   UNL     1       1.166   2.152   0.084  0.00  0.00    +0.020 A 
ATOM     22  C   UNL     1       2.381   1.490   0.082  0.00  0.00    +0.041 A 
ATOM     23  C   UNL     1       2.414   0.107   0.068  0.00  0.00    +0.020 A 
ATOM     24  C   UNL     1       1.234  -0.612   0.057  0.00  0.00    +0.007 A 
ATOM     25  C   UNL     1       0.020   0.050   0.059  0.00  0.00    -0.021 A 
ATOM     26 CL   UNL     1       3.862   2.394   0.095  0.00  0.00    -0.084 Cl
ENDBRANCH  19  25
BRANCH  19  27
ATOM     27  C   UNL     1      -1.562  -1.194  -1.357  0.00  0.00    +0.232 C 
ATOM     28  O   UNL     1      -1.654  -2.378  -1.602  0.00  0.00    -0.274 OA
ATOM     29  N   UNL     1      -1.724  -0.288  -2.342  0.00  0.00    -0.328 N 
ATOM     30  H   UNL     1      -1.651   0.659  -2.146  0.00  0.00    +0.145 HD
ATOM     31  H   UNL     1      -1.915  -0.583  -3.246  0.00  0.00    +0.145 HD
ENDBRANCH  19  27
ENDBRANCH   1  19
TORSDOF 6
