REMARK  Name = ZINC03847461
REMARK  11 active torsions:
REMARK  status: ('A' for Active; 'I' for Inactive)
REMARK    1  A    between atoms: C_1  and  O_2
REMARK    2  A    between atoms: O_2  and  C_3
REMARK    3  A    between atoms: C_3  and  C_4
REMARK    4  A    between atoms: C_3  and  O_28
REMARK    5  A    between atoms: C_4  and  N_50
REMARK    6  A    between atoms: C_5  and  C_7
REMARK    7  A    between atoms: C_5  and  C_16
REMARK    8  A    between atoms: C_5  and  N_50
REMARK    9  A    between atoms: C_16  and  C_18
REMARK   10  A    between atoms: C_16  and  O_27
REMARK   11  A    between atoms: O_28  and  C_29
REMARK                            x       y       z     vdW  Elec       q    Type
REMARK                         _______ _______ _______ _____ _____    ______ ____
ROOT
ATOM      1  C   UNL     1       0.251   3.861  -1.910  0.00  0.00    -0.007 C 
ENDROOT
BRANCH   1   2
ATOM      2  C   UNL     1      -0.126   5.315  -2.030  0.00  0.00    -0.055 A 
ATOM      3  C   UNL     1       0.861   6.280  -2.099  0.00  0.00    +0.006 A 
ATOM      4  C   UNL     1       0.520   7.615  -2.209  0.00  0.00    +0.050 A 
ATOM      5  C   UNL     1      -0.814   7.989  -2.250  0.00  0.00    +0.166 A 
ATOM      6  C   UNL     1      -1.808   7.017  -2.180  0.00  0.00    +0.166 A 
ATOM      7  C   UNL     1      -1.459   5.680  -2.075  0.00  0.00    +0.051 A 
ATOM      8  O   UNL     1      -3.025   7.632  -2.240  0.00  0.00    -0.453 OA
ATOM      9  C   UNL     1      -2.764   8.950  -2.757  0.00  0.00    +0.466 C 
ATOM     10  O   UNL     1      -1.408   9.214  -2.353  0.00  0.00    -0.453 OA
ENDBRANCH   1   2
BRANCH   1  11
ATOM     11  N   UNL     1       1.444   3.592  -2.736  0.00  0.00    +0.389 N 
ATOM     12  H   UNL     1       2.042   4.426  -2.747  0.00  0.00    -0.085 HD
ATOM     13  H   UNL     1       1.963   2.803  -2.333  0.00  0.00    -0.085 HD
BRANCH  11  14
ATOM     14  C   UNL     1       1.046   3.260  -4.117  0.00  0.00    -0.019 C 
BRANCH  14  15
ATOM     15  C   UNL     1       2.292   2.880  -4.919  0.00  0.00    +0.233 C 
BRANCH  15  17
ATOM     16  C   UNL     1       4.092   3.985  -6.052  0.00  0.00    +0.197 C 
ATOM     17  O   UNL     1       3.204   3.980  -4.933  0.00  0.00    -0.356 OA
ENDBRANCH  15  17
BRANCH  15  18
ATOM     18  O   UNL     1       2.921   1.748  -4.316  0.00  0.00    -0.356 OA
ATOM     19  C   UNL     1       4.020   1.226  -5.064  0.00  0.00    +0.197 C 
ENDBRANCH  15  18
ENDBRANCH  14  15
ENDBRANCH  11  14
ENDBRANCH   1  11
BRANCH   1  20
ATOM     20  C   UNL     1       0.568   3.535  -0.449  0.00  0.00    +0.135 C 
BRANCH  20  21
ATOM     21  C   UNL     1       0.945   2.080  -0.329  0.00  0.00    -0.017 A 
ATOM     22  C   UNL     1      -0.041   1.112  -0.296  0.00  0.00    +0.010 A 
ATOM     23  C   UNL     1       0.300  -0.223  -0.187  0.00  0.00    +0.050 A 
ATOM     24  C   UNL     1       1.632  -0.594  -0.110  0.00  0.00    +0.166 A 
ATOM     25  C   UNL     1       2.626   0.381  -0.144  0.00  0.00    +0.167 A 
ATOM     26  C   UNL     1       2.277   1.718  -0.252  0.00  0.00    +0.055 A 
ATOM     27  O   UNL     1       3.842  -0.232  -0.054  0.00  0.00    -0.453 OA
ATOM     28  C   UNL     1       3.601  -1.614  -0.377  0.00  0.00    +0.466 C 
ATOM     29  O   UNL     1       2.226  -1.818  -0.000  0.00  0.00    -0.453 OA
ENDBRANCH  20  21
BRANCH  20  30
ATOM     30  O   UNL     1      -0.583   3.796   0.358  0.00  0.00    -0.388 OA
ATOM     31  H   UNL     1      -1.361   3.278   0.112  0.00  0.00    +0.210 HD
ENDBRANCH  20  30
ENDBRANCH   1  20
TORSDOF 9
