REMARK  Name = ZINC13204306
REMARK  10 active torsions:
REMARK  status: ('A' for Active; 'I' for Inactive)
REMARK    1  A    between atoms: C_1  and  C_2
REMARK    2  A    between atoms: C_2  and  C_3
REMARK    3  A    between atoms: C_2  and  C_5
REMARK    4  A    between atoms: C_2  and  N_8
REMARK    5  A    between atoms: C_9  and  C_11
REMARK    6  A    between atoms: C_11  and  S_12
REMARK    7  A    between atoms: S_12  and  C_13
REMARK    8  A    between atoms: C_16  and  C_21
REMARK    9  A    between atoms: N_17  and  C_18
REMARK   10  A    between atoms: C_18  and  C_19
REMARK                            x       y       z     vdW  Elec       q    Type
REMARK                         _______ _______ _______ _____ _____    ______ ____
ROOT
ATOM      1  C   UNL     1      -0.718   3.522  -0.032  0.00  0.00    +0.193 A 
ATOM      2  N   UNL     1       0.596   3.530  -0.040  0.00  0.00    -0.122 NA
ATOM      3  N   UNL     1       1.044   2.327   0.027  0.00  0.00    -0.128 NA
ATOM      4  C   UNL     1       0.044   1.478   0.082  0.00  0.00    +0.165 A 
ATOM      5  N   UNL     1      -1.115   2.218   0.040  0.00  0.00    -0.291 N 
ENDROOT
BRANCH   4   6
ATOM      6  C   UNL     1       0.145   0.006   0.166  0.00  0.00    +0.019 A 
ATOM      7  C   UNL     1      -0.943  -0.746   0.612  0.00  0.00    +0.013 A 
ATOM      8  C   UNL     1      -0.844  -2.120   0.685  0.00  0.00    +0.021 A 
ATOM      9  C   UNL     1       0.334  -2.752   0.326  0.00  0.00    +0.041 A 
ATOM     10  C   UNL     1       1.419  -2.011  -0.112  0.00  0.00    +0.021 A 
ATOM     11  C   UNL     1       1.331  -0.637  -0.194  0.00  0.00    +0.013 A 
ATOM     12 CL   UNL     1       0.453  -4.481   0.426  0.00  0.00    -0.084 Cl
ENDBRANCH   4   6
BRANCH   1  13
ATOM     13  S   UNL     1      -1.771   4.933  -0.108  0.00  0.00    -0.077 S 
BRANCH  13  14
ATOM     14  C   UNL     1      -0.530   6.248  -0.191  0.00  0.00    +0.173 C 
BRANCH  14  16
ATOM     15  N   UNL     1      -0.491   8.717  -0.334  0.00  0.00    -0.297 N 
ATOM     16  C   UNL     1      -1.220   7.586  -0.264  0.00  0.00    +0.224 C 
ATOM     17  O   UNL     1      -2.432   7.644  -0.261  0.00  0.00    -0.275 OA
ATOM     18  H   UNL     1       0.478   8.670  -0.337  0.00  0.00    +0.150 HD
BRANCH  15  20
ATOM     19  C   UNL     1      -2.043  10.069  -1.655  0.00  0.00    +0.048 C 
ATOM     20  C   UNL     1      -1.162  10.018  -0.406  0.00  0.00    +0.121 C 
BRANCH  20  21
ATOM     21  C   UNL     1      -0.113  11.129  -0.476  0.00  0.00    +0.026 C 
ATOM     22  C   UNL     1      -0.058  12.124   0.685  0.00  0.00    +0.007 C 
ATOM     23  C   UNL     1      -0.613  12.562  -0.672  0.00  0.00    +0.007 C 
ENDBRANCH  20  21
BRANCH  20  24
ATOM     24  C   UNL     1      -1.996  10.206   0.792  0.00  0.00    +0.088 C 
ATOM     25  N   UNL     1      -2.640  10.351   1.716  0.00  0.00    -0.194 NA
ENDBRANCH  20  24
ENDBRANCH  15  20
ENDBRANCH  14  16
ENDBRANCH  13  14
ENDBRANCH   1  13
BRANCH   5  26
ATOM     26  C   UNL     1      -2.490   1.711   0.070  0.00  0.00    +0.250 C 
BRANCH  26  27
ATOM     27  C   UNL     1      -2.971   1.649   1.497  0.00  0.00    +0.375 C 
ATOM     28  O   UNL     1      -2.241   1.993   2.396  0.00  0.00    -0.244 OA
ATOM     29  O   UNL     1      -4.211   1.212   1.768  0.00  0.00    -0.244 OA
ENDBRANCH  26  27
ENDBRANCH   5  26
TORSDOF 9
