REMARK  Name = ZINC66897273
REMARK  8 active torsions:
REMARK  status: ('A' for Active; 'I' for Inactive)
REMARK    1  A    between atoms: C_1  and  C_2
REMARK    2  A    between atoms: C_3  and  N_11
REMARK    3  A    between atoms: C_7  and  N_8
REMARK    4  A    between atoms: C_12  and  C_14
REMARK    5  A    between atoms: C_14  and  N_15
REMARK    6  A    between atoms: C_17  and  C_24
REMARK    7  A    between atoms: C_21  and  C_22
REMARK    8  A    between atoms: C_21  and  C_23
REMARK                            x       y       z     vdW  Elec       q    Type
REMARK                         _______ _______ _______ _____ _____    ______ ____
ROOT
ATOM      1  C   UNL     1      -1.050   0.257  -4.865  0.00  0.00    +0.181 C 
ENDROOT
BRANCH   1   2
ATOM      2  N   UNL     1      -1.313  -0.704  -5.944  0.00  0.00    -0.284 NA
ATOM      3  C   UNL     1      -0.090  -1.432  -6.311  0.00  0.00    +0.122 C 
ATOM      4  C   UNL     1      -0.420  -2.462  -7.394  0.00  0.00    +0.162 C 
ATOM      5  O   UNL     1      -1.010  -1.796  -8.514  0.00  0.00    -0.369 OA
ATOM      6  C   UNL     1      -2.204  -1.077  -8.193  0.00  0.00    +0.182 C 
ATOM      7  C   UNL     1      -1.891  -0.033  -7.118  0.00  0.00    +0.040 C 
ATOM      8  C   UNL     1      -0.890   0.985  -7.669  0.00  0.00    +0.030 C 
ATOM      9  C   UNL     1      -3.180   0.685  -6.713  0.00  0.00    +0.030 C 
BRANCH   4  10
ATOM     10  C   UNL     1       0.843  -3.158  -7.830  0.00  0.00    -0.018 A 
ATOM     11  C   UNL     1       1.701  -2.540  -8.720  0.00  0.00    +0.006 A 
ATOM     12  C   UNL     1       2.860  -3.178  -9.120  0.00  0.00    +0.000 A 
ATOM     13  C   UNL     1       3.162  -4.434  -8.628  0.00  0.00    +0.000 A 
ATOM     14  C   UNL     1       2.305  -5.052  -7.736  0.00  0.00    +0.000 A 
ATOM     15  C   UNL     1       1.148  -4.412  -7.334  0.00  0.00    +0.006 A 
ENDBRANCH   4  10
ENDBRANCH   1   2
BRANCH   1  17
ATOM     16  N   UNL     1      -0.411   0.193  -2.476  0.00  0.00    -0.284 N 
ATOM     17  C   UNL     1      -0.694  -0.488  -3.604  0.00  0.00    +0.231 C 
ATOM     18  O   UNL     1      -0.662  -1.700  -3.606  0.00  0.00    -0.274 OA
ATOM     19  H   UNL     1      -0.384   1.162  -2.489  0.00  0.00    +0.155 HD
BRANCH  16  22
ATOM     20  C   UNL     1      -1.255   1.371  -0.027  0.00  0.00    +0.048 C 
ATOM     21  C   UNL     1      -0.550   0.040  -0.070  0.00  0.00    +0.001 A 
ATOM     22  C   UNL     1      -0.155  -0.499  -1.287  0.00  0.00    +0.039 A 
ATOM     23  C   UNL     1       0.495  -1.726  -1.322  0.00  0.00    +0.024 A 
ATOM     24  C   UNL     1       0.746  -2.407  -0.147  0.00  0.00    +0.004 A 
ATOM     25  C   UNL     1       0.350  -1.868   1.064  0.00  0.00    +0.033 A 
ATOM     26  C   UNL     1      -0.292  -0.643   1.102  0.00  0.00    +0.131 A 
BRANCH  26  27
ATOM     27  N   UNL     1      -0.707  -0.067   2.401  0.00  0.00    +0.057 N 
ATOM     28  O   UNL     1      -0.803   1.131   2.527  0.00  0.00    -0.126 OA
ATOM     29  O   UNL     1      -0.951  -0.795   3.335  0.00  0.00    -0.126 OA
ENDBRANCH  26  27
ENDBRANCH  16  22
ENDBRANCH   1  17
TORSDOF 5
