REMARK  Name = ZINC00125629
REMARK  8 active torsions:
REMARK  status: ('A' for Active; 'I' for Inactive)
REMARK    1  A    between atoms: C_1  and  C_2
REMARK    2  A    between atoms: C_8  and  N_24
REMARK    3  A    between atoms: C_9  and  C_22
REMARK    4  A    between atoms: C_10  and  C_12
REMARK    5  A    between atoms: C_14  and  O_20
REMARK    6  A    between atoms: C_16  and  O_18
REMARK    7  A    between atoms: O_18  and  C_19
REMARK    8  A    between atoms: O_20  and  C_21
REMARK                            x       y       z     vdW  Elec       q    Type
REMARK                         _______ _______ _______ _____ _____    ______ ____
ROOT
ATOM      1  C   UNL     1      -0.018   1.503   0.010  0.00  0.00    +0.109 C 
ATOM      2  C   UNL     1       0.002  -0.004   0.002  0.00  0.00    +0.195 A 
ATOM      3  N   UNL     1      -1.051  -0.777   0.003  0.00  0.00    -0.216 NA
ATOM      4  C   UNL     1      -0.646  -2.050  -0.005  0.00  0.00    +0.115 A 
ATOM      5  C   UNL     1       0.714  -2.047  -0.008  0.00  0.00    +0.216 A 
ATOM      6  O   UNL     1       1.109  -0.771  -0.013  0.00  0.00    -0.426 OA
ATOM      7  N   UNL     1       1.458  -3.226  -0.006  0.00  0.00    -0.272 N 
ATOM      8  C   UNL     1       0.793  -4.402   0.264  0.00  0.00    +0.102 C 
ATOM      9  C   UNL     1      -0.560  -4.486   0.276  0.00  0.00    +0.078 C 
ATOM     10  C   UNL     1      -1.461  -3.315  -0.013  0.00  0.00    +0.116 C 
ATOM     11  H   UNL     1       2.410  -3.218  -0.188  0.00  0.00    +0.156 HD
ENDROOT
BRANCH  10  12
ATOM     12  C   UNL     1      -2.099  -3.493  -1.367  0.00  0.00    -0.026 A 
ATOM     13  C   UNL     1      -1.308  -3.604  -2.494  0.00  0.00    +0.050 A 
ATOM     14  C   UNL     1      -1.894  -3.768  -3.741  0.00  0.00    +0.124 A 
ATOM     15  C   UNL     1      -3.274  -3.821  -3.856  0.00  0.00    +0.091 A 
ATOM     16  C   UNL     1      -4.066  -3.710  -2.724  0.00  0.00    +0.124 A 
ATOM     17  C   UNL     1      -3.476  -3.551  -1.478  0.00  0.00    +0.050 A 
BRANCH  16  18
ATOM     18  O   UNL     1      -5.420  -3.761  -2.833  0.00  0.00    -0.495 OA
ATOM     19  C   UNL     1      -5.959  -3.932  -4.145  0.00  0.00    +0.277 C 
ENDBRANCH  16  18
BRANCH  14  20
ATOM     20  O   UNL     1      -1.115  -3.877  -4.849  0.00  0.00    -0.495 OA
ATOM     21  C   UNL     1      -1.785  -4.044  -6.100  0.00  0.00    +0.277 C 
ENDBRANCH  14  20
ENDBRANCH  10  12
BRANCH   8  22
ATOM     22  N   UNL     1       1.528  -5.532   0.530  0.00  0.00    -0.346 N 
ATOM     23  H   UNL     1       2.498  -5.492   0.526  0.00  0.00    +0.144 HD
ATOM     24  H   UNL     1       1.079  -6.370   0.722  0.00  0.00    +0.144 HD
ENDBRANCH   8  22
BRANCH   9  25
ATOM     25  C   UNL     1      -1.162  -5.750   0.578  0.00  0.00    +0.099 C 
ATOM     26  N   UNL     1      -1.639  -6.753   0.817  0.00  0.00    -0.191 NA
ENDBRANCH   9  25
TORSDOF 5
