REMARK  Name = ZINC15900697
REMARK  5 active torsions:
REMARK  status: ('A' for Active; 'I' for Inactive)
REMARK    1  A    between atoms: C_4  and  N_25
REMARK    2  A    between atoms: C_5  and  C_7
REMARK    3  A    between atoms: C_8  and  C_9
REMARK    4  A    between atoms: N_11  and  N_12
REMARK    5  A    between atoms: C_13  and  C_15
REMARK                            x       y       z     vdW  Elec       q    Type
REMARK                         _______ _______ _______ _____ _____    ______ ____
ROOT
ATOM      1  C   UNL     1       1.138   1.927  -0.821  0.00  0.00    +0.253 C 
ATOM      2  O   UNL     1       1.068   3.128  -1.006  0.00  0.00    -0.269 OA
ATOM      3  N   UNL     1       2.334   1.307  -0.868  0.00  0.00    -0.231 N 
ATOM      4  H   UNL     1       2.389   0.350  -0.720  0.00  0.00    +0.173 HD
ENDROOT
BRANCH   3   5
ATOM      5  N   UNL     1       3.496   2.044  -1.131  0.00  0.00    -0.234 N 
ATOM      6  C   UNL     1       4.691   1.423  -1.178  0.00  0.00    +0.235 C 
ATOM      7  O   UNL     1       4.761   0.227  -0.993  0.00  0.00    -0.274 OA
ATOM      8  H   UNL     1       3.440   3.001  -1.278  0.00  0.00    +0.173 HD
BRANCH   6   9
ATOM      9  C   UNL     1       5.941   2.216  -1.460  0.00  0.00    +0.049 C 
ATOM     10  C   UNL     1       5.820   2.889  -2.829  0.00  0.00    +0.019 C 
ATOM     11  C   UNL     1       7.089   3.694  -3.116  0.00  0.00    -0.009 C 
ATOM     12  C   UNL     1       8.299   2.757  -3.114  0.00  0.00    +0.007 C 
ATOM     13  C   UNL     1       8.420   2.084  -1.745  0.00  0.00    -0.009 C 
ATOM     14  C   UNL     1       7.151   1.279  -1.458  0.00  0.00    +0.019 C 
ATOM     15  C   UNL     1       8.601   3.153  -0.665  0.00  0.00    +0.007 C 
ATOM     16  C   UNL     1       7.391   4.090  -0.667  0.00  0.00    -0.009 C 
ATOM     17  C   UNL     1       7.270   4.763  -2.036  0.00  0.00    +0.007 C 
ATOM     18  C   UNL     1       6.122   3.285  -0.381  0.00  0.00    +0.019 C 
ENDBRANCH   6   9
ENDBRANCH   3   5
BRANCH   1  20
ATOM     19  C   UNL     1      -1.273   1.777  -0.504  0.00  0.00    +0.015 C 
ATOM     20  C   UNL     1      -0.076   1.157  -0.546  0.00  0.00    +0.069 C 
BRANCH  19  25
ATOM     21  C   UNL     1      -3.629  -1.112  -0.091  0.00  0.00    +0.001 A 
ATOM     22  C   UNL     1      -4.793  -0.458   0.274  0.00  0.00    +0.002 A 
ATOM     23  C   UNL     1      -4.815   0.921   0.386  0.00  0.00    +0.033 A 
ATOM     24  C   UNL     1      -3.673   1.655   0.140  0.00  0.00    +0.133 A 
ATOM     25  C   UNL     1      -2.495   1.002  -0.235  0.00  0.00    +0.005 A 
ATOM     26  C   UNL     1      -2.481  -0.393  -0.346  0.00  0.00    +0.010 A 
BRANCH  24  27
ATOM     27  N   UNL     1      -3.696   3.129   0.266  0.00  0.00    +0.057 N 
ATOM     28  O   UNL     1      -2.730   3.717   0.717  0.00  0.00    -0.126 OA
ATOM     29  O   UNL     1      -4.682   3.755  -0.083  0.00  0.00    -0.126 OA
ENDBRANCH  24  27
ENDBRANCH  19  25
ENDBRANCH   1  20
TORSDOF 5
