REMARK  Name = ZINC64538876
REMARK  10 active torsions:
REMARK  status: ('A' for Active; 'I' for Inactive)
REMARK    1  A    between atoms: C_1  and  C_2
REMARK    2  A    between atoms: C_8  and  C_11
REMARK    3  A    between atoms: C_11  and  C_12
REMARK    4  A    between atoms: C_12  and  N_13
REMARK    5  A    between atoms: C_14  and  C_16
REMARK    6  A    between atoms: C_16  and  C_17
REMARK    7  A    between atoms: C_17  and  C_18
REMARK    8  A    between atoms: C_18  and  C_19
REMARK    9  A    between atoms: C_23  and  C_26
REMARK   10  A    between atoms: N_28  and  C_29
REMARK                            x       y       z     vdW  Elec       q    Type
REMARK                         _______ _______ _______ _____ _____    ______ ____
ROOT
ATOM      1  C   UNL     1      -2.525  -2.348   7.793  0.00  0.00    +0.096 C 
ENDROOT
BRANCH   1   3
ATOM      2  N   UNL     1      -1.367  -2.605   5.622  0.00  0.00    -0.315 N 
ATOM      3  C   UNL     1      -2.528  -2.601   6.308  0.00  0.00    +0.213 C 
ATOM      4  O   UNL     1      -3.575  -2.801   5.729  0.00  0.00    -0.276 OA
ATOM      5  H   UNL     1      -0.530  -2.445   6.085  0.00  0.00    +0.149 HD
BRANCH   2   6
ATOM      6  C   UNL     1      -1.370  -2.851   4.178  0.00  0.00    +0.108 C 
BRANCH   6   7
ATOM      7  C   UNL     1       0.065  -2.802   3.650  0.00  0.00    +0.052 C 
BRANCH   7  15
ATOM      8  C   UNL     1       0.017   1.518   0.041  0.00  0.00    +0.044 C 
ATOM      9  C   UNL     1       0.029   0.011   0.025  0.00  0.00    -0.050 A 
ATOM     10  C   UNL     1       0.030  -0.658  -1.206  0.00  0.00    +0.005 A 
ATOM     11  C   UNL     1       0.040  -2.005  -1.304  0.00  0.00    +0.026 A 
ATOM     12  C   UNL     1       0.051  -2.810  -0.133  0.00  0.00    +0.043 A 
ATOM     13  N   UNL     1       0.061  -4.111   0.033  0.00  0.00    -0.380 N 
ATOM     14  C   UNL     1       0.069  -4.400   1.471  0.00  0.00    +0.144 C 
ATOM     15  C   UNL     1       0.062  -3.056   2.164  0.00  0.00    -0.040 C 
ATOM     16  C   UNL     1       0.051  -2.127   1.181  0.00  0.00    -0.001 A 
ATOM     17  C   UNL     1       0.045  -0.659   1.199  0.00  0.00    +0.013 A 
ATOM     18  H   UNL     1       0.063  -4.772  -0.678  0.00  0.00    +0.160 HD
ENDBRANCH   7  15
ENDBRANCH   6   7
ENDBRANCH   2   6
ENDBRANCH   1   3
BRANCH   1  19
ATOM     19  C   UNL     1      -3.960  -2.397   8.322  0.00  0.00    +0.012 C 
BRANCH  19  20
ATOM     20  C   UNL     1      -3.957  -2.139   9.830  0.00  0.00    +0.040 C 
BRANCH  20  21
ATOM     21  C   UNL     1      -5.392  -2.188  10.359  0.00  0.00    +0.187 C 
ATOM     22  N   UNL     1      -5.436  -1.957  11.821  0.00  0.00    -0.177 NA
ATOM     23  N   UNL     1      -6.070  -2.697  12.547  0.00  0.00    -0.167 NA
ATOM     24  C   UNL     1      -6.814  -3.849  11.989  0.00  0.00    +0.272 C 
ATOM     25  S   UNL     1      -6.075  -3.905  10.294  0.00  0.00    -0.095 S 
BRANCH  24  26
ATOM     26  C   UNL     1      -8.294  -3.572  11.933  0.00  0.00    +0.254 C 
ATOM     27  O   UNL     1      -8.837  -3.387  10.865  0.00  0.00    -0.272 OA
ATOM     28  N   UNL     1      -9.015  -3.529  13.072  0.00  0.00    -0.283 N 
ATOM     29  H   UNL     1      -8.595  -3.742  13.920  0.00  0.00    +0.155 HD
BRANCH  28  30
ATOM     30  C   UNL     1     -10.368  -3.177  13.030  0.00  0.00    +0.035 A 
ATOM     31  C   UNL     1     -10.928  -2.439  14.065  0.00  0.00    +0.023 A 
ATOM     32  C   UNL     1     -12.264  -2.092  14.021  0.00  0.00    +0.003 A 
ATOM     33  C   UNL     1     -13.046  -2.478  12.948  0.00  0.00    +0.020 A 
ATOM     34  C   UNL     1     -12.492  -3.213  11.915  0.00  0.00    +0.043 A 
ATOM     35  C   UNL     1     -11.154  -3.559  11.950  0.00  0.00    +0.043 A 
ATOM     36 CL   UNL     1     -13.477  -3.697  10.569  0.00  0.00    -0.083 Cl
ENDBRANCH  28  30
ENDBRANCH  24  26
ENDBRANCH  20  21
ENDBRANCH  19  20
ENDBRANCH   1  19
TORSDOF 9
