REMARK  Name = ZINC03272558
REMARK  4 active torsions:
REMARK  status: ('A' for Active; 'I' for Inactive)
REMARK    1  A    between atoms: C_2  and  C_8
REMARK    2  A    between atoms: C_8  and  O_10
REMARK    3  A    between atoms: O_10  and  C_11
REMARK    4  A    between atoms: C_11  and  C_12
REMARK                            x       y       z     vdW  Elec       q    Type
REMARK                         _______ _______ _______ _____ _____    ______ ____
ROOT
ATOM      1  O   UNL     1       2.244   6.160   0.012  0.00  0.00    -0.452 OA
ENDROOT
BRANCH   1   2
ATOM      2  C   UNL     1       2.324   4.815   0.005  0.00  0.00    +0.341 C 
ATOM      3  O   UNL     1       3.411   4.271  -0.009  0.00  0.00    -0.245 OA
BRANCH   2   5
ATOM      4  C   UNL     1       1.161   2.603   0.005  0.00  0.00    +0.033 A 
ATOM      5  C   UNL     1       1.091   4.001   0.013  0.00  0.00    +0.078 A 
ATOM      6  C   UNL     1      -0.163   4.614   0.027  0.00  0.00    +0.125 A 
ATOM      7  N   UNL     1      -1.262   3.889   0.034  0.00  0.00    -0.261 NA
ATOM      8  C   UNL     1      -1.228   2.570   0.022  0.00  0.00    +0.126 A 
ATOM      9  C   UNL     1      -0.024   1.887   0.012  0.00  0.00    +0.037 A 
ATOM     10 BR   UNL     1       0.002  -0.004   0.002  0.00  0.00    -0.049 Br
ENDBRANCH   2   5
ENDBRANCH   1   2
BRANCH   1  11
ATOM     11  C   UNL     1       3.496   6.895   0.004  0.00  0.00    +0.328 C 
BRANCH  11  12
ATOM     12  C   UNL     1       3.210   8.374   0.014  0.00  0.00    +0.258 C 
ATOM     13  O   UNL     1       2.064   8.770   0.027  0.00  0.00    -0.272 OA
ATOM     14  N   UNL     1       4.228   9.258   0.009  0.00  0.00    -0.238 N 
ATOM     15  C   UNL     1       3.972  10.581   0.018  0.00  0.00    +0.303 C 
ATOM     16  O   UNL     1       2.823  10.978   0.031  0.00  0.00    -0.253 OA
ATOM     17  N   UNL     1       4.990  11.464   0.012  0.00  0.00    -0.313 N 
ATOM     18  H   UNL     1       5.145   8.941  -0.002  0.00  0.00    +0.159 HD
ATOM     19  H   UNL     1       5.907  11.148   0.002  0.00  0.00    +0.146 HD
ATOM     20  H   UNL     1       4.806  12.416   0.019  0.00  0.00    +0.146 HD
ENDBRANCH  11  12
ENDBRANCH   1  11
TORSDOF 4
