REMARK  Name = ZINC40730271
REMARK  7 active torsions:
REMARK  status: ('A' for Active; 'I' for Inactive)
REMARK    1  A    between atoms: C_1  and  C_2
REMARK    2  A    between atoms: C_3  and  C_20
REMARK    3  A    between atoms: C_6  and  C_7
REMARK    4  A    between atoms: C_9  and  C_16
REMARK    5  A    between atoms: C_10  and  C_15
REMARK    6  A    between atoms: C_11  and  C_14
REMARK    7  A    between atoms: N_17  and  O_18
REMARK                            x       y       z     vdW  Elec       q    Type
REMARK                         _______ _______ _______ _____ _____    ______ ____
ROOT
ATOM      1  C   UNL     1      -0.018   1.503   0.010  0.00  0.00    +0.047 C 
ATOM      2  C   UNL     1       0.002  -0.004   0.002  0.00  0.00    -0.007 A 
ATOM      3  C   UNL     1       0.009  -0.821  -1.135  0.00  0.00    +0.064 A 
ATOM      4  N   UNL     1       0.028  -2.070  -0.745  0.00  0.00    -0.170 NA
ATOM      5  N   UNL     1       0.034  -2.092   0.656  0.00  0.00    -0.216 N 
ATOM      6  C   UNL     1       0.023  -0.805   1.092  0.00  0.00    +0.047 A 
ATOM      7  C   UNL     1       0.030  -0.353   2.529  0.00  0.00    +0.066 C 
ATOM      8  C   UNL     1       0.054  -3.233   1.460  0.00  0.00    +0.187 A 
ATOM      9  C   UNL     1       0.076  -4.510   0.875  0.00  0.00    +0.068 A 
ATOM     10  C   UNL     1       0.095  -5.616   1.732  0.00  0.00    -0.014 A 
ATOM     11  C   UNL     1       0.091  -5.379   3.096  0.00  0.00    +0.064 A 
ATOM     12  N   UNL     1       0.069  -4.141   3.553  0.00  0.00    -0.152 NA
ATOM     13  N   UNL     1       0.058  -3.119   2.778  0.00  0.00    -0.129 NA
ATOM     14  C   UNL     1       0.111  -6.536   4.061  0.00  0.00    +0.068 C 
ATOM     15  C   UNL     1       0.118  -7.021   1.188  0.00  0.00    +0.046 C 
ATOM     16  C   UNL     1      -0.005  -0.343  -2.564  0.00  0.00    +0.068 C 
ENDROOT
BRANCH   9  17
ATOM     17  C   UNL     1       0.078  -4.680  -0.595  0.00  0.00    +0.166 C 
ATOM     18  N   UNL     1       1.205  -4.735  -1.242  0.00  0.00    -0.071 NA
ATOM     19  N   UNL     1      -1.120  -4.780  -1.282  0.00  0.00    -0.340 N 
ATOM     20  H   UNL     1      -1.961  -4.739  -0.800  0.00  0.00    +0.144 HD
ATOM     21  H   UNL     1      -1.119  -4.891  -2.246  0.00  0.00    +0.144 HD
BRANCH  18  22
ATOM     22  O   UNL     1       1.207  -4.897  -2.648  0.00  0.00    -0.408 OA
ATOM     23  H   UNL     1       2.091  -4.927  -3.039  0.00  0.00    +0.328 HD
ENDBRANCH  18  22
ENDBRANCH   9  17
TORSDOF 2
