REMARK  Name = ZINC39127263
REMARK  7 active torsions:
REMARK  status: ('A' for Active; 'I' for Inactive)
REMARK    1  A    between atoms: C_1  and  N_2
REMARK    2  A    between atoms: N_2  and  C_3
REMARK    3  A    between atoms: N_2  and  C_4
REMARK    4  A    between atoms: C_7  and  C_9
REMARK    5  A    between atoms: N_10  and  N_11
REMARK    6  A    between atoms: C_12  and  C_14
REMARK    7  A    between atoms: C_18  and  O_20
REMARK                            x       y       z     vdW  Elec       q    Type
REMARK                         _______ _______ _______ _____ _____    ______ ____
ROOT
ATOM      1  N   UNL     1       0.004  -4.611  -0.695  0.00  0.00    -0.203 N 
ATOM      2  C   UNL     1       0.161  -5.607   0.199  0.00  0.00    +0.263 C 
ATOM      3  O   UNL     1       0.409  -6.734  -0.184  0.00  0.00    -0.268 OA
ATOM      4  H   UNL     1      -0.121  -3.699  -0.389  0.00  0.00    +0.178 HD
ENDROOT
BRANCH   2   5
ATOM      5  C   UNL     1       0.032  -5.329   1.645  0.00  0.00    +0.042 A 
ATOM      6  C   UNL     1      -0.364  -4.064   2.082  0.00  0.00    +0.014 A 
ATOM      7  C   UNL     1      -0.484  -3.808   3.433  0.00  0.00    +0.019 A 
ATOM      8  C   UNL     1      -0.211  -4.802   4.356  0.00  0.00    +0.055 A 
ATOM      9  C   UNL     1       0.184  -6.063   3.930  0.00  0.00    +0.131 A 
ATOM     10  C   UNL     1       0.301  -6.332   2.577  0.00  0.00    +0.059 A 
ATOM     11  I   UNL     1      -0.395  -4.402   6.404  0.00  0.00    -0.040 I 
BRANCH   9  12
ATOM     12  O   UNL     1       0.451  -7.035   4.841  0.00  0.00    -0.506 OA
ATOM     13  H   UNL     1      -0.317  -7.573   5.079  0.00  0.00    +0.292 HD
ENDBRANCH   9  12
ENDBRANCH   2   5
BRANCH   1  15
ATOM     14  C   UNL     1      -0.020  -3.919  -2.933  0.00  0.00    +0.176 C 
ATOM     15  N   UNL     1       0.020  -4.892  -2.068  0.00  0.00    -0.184 NA
BRANCH  14  19
ATOM     16  C   UNL     1       0.215  -0.781  -1.156  0.00  0.00    +0.203 A 
ATOM     17  C   UNL     1       0.227  -0.312  -2.433  0.00  0.00    +0.079 A 
ATOM     18  C   UNL     1       0.140  -1.428  -3.281  0.00  0.00    +0.068 A 
ATOM     19  C   UNL     1       0.079  -2.532  -2.478  0.00  0.00    +0.151 A 
ATOM     20  O   UNL     1       0.131  -2.121  -1.192  0.00  0.00    -0.439 OA
ATOM     21 BR   UNL     1       0.337   1.499  -2.965  0.00  0.00    -0.045 Br
BRANCH  16  23
ATOM     22  C   UNL     1      -0.945   0.400   0.678  0.00  0.00    +0.132 C 
ATOM     23  N   UNL     1       0.284  -0.005  -0.008  0.00  0.00    -0.307 N 
ATOM     24  C   UNL     1       1.587   0.411   0.517  0.00  0.00    +0.132 C 
ENDBRANCH  16  23
ENDBRANCH  14  19
ENDBRANCH   1  15
TORSDOF 5
