REMARK  Name = ZINC63280769
REMARK  6 active torsions:
REMARK  status: ('A' for Active; 'I' for Inactive)
REMARK    1  A    between atoms: C_6  and  O_7
REMARK    2  A    between atoms: O_7  and  C_8
REMARK    3  A    between atoms: C_8  and  C_9
REMARK    4  A    between atoms: N_11  and  C_12
REMARK    5  A    between atoms: C_12  and  C_13
REMARK    6  A    between atoms: C_13  and  C_14
REMARK                            x       y       z     vdW  Elec       q    Type
REMARK                         _______ _______ _______ _____ _____    ______ ____
ROOT
ATOM      1  O   UNL     1      -1.168  -0.697   0.006  0.00  0.00    -0.483 OA
ENDROOT
BRANCH   1   7
ATOM      2  C   UNL     1      -0.017   1.386   0.010  0.00  0.00    +0.047 A 
ATOM      3  C   UNL     1       1.163   2.106   0.002  0.00  0.00    +0.027 A 
ATOM      4  C   UNL     1       2.375   1.438  -0.010  0.00  0.00    +0.041 A 
ATOM      5  C   UNL     1       2.398   0.031  -0.012  0.00  0.00    +0.061 A 
ATOM      6  C   UNL     1       1.207  -0.687  -0.009  0.00  0.00    +0.060 A 
ATOM      7  C   UNL     1       0.002  -0.004   0.002  0.00  0.00    +0.122 A 
ATOM      8  C   UNL     1       3.713  -0.646  -0.008  0.00  0.00    +0.250 C 
ATOM      9  O   UNL     1       3.805  -1.839   0.211  0.00  0.00    -0.270 OA
ATOM     10  N   UNL     1       4.795   0.095  -0.253  0.00  0.00    -0.279 N 
ATOM     11  C   UNL     1       6.182  -0.425  -0.011  0.00  0.00    +0.110 C 
ATOM     12  C   UNL     1       6.745  -0.593  -1.381  0.00  0.00    +0.019 C 
ATOM     13  C   UNL     1       6.744   0.674  -2.211  0.00  0.00    +0.002 C 
ATOM     14  C   UNL     1       5.471   0.714  -3.000  0.00  0.00    +0.003 C 
ATOM     15  C   UNL     1       4.403   1.571  -2.241  0.00  0.00    +0.042 C 
ATOM     16  C   UNL     1       4.725   1.479  -0.724  0.00  0.00    +0.161 C 
ATOM     17  N   UNL     1       3.588   2.126  -0.029  0.00  0.00    -0.325 N 
ATOM     18  H   UNL     1       3.683   2.993   0.396  0.00  0.00    +0.148 HD
ENDBRANCH   1   7
BRANCH   1  19
ATOM     19  C   UNL     1      -2.375   0.068   0.017  0.00  0.00    +0.324 C 
BRANCH  19  20
ATOM     20  C   UNL     1      -3.560  -0.863   0.020  0.00  0.00    +0.251 C 
ATOM     21  O   UNL     1      -3.388  -2.063   0.012  0.00  0.00    -0.272 OA
ATOM     22  N   UNL     1      -4.811  -0.361   0.030  0.00  0.00    -0.312 N 
ATOM     23  H   UNL     1      -4.949   0.599   0.036  0.00  0.00    +0.149 HD
BRANCH  22  24
ATOM     24  C   UNL     1      -5.963  -1.266   0.033  0.00  0.00    +0.108 C 
BRANCH  24  25
ATOM     25  C   UNL     1      -7.255  -0.447   0.045  0.00  0.00    +0.052 C 
BRANCH  25  26
ATOM     26  C   UNL     1      -8.440  -1.377   0.048  0.00  0.00    -0.040 C 
ATOM     27  C   UNL     1      -9.135  -1.807   1.126  0.00  0.00    +0.000 A 
ATOM     28  C   UNL     1      -8.999  -1.547   2.564  0.00  0.00    +0.030 A 
ATOM     29  C   UNL     1      -9.864  -2.136   3.422  0.00  0.00    +0.042 A 
ATOM     30  C   UNL     1     -10.884  -2.986   2.972  0.00  0.00    +0.022 A 
ATOM     31  C   UNL     1     -11.072  -3.273   1.666  0.00  0.00    +0.027 A 
ATOM     32  C   UNL     1     -10.220  -2.708   0.677  0.00  0.00    +0.043 A 
ATOM     33  N   UNL     1     -10.198  -2.831  -0.628  0.00  0.00    -0.380 N 
ATOM     34  C   UNL     1      -9.098  -2.015  -1.156  0.00  0.00    +0.144 C 
ATOM     35 CL   UNL     1      -9.707  -1.831   5.124  0.00  0.00    -0.084 Cl
ATOM     36  H   UNL     1     -10.808  -3.368  -1.157  0.00  0.00    +0.160 HD
ENDBRANCH  25  26
ENDBRANCH  24  25
ENDBRANCH  22  24
ENDBRANCH  19  20
ENDBRANCH   1  19
TORSDOF 6
