REMARK  Name = ZINC34748425
REMARK  9 active torsions:
REMARK  status: ('A' for Active; 'I' for Inactive)
REMARK    1  A    between atoms: C_1  and  C_2
REMARK    2  A    between atoms: C_3  and  C_32
REMARK    3  A    between atoms: N_9  and  C_22
REMARK    4  A    between atoms: N_15  and  C_18
REMARK    5  A    between atoms: C_18  and  C_19
REMARK    6  A    between atoms: C_19  and  C_20
REMARK    7  A    between atoms: C_19  and  C_21
REMARK    8  A    between atoms: C_22  and  C_23
REMARK    9  A    between atoms: N_25  and  C_26
REMARK                            x       y       z     vdW  Elec       q    Type
REMARK                         _______ _______ _______ _____ _____    ______ ____
ROOT
ATOM      1  C   UNL     1       0.001   1.468  -0.036  0.00  0.00    +0.045 C 
ATOM      2  C   UNL     1       0.073  -0.037  -0.021  0.00  0.00    -0.026 A 
ATOM      3  C   UNL     1       0.163  -0.724  -1.169  0.00  0.00    -0.008 A 
ATOM      4  S   UNL     1       0.219  -2.423  -0.633  0.00  0.00    -0.073 S 
ATOM      5  C   UNL     1       0.120  -2.162   1.120  0.00  0.00    +0.117 A 
ATOM      6  C   UNL     1       0.052  -0.761   1.239  0.00  0.00    +0.075 A 
ATOM      7  C   UNL     1      -0.032  -0.253   2.574  0.00  0.00    +0.264 A 
ATOM      8  O   UNL     1      -0.099   0.947   2.775  0.00  0.00    -0.267 OA
ATOM      9  N   UNL     1      -0.036  -1.119   3.604  0.00  0.00    -0.271 N 
ATOM     10  C   UNL     1       0.039  -2.465   3.399  0.00  0.00    +0.202 A 
ATOM     11  N   UNL     1       0.106  -2.960   2.181  0.00  0.00    -0.208 NA
ATOM     12  N   UNL     1       0.032  -3.315   4.476  0.00  0.00    -0.304 N 
ATOM     13  C   UNL     1      -1.230  -3.856   5.005  0.00  0.00    +0.089 C 
ATOM     14  C   UNL     1      -1.090  -5.376   5.136  0.00  0.00    -0.060 C 
ATOM     15  N   UNL     1       0.092  -5.690   5.948  0.00  0.00    +0.382 N 
ATOM     16  C   UNL     1       1.307  -5.240   5.258  0.00  0.00    -0.060 C 
ATOM     17  C   UNL     1       1.287  -3.717   5.130  0.00  0.00    +0.089 C 
ATOM     18  C   UNL     1       0.206  -0.187  -2.577  0.00  0.00    +0.052 C 
ATOM     19  H   UNL     1       0.020  -5.223   6.839  0.00  0.00    -0.082 HD
ENDROOT
BRANCH  15  20
ATOM     20  C   UNL     1       0.163  -7.141   6.165  0.00  0.00    -0.076 C 
BRANCH  20  21
ATOM     21  C   UNL     1       1.321  -7.459   7.113  0.00  0.00    -0.034 C 
ATOM     22  C   UNL     1       1.033  -6.858   8.490  0.00  0.00    +0.005 C 
ATOM     23  C   UNL     1       1.474  -8.976   7.240  0.00  0.00    +0.005 C 
ENDBRANCH  20  21
ENDBRANCH  15  20
BRANCH   9  24
ATOM     24  C   UNL     1      -0.122  -0.604   4.973  0.00  0.00    +0.223 C 
BRANCH  24  25
ATOM     25  C   UNL     1      -1.569  -0.409   5.347  0.00  0.00    +0.233 C 
ATOM     26  O   UNL     1      -2.442  -0.673   4.548  0.00  0.00    -0.274 OA
ATOM     27  N   UNL     1      -1.893   0.059   6.568  0.00  0.00    -0.311 N 
ATOM     28  H   UNL     1      -1.194   0.271   7.207  0.00  0.00    +0.149 HD
BRANCH  27  29
ATOM     29  C   UNL     1      -3.299   0.249   6.931  0.00  0.00    +0.073 C 
ATOM     30  C   UNL     1      -3.876  -1.071   7.446  0.00  0.00    +0.022 C 
ATOM     31  C   UNL     1      -5.345  -0.873   7.825  0.00  0.00    +0.002 C 
ATOM     32  C   UNL     1      -5.450   0.191   8.919  0.00  0.00    +0.000 C 
ATOM     33  C   UNL     1      -4.873   1.511   8.405  0.00  0.00    +0.002 C 
ATOM     34  C   UNL     1      -3.404   1.313   8.026  0.00  0.00    +0.022 C 
ENDBRANCH  27  29
ENDBRANCH  24  25
ENDBRANCH   9  24
TORSDOF 5
