REMARK  Name = ZINC25680450
REMARK  10 active torsions:
REMARK  status: ('A' for Active; 'I' for Inactive)
REMARK    1  A    between atoms: C_1  and  C_2
REMARK    2  A    between atoms: C_3  and  C_33
REMARK    3  A    between atoms: N_4  and  C_26
REMARK    4  A    between atoms: C_5  and  N_9
REMARK    5  A    between atoms: C_6  and  C_7
REMARK    6  A    between atoms: C_10  and  C_12
REMARK    7  A    between atoms: C_12  and  N_13
REMARK    8  A    between atoms: C_16  and  C_19
REMARK    9  A    between atoms: C_22  and  O_25
REMARK   10  A    between atoms: C_26  and  C_27
REMARK                            x       y       z     vdW  Elec       q    Type
REMARK                         _______ _______ _______ _____ _____    ______ ____
ROOT
ATOM      1  N   UNL     1       1.786   9.639   1.736  0.00  0.00    -0.272 N 
ATOM      2  C   UNL     1       1.001   8.546   1.650  0.00  0.00    +0.202 C 
ATOM      3  O   UNL     1       0.681   7.949   2.656  0.00  0.00    -0.278 OA
ATOM      4  H   UNL     1       2.142  10.133   0.820  0.00  0.00    +0.156 HD
ENDROOT
BRANCH   1   9
ATOM      5  C   UNL     1       3.951  10.284   6.256  0.00  0.00    +0.047 C 
ATOM      6  C   UNL     1       3.102  10.460   5.023  0.00  0.00    -0.011 A 
ATOM      7  C   UNL     1       2.233  11.456   4.783  0.00  0.00    +0.022 A 
ATOM      8  N   UNL     1       1.660  11.270   3.554  0.00  0.00    -0.329 N 
ATOM      9  C   UNL     1       2.144  10.139   2.978  0.00  0.00    +0.123 A 
ATOM     10  C   UNL     1       3.064   9.577   3.851  0.00  0.00    +0.095 A 
ATOM     11  C   UNL     1       1.940  12.601   5.718  0.00  0.00    +0.064 C 
BRANCH  10  12
ATOM     12  C   UNL     1       3.823   8.379   3.650  0.00  0.00    +0.103 C 
ATOM     13  N   UNL     1       4.424   7.429   3.490  0.00  0.00    -0.191 NA
ENDBRANCH  10  12
BRANCH   8  14
ATOM     14  C   UNL     1       0.665  12.160   2.949  0.00  0.00    +0.154 C 
BRANCH  14  15
ATOM     15  C   UNL     1      -0.730  11.778   3.446  0.00  0.00    +0.138 C 
ATOM     16  C   UNL     1      -1.792  12.743   2.860  0.00  0.00    +0.035 C 
ATOM     17  C   UNL     1      -3.064  11.853   2.922  0.00  0.00    +0.031 C 
ATOM     18  C   UNL     1      -2.493  10.445   2.648  0.00  0.00    +0.160 C 
ATOM     19  O   UNL     1      -1.095  10.477   2.958  0.00  0.00    -0.375 OA
ENDBRANCH  14  15
ENDBRANCH   8  14
ENDBRANCH   1   9
BRANCH   2  20
ATOM     20  C   UNL     1       0.521   8.067   0.304  0.00  0.00    +0.019 C 
BRANCH  20  21
ATOM     21  N   UNL     1      -0.311   6.869   0.479  0.00  0.00    +0.388 N 
ATOM     22  C   UNL     1      -0.621   6.248  -0.819  0.00  0.00    -0.073 C 
ATOM     23  C   UNL     1      -1.202   4.853  -0.561  0.00  0.00    +0.017 C 
ATOM     24  C   UNL     1      -2.297   4.944   0.465  0.00  0.00    -0.048 C 
ATOM     25  C   UNL     1      -2.447   5.986   1.253  0.00  0.00    -0.041 C 
ATOM     26  C   UNL     1      -1.551   7.190   1.198  0.00  0.00    -0.050 C 
ATOM     27  H   UNL     1       0.263   6.151   1.083  0.00  0.00    -0.081 HD
BRANCH  24  28
ATOM     28  C   UNL     1      -3.240   3.814   0.597  0.00  0.00    -0.022 A 
ATOM     29  C   UNL     1      -4.591   3.991   0.293  0.00  0.00    +0.012 A 
ATOM     30  C   UNL     1      -5.468   2.935   0.417  0.00  0.00    +0.046 A 
ATOM     31  C   UNL     1      -5.008   1.695   0.843  0.00  0.00    +0.117 A 
ATOM     32  C   UNL     1      -3.665   1.515   1.146  0.00  0.00    +0.046 A 
ATOM     33  C   UNL     1      -2.782   2.567   1.025  0.00  0.00    +0.012 A 
BRANCH  31  34
ATOM     34  O   UNL     1      -5.875   0.657   0.964  0.00  0.00    -0.507 OA
ATOM     35  H   UNL     1      -5.513  -0.326   1.302  0.00  0.00    +0.292 HD
ENDBRANCH  31  34
ENDBRANCH  24  28
ENDBRANCH  20  21
ENDBRANCH   2  20
TORSDOF 8
