REMARK  Name = ZINC63425005
REMARK  9 active torsions:
REMARK  status: ('A' for Active; 'I' for Inactive)
REMARK    1  A    between atoms: C_1  and  C_2
REMARK    2  A    between atoms: C_5  and  N_8
REMARK    3  A    between atoms: C_12  and  N_13
REMARK    4  A    between atoms: N_13  and  C_14
REMARK    5  A    between atoms: C_14  and  C_16
REMARK    6  A    between atoms: C_14  and  C_26
REMARK    7  A    between atoms: C_16  and  C_17
REMARK    8  A    between atoms: C_26  and  O_28
REMARK    9  A    between atoms: O_28  and  C_29
REMARK                            x       y       z     vdW  Elec       q    Type
REMARK                         _______ _______ _______ _____ _____    ______ ____
ROOT
ATOM      1  N   UNL     1       0.074  -4.174  -0.025  0.00  0.00    -0.190 N 
ATOM      2  C   UNL     1       0.199  -4.837   1.143  0.00  0.00    +0.265 C 
ATOM      3  O   UNL     1       0.325  -4.235   2.193  0.00  0.00    -0.269 OA
ATOM      4  C   UNL     1       0.179  -6.310   1.114  0.00  0.00    +0.113 C 
ATOM      5  C   UNL     1       0.301  -7.056   2.271  0.00  0.00    +0.086 C 
ATOM      6  C   UNL     1       0.022  -6.952  -0.203  0.00  0.00    +0.258 C 
ATOM      7  O   UNL     1      -0.005  -8.164  -0.308  0.00  0.00    -0.270 OA
ATOM      8  N   UNL     1      -0.092  -6.161  -1.289  0.00  0.00    -0.235 N 
ATOM      9  C   UNL     1      -0.071  -4.824  -1.188  0.00  0.00    +0.320 C 
ATOM     10  O   UNL     1      -0.184  -4.168  -2.204  0.00  0.00    -0.251 OA
ATOM     11  H   UNL     1      -0.196  -6.568  -2.164  0.00  0.00    +0.159 HD
ENDROOT
BRANCH   1  16
ATOM     12  C   UNL     1       0.141   1.501  -0.011  0.00  0.00    +0.044 C 
ATOM     13  C   UNL     1       0.123  -0.006  -0.015  0.00  0.00    -0.050 A 
ATOM     14  C   UNL     1      -1.048  -0.681  -0.304  0.00  0.00    +0.005 A 
ATOM     15  C   UNL     1      -1.067  -2.062  -0.308  0.00  0.00    +0.024 A 
ATOM     16  C   UNL     1       0.091  -2.772  -0.022  0.00  0.00    +0.046 A 
ATOM     17  C   UNL     1       1.265  -2.091   0.268  0.00  0.00    +0.024 A 
ATOM     18  C   UNL     1       1.280  -0.710   0.266  0.00  0.00    +0.005 A 
ENDBRANCH   1  16
BRANCH   5  19
ATOM     19  N   UNL     1       0.416  -8.398   2.199  0.00  0.00    -0.336 N 
ATOM     20  H   UNL     1       0.493  -8.832   1.335  0.00  0.00    +0.146 HD
BRANCH  19  21
ATOM     21  C   UNL     1       0.424  -9.199   3.425  0.00  0.00    +0.184 C 
BRANCH  21  22
ATOM     22  C   UNL     1      -0.994  -9.488   3.846  0.00  0.00    +0.328 C 
ATOM     23  O   UNL     1      -1.917  -9.067   3.189  0.00  0.00    -0.249 OA
BRANCH  22  24
ATOM     24  O   UNL     1      -1.232 -10.212   4.950  0.00  0.00    -0.467 OA
ATOM     25  C   UNL     1      -2.600 -10.447   5.290  0.00  0.00    +0.280 C 
ENDBRANCH  22  24
ENDBRANCH  21  22
BRANCH  21  26
ATOM     26  C   UNL     1       1.158 -10.517   3.168  0.00  0.00    +0.066 C 
BRANCH  26  27
ATOM     27  C   UNL     1       2.607 -10.234   2.867  0.00  0.00    -0.039 C 
ATOM     28  C   UNL     1       3.638 -10.254   3.742  0.00  0.00    -0.001 A 
ATOM     29  C   UNL     1       3.716 -10.534   5.181  0.00  0.00    +0.010 A 
ATOM     30  C   UNL     1       4.919 -10.474   5.796  0.00  0.00    +0.001 A 
ATOM     31  C   UNL     1       6.090 -10.153   5.096  0.00  0.00    +0.002 A 
ATOM     32  C   UNL     1       6.098  -9.884   3.773  0.00  0.00    +0.026 A 
ATOM     33  C   UNL     1       4.889  -9.918   3.026  0.00  0.00    +0.043 A 
ATOM     34  N   UNL     1       4.641  -9.699   1.757  0.00  0.00    -0.380 N 
ATOM     35  C   UNL     1       3.204  -9.877   1.524  0.00  0.00    +0.144 C 
ATOM     36  H   UNL     1       5.299  -9.462   1.084  0.00  0.00    +0.160 HD
ENDBRANCH  26  27
ENDBRANCH  21  26
ENDBRANCH  19  21
ENDBRANCH   5  19
TORSDOF 7
