REMARK  Name = ZINC12094522
REMARK  8 active torsions:
REMARK  status: ('A' for Active; 'I' for Inactive)
REMARK    1  A    between atoms: C_1  and  C_2
REMARK    2  A    between atoms: C_7  and  N_8
REMARK    3  A    between atoms: C_10  and  C_13
REMARK    4  A    between atoms: C_13  and  N_14
REMARK    5  A    between atoms: C_15  and  C_17
REMARK    6  A    between atoms: C_17  and  C_18
REMARK    7  A    between atoms: C_25  and  C_26
REMARK    8  A    between atoms: C_25  and  N_58
REMARK                            x       y       z     vdW  Elec       q    Type
REMARK                         _______ _______ _______ _____ _____    ______ ____
ROOT
ATOM      1  C   UNL     1       5.711   5.027  -0.786  0.00  0.00    +0.089 C 
ENDROOT
BRANCH   1   2
ATOM      2  C   UNL     1       4.405   5.707  -1.200  0.00  0.00    +0.028 C 
ATOM      3  C   UNL     1       3.333   4.667  -1.365  0.00  0.00    +0.200 C 
ATOM      4  O   UNL     1       3.612   3.630  -1.929  0.00  0.00    -0.278 OA
ATOM      5  N   UNL     1       2.085   4.836  -0.916  0.00  0.00    -0.318 N 
ATOM      6  C   UNL     1       1.657   6.031  -0.194  0.00  0.00    +0.085 C 
ATOM      7  C   UNL     1       2.649   7.171  -0.431  0.00  0.00    -0.058 C 
ATOM      8  H   UNL     1       1.435   4.134  -1.078  0.00  0.00    +0.149 HD
ATOM      9  N   UNL     1       4.006   6.662  -0.149  0.00  0.00    +0.391 N 
ATOM     10  H   UNL     1       4.002   6.180   0.758  0.00  0.00    -0.080 HD
BRANCH   9  11
ATOM     11  C   UNL     1       4.969   7.786  -0.093  0.00  0.00    -0.039 C 
BRANCH  11  12
ATOM     12  C   UNL     1       4.479   8.806   0.901  0.00  0.00    -0.029 A 
ATOM     13  C   UNL     1       4.928   8.769   2.208  0.00  0.00    +0.004 A 
ATOM     14  C   UNL     1       4.479   9.704   3.121  0.00  0.00    +0.000 A 
ATOM     15  C   UNL     1       3.577  10.676   2.729  0.00  0.00    +0.003 A 
ATOM     16  C   UNL     1       3.131  10.719   1.422  0.00  0.00    +0.038 A 
ATOM     17  C   UNL     1       3.580   9.782   0.507  0.00  0.00    +0.125 A 
ATOM     18  F   UNL     1       3.140   9.819  -0.770  0.00  0.00    -0.205 F 
ENDBRANCH  11  12
ENDBRANCH   9  11
ENDBRANCH   1   2
BRANCH   1  20
ATOM     19  N   UNL     1       6.514   3.601   1.069  0.00  0.00    -0.311 N 
ATOM     20  C   UNL     1       5.526   4.359   0.552  0.00  0.00    +0.212 C 
ATOM     21  O   UNL     1       4.488   4.502   1.163  0.00  0.00    -0.276 OA
ATOM     22  H   UNL     1       7.343   3.486   0.580  0.00  0.00    +0.149 HD
BRANCH  19  23
ATOM     23  C   UNL     1       6.334   2.951   2.370  0.00  0.00    +0.142 C 
BRANCH  23  26
ATOM     24  N   UNL     1       9.034   0.553   2.892  0.00  0.00    -0.239 N 
ATOM     25  C   UNL     1       7.813   0.875   2.407  0.00  0.00    +0.119 A 
ATOM     26  C   UNL     1       7.575   2.170   2.717  0.00  0.00    +0.007 A 
ATOM     27  C   UNL     1       8.682   2.655   3.422  0.00  0.00    +0.140 A 
ATOM     28  N   UNL     1       9.557   1.687   3.527  0.00  0.00    -0.174 NA
BRANCH  24  35
ATOM     29  C   UNL     1      11.753   0.483   2.052  0.00  0.00    +0.046 C 
ATOM     30  C   UNL     1      10.988  -0.774   2.377  0.00  0.00    -0.025 A 
ATOM     31  C   UNL     1      11.604  -2.005   2.271  0.00  0.00    +0.005 A 
ATOM     32  C   UNL     1      10.903  -3.159   2.570  0.00  0.00    +0.000 A 
ATOM     33  C   UNL     1       9.583  -3.084   2.975  0.00  0.00    +0.002 A 
ATOM     34  C   UNL     1       8.963  -1.855   3.087  0.00  0.00    +0.028 A 
ATOM     35  C   UNL     1       9.662  -0.695   2.783  0.00  0.00    +0.068 A 
ENDBRANCH  24  35
ENDBRANCH  23  26
ENDBRANCH  19  23
ENDBRANCH   1  20
TORSDOF 7
