REMARK  Name = ZINC37360176
REMARK  6 active torsions:
REMARK  status: ('A' for Active; 'I' for Inactive)
REMARK    1  A    between atoms: C_1  and  N_2
REMARK    2  A    between atoms: C_3  and  N_30
REMARK    3  A    between atoms: C_5  and  C_25
REMARK    4  A    between atoms: N_14  and  C_17
REMARK    5  A    between atoms: C_17  and  C_18
REMARK    6  A    between atoms: C_18  and  N_19
REMARK                            x       y       z     vdW  Elec       q    Type
REMARK                         _______ _______ _______ _____ _____    ______ ____
ROOT
ATOM      1  C   UNL     1      -0.839   1.107  -0.196  0.00  0.00    +0.174 C 
ATOM      2  N   UNL     1      -0.357  -0.275  -0.126  0.00  0.00    -0.251 N 
ATOM      3  C   UNL     1       0.010  -1.020  -1.184  0.00  0.00    +0.126 A 
ATOM      4  C   UNL     1       0.404  -2.261  -0.705  0.00  0.00    +0.086 A 
ATOM      5  C   UNL     1       0.886  -3.464  -1.278  0.00  0.00    +0.095 A 
ATOM      6  N   UNL     1       1.166  -4.480  -0.466  0.00  0.00    -0.213 NA
ATOM      7  C   UNL     1       1.008  -4.395   0.851  0.00  0.00    +0.220 A 
ATOM      8  N   UNL     1       0.566  -3.317   1.465  0.00  0.00    -0.193 NA
ATOM      9  C   UNL     1       0.244  -2.214   0.759  0.00  0.00    +0.188 A 
ATOM     10  N   UNL     1      -0.204  -1.014   1.053  0.00  0.00    -0.149 NA
ATOM     11  N   UNL     1       1.324  -5.501   1.619  0.00  0.00    -0.297 N 
ATOM     12  C   UNL     1       1.828  -6.735   0.996  0.00  0.00    +0.123 C 
ATOM     13  C   UNL     1       0.989  -7.913   1.502  0.00  0.00    +0.103 C 
ATOM     14  N   UNL     1       0.989  -7.915   2.970  0.00  0.00    -0.301 NA
ATOM     15  C   UNL     1       0.353  -6.703   3.505  0.00  0.00    +0.103 C 
ATOM     16  C   UNL     1       1.171  -5.473   3.082  0.00  0.00    +0.123 C 
ENDROOT
BRANCH   5  17
ATOM     17  C   UNL     1       1.071  -3.587  -2.732  0.00  0.00    +0.038 A 
ATOM     18  C   UNL     1       1.637  -2.687  -3.618  0.00  0.00    +0.017 A 
ATOM     19  C   UNL     1       1.671  -3.086  -4.936  0.00  0.00    +0.008 A 
ATOM     20  C   UNL     1       1.163  -4.296  -5.270  0.00  0.00    +0.046 A 
ATOM     21  S   UNL     1       0.630  -4.936  -3.811  0.00  0.00    -0.095 S 
ENDBRANCH   5  17
BRANCH   3  22
ATOM     22  N   UNL     1      -0.003  -0.621  -2.508  0.00  0.00    -0.343 N 
ATOM     23  H   UNL     1      -0.080   0.320  -2.731  0.00  0.00    +0.144 HD
ATOM     24  H   UNL     1       0.066  -1.282  -3.215  0.00  0.00    +0.144 HD
ENDBRANCH   3  22
BRANCH  14  25
ATOM     25  C   UNL     1       0.341  -9.125   3.495  0.00  0.00    +0.066 C 
BRANCH  25  26
ATOM     26  C   UNL     1       0.576  -9.216   5.004  0.00  0.00    -0.063 C 
BRANCH  26  27
ATOM     27  N   UNL     1      -0.072 -10.425   5.529  0.00  0.00    +0.381 N 
ATOM     28  C   UNL     1      -1.526 -10.312   5.361  0.00  0.00    -0.079 C 
ATOM     29  C   UNL     1      -2.200 -11.602   5.831  0.00  0.00    -0.019 C 
ATOM     30  C   UNL     1      -1.871 -11.834   7.309  0.00  0.00    -0.004 C 
ATOM     31  C   UNL     1      -0.351 -11.876   7.484  0.00  0.00    -0.019 C 
ATOM     32  C   UNL     1       0.255 -10.575   6.952  0.00  0.00    -0.079 C 
ATOM     33  H   UNL     1       0.262 -11.231   5.021  0.00  0.00    -0.082 HD
ENDBRANCH  26  27
ENDBRANCH  25  26
ENDBRANCH  14  25
TORSDOF 5
