REMARK  Name = ZINC01086745
REMARK  6 active torsions:
REMARK  status: ('A' for Active; 'I' for Inactive)
REMARK    1  A    between atoms: C_3  and  N_26
REMARK    2  A    between atoms: C_6  and  C_7
REMARK    3  A    between atoms: C_7  and  N_8
REMARK    4  A    between atoms: C_11  and  C_13
REMARK    5  A    between atoms: N_15  and  N_16
REMARK    6  A    between atoms: C_17  and  C_18
REMARK                            x       y       z     vdW  Elec       q    Type
REMARK                         _______ _______ _______ _____ _____    ______ ____
ROOT
ATOM      1  N   UNL     1       1.356   2.010  -0.000  0.00  0.00    -0.265 N 
ATOM      2  C   UNL     1       1.855   2.882  -0.911  0.00  0.00    +0.124 A 
ATOM      3  C   UNL     1       3.150   3.104  -0.583  0.00  0.00    +0.068 A 
ATOM      4  C   UNL     1       3.390   2.317   0.569  0.00  0.00    +0.163 A 
ATOM      5  N   UNL     1       2.262   1.697   0.856  0.00  0.00    -0.165 NA
ATOM      6 BR   UNL     1       4.380   4.229  -1.476  0.00  0.00    -0.046 Br
ENDROOT
BRANCH   4   7
ATOM      7  C   UNL     1       4.661   2.214   1.313  0.00  0.00    +0.284 C 
ATOM      8  O   UNL     1       5.633   2.845   0.945  0.00  0.00    -0.267 OA
ATOM      9  N   UNL     1       4.744   1.420   2.399  0.00  0.00    -0.202 N 
ATOM     10  H   UNL     1       3.968   0.917   2.692  0.00  0.00    +0.178 HD
BRANCH   9  11
ATOM     11  N   UNL     1       5.950   1.323   3.104  0.00  0.00    -0.187 NA
ATOM     12  C   UNL     1       6.030   0.559   4.151  0.00  0.00    +0.138 C 
BRANCH  12  13
ATOM     13  C   UNL     1       7.300   0.456   4.893  0.00  0.00    -0.005 A 
ATOM     14  C   UNL     1       8.420   1.175   4.470  0.00  0.00    +0.010 A 
ATOM     15  C   UNL     1       9.603   1.078   5.172  0.00  0.00    +0.016 A 
ATOM     16  C   UNL     1       9.685   0.262   6.288  0.00  0.00    +0.018 A 
ATOM     17  C   UNL     1       8.580  -0.458   6.710  0.00  0.00    +0.016 A 
ATOM     18  C   UNL     1       7.389  -0.366   6.020  0.00  0.00    +0.010 A 
ATOM     19 BR   UNL     1      11.313   0.130   7.240  0.00  0.00    -0.050 Br
ENDBRANCH  12  13
ENDBRANCH   9  11
ENDBRANCH   4   7
BRANCH   1  20
ATOM     20  C   UNL     1      -0.018   1.503   0.010  0.00  0.00    +0.178 C 
BRANCH  20  26
ATOM     21  C   UNL     1      -0.006  -0.689  -1.199  0.00  0.00    +0.007 A 
ATOM     22  C   UNL     1       0.017  -2.071  -1.206  0.00  0.00    +0.033 A 
ATOM     23  C   UNL     1       0.039  -2.768  -0.013  0.00  0.00    +0.126 A 
ATOM     24  C   UNL     1       0.042  -2.084   1.188  0.00  0.00    +0.033 A 
ATOM     25  C   UNL     1       0.023  -0.702   1.195  0.00  0.00    +0.007 A 
ATOM     26  C   UNL     1       0.002  -0.004   0.002  0.00  0.00    -0.026 A 
BRANCH  23  27
ATOM     27  N   UNL     1       0.060  -4.248  -0.021  0.00  0.00    +0.056 N 
ATOM     28  O   UNL     1       0.079  -4.863   1.030  0.00  0.00    -0.126 OA
ATOM     29  O   UNL     1       0.058  -4.852  -1.079  0.00  0.00    -0.126 OA
ENDBRANCH  23  27
ENDBRANCH  20  26
ENDBRANCH   1  20
TORSDOF 6
