REMARK  Name = ZINC13482078
REMARK  5 active torsions:
REMARK  status: ('A' for Active; 'I' for Inactive)
REMARK    1  A    between atoms: C_1  and  C_2
REMARK    2  A    between atoms: C_5  and  S_8
REMARK    3  A    between atoms: S_8  and  N_11
REMARK    4  A    between atoms: C_12  and  C_23
REMARK    5  A    between atoms: N_15  and  C_16
REMARK                            x       y       z     vdW  Elec       q    Type
REMARK                         _______ _______ _______ _____ _____    ______ ____
ROOT
ATOM      1  N   UNL     1       2.019  -4.261   0.397  0.00  0.00    -0.241 N 
ATOM      2  C   UNL     1       2.493  -4.399   1.672  0.00  0.00    +0.134 C 
ATOM      3  N   UNL     1       1.783  -5.053   2.574  0.00  0.00    -0.322 N 
ATOM      4  C   UNL     1       2.325  -6.090   3.230  0.00  0.00    +0.149 C 
ATOM      5  N   UNL     1       3.595  -6.513   2.920  0.00  0.00    -0.295 N 
ATOM      6  S   UNL     1       1.460  -6.864   4.417  0.00  0.00    -0.016 SA
ATOM      7  H   UNL     1       2.573  -3.849  -0.284  0.00  0.00    +0.190 HD
ATOM      8  H   UNL     1       3.887  -6.535   1.995  0.00  0.00    +0.154 HD
ATOM      9  H   UNL     1       0.871  -4.783   2.761  0.00  0.00    +0.169 HD
ENDROOT
BRANCH   5  10
ATOM     10  C   UNL     1       4.468  -6.911   3.937  0.00  0.00    +0.033 A 
ATOM     11  C   UNL     1       4.193  -6.582   5.258  0.00  0.00    +0.023 A 
ATOM     12  C   UNL     1       5.057  -6.977   6.261  0.00  0.00    +0.002 A 
ATOM     13  C   UNL     1       6.195  -7.699   5.950  0.00  0.00    +0.000 A 
ATOM     14  C   UNL     1       6.472  -8.027   4.636  0.00  0.00    +0.002 A 
ATOM     15  C   UNL     1       5.609  -7.641   3.629  0.00  0.00    +0.023 A 
ENDBRANCH   5  10
BRANCH   2  16
ATOM     16  C   UNL     1       3.799  -3.816   2.042  0.00  0.00    +0.017 A 
ATOM     17  C   UNL     1       4.608  -3.232   1.065  0.00  0.00    +0.011 A 
ATOM     18  C   UNL     1       5.826  -2.689   1.417  0.00  0.00    +0.001 A 
ATOM     19  C   UNL     1       6.247  -2.722   2.735  0.00  0.00    +0.000 A 
ATOM     20  C   UNL     1       5.450  -3.299   3.708  0.00  0.00    +0.001 A 
ATOM     21  C   UNL     1       4.227  -3.841   3.371  0.00  0.00    +0.011 A 
ENDBRANCH   2  16
BRANCH   1  22
ATOM     22  S   UNL     1       0.500  -4.797   0.016  0.00  0.00    +0.079 S 
ATOM     23  O   UNL     1       0.311  -6.018   0.719  0.00  0.00    -0.148 OA
ATOM     24  O   UNL     1       0.379  -4.706  -1.397  0.00  0.00    -0.148 OA
BRANCH  22  29
ATOM     25  C   UNL     1      -3.424  -0.846   2.339  0.00  0.00    +0.044 C 
ATOM     26  C   UNL     1      -2.444  -1.833   1.759  0.00  0.00    -0.050 A 
ATOM     27  C   UNL     1      -1.840  -1.574   0.543  0.00  0.00    +0.005 A 
ATOM     28  C   UNL     1      -0.941  -2.479   0.011  0.00  0.00    +0.029 A 
ATOM     29  C   UNL     1      -0.645  -3.643   0.695  0.00  0.00    +0.110 A 
ATOM     30  C   UNL     1      -1.249  -3.902   1.911  0.00  0.00    +0.029 A 
ATOM     31  C   UNL     1      -2.145  -2.995   2.446  0.00  0.00    +0.005 A 
ENDBRANCH  22  29
ENDBRANCH   1  22
TORSDOF 4
