REMARK  Name = ZINC10129626
REMARK  9 active torsions:
REMARK  status: ('A' for Active; 'I' for Inactive)
REMARK    1  A    between atoms: C_1  and  N_2
REMARK    2  A    between atoms: N_2  and  C_3
REMARK    3  A    between atoms: N_2  and  C_4
REMARK    4  A    between atoms: C_7  and  C_10
REMARK    5  A    between atoms: C_10  and  C_12
REMARK    6  A    between atoms: C_10  and  N_63
REMARK    7  A    between atoms: C_12  and  N_13
REMARK    8  A    between atoms: C_14  and  C_16
REMARK    9  A    between atoms: N_18  and  C_19
REMARK                            x       y       z     vdW  Elec       q    Type
REMARK                         _______ _______ _______ _____ _____    ______ ____
ROOT
ATOM      1  C   UNL     1      -1.090   2.468  -1.157  0.00  0.00    -0.020 C 
ENDROOT
BRANCH   1  11
ATOM      2  C   UNL     1      -0.419   0.406  -0.076  0.00  0.00    -0.073 C 
ATOM      3  C   UNL     1       0.772  -0.236   0.636  0.00  0.00    +0.017 C 
ATOM      4  C   UNL     1       1.080   0.517   1.905  0.00  0.00    -0.048 A 
ATOM      5  C   UNL     1       1.876  -0.095   2.861  0.00  0.00    +0.004 A 
ATOM      6  C   UNL     1       2.189   0.564   4.033  0.00  0.00    +0.000 A 
ATOM      7  C   UNL     1       1.707   1.840   4.255  0.00  0.00    +0.000 A 
ATOM      8  C   UNL     1       0.912   2.449   3.305  0.00  0.00    +0.002 A 
ATOM      9  C   UNL     1       0.595   1.788   2.127  0.00  0.00    -0.061 A 
ATOM     10  C   UNL     1      -0.278   2.493   1.122  0.00  0.00    -0.042 C 
ATOM     11  N   UNL     1      -0.146   1.852  -0.197  0.00  0.00    +0.388 N 
ATOM     12  H   UNL     1       0.812   1.984  -0.540  0.00  0.00    -0.080 HD
ENDBRANCH   1  11
BRANCH   1  16
ATOM     13  C   UNL     1      -4.839   0.417  -1.062  0.00  0.00    +0.029 A 
ATOM     14  C   UNL     1      -4.175   0.599  -2.268  0.00  0.00    +0.023 A 
ATOM     15  C   UNL     1      -2.964   1.262  -2.295  0.00  0.00    +0.004 A 
ATOM     16  C   UNL     1      -2.412   1.745  -1.123  0.00  0.00    -0.059 A 
ATOM     17  C   UNL     1      -3.067   1.561   0.081  0.00  0.00    +0.004 A 
ATOM     18  C   UNL     1      -4.282   0.904   0.114  0.00  0.00    +0.023 A 
BRANCH  13  20
ATOM     19  C   UNL     1      -6.649  -0.767  -2.271  0.00  0.00    +0.129 C 
ATOM     20  N   UNL     1      -6.064  -0.254  -1.030  0.00  0.00    -0.336 N 
ATOM     21  C   UNL     1      -6.762  -0.444   0.243  0.00  0.00    +0.129 C 
ENDBRANCH  13  20
ENDBRANCH   1  16
BRANCH   1  22
ATOM     22  C   UNL     1      -1.304   3.938  -0.789  0.00  0.00    +0.094 C 
BRANCH  22  23
ATOM     23  N   UNL     1      -0.011   4.626  -0.757  0.00  0.00    -0.309 N 
ATOM     24  C   UNL     1       0.039   5.957  -0.551  0.00  0.00    +0.299 C 
ATOM     25  O   UNL     1      -0.987   6.586  -0.393  0.00  0.00    -0.265 OA
ATOM     26  H   UNL     1       0.809   4.124  -0.884  0.00  0.00    +0.149 HD
BRANCH  24  27
ATOM     27  C   UNL     1       1.357   6.659  -0.519  0.00  0.00    +0.303 C 
ATOM     28  O   UNL     1       2.384   6.030  -0.677  0.00  0.00    -0.265 OA
ATOM     29  N   UNL     1       1.407   7.990  -0.313  0.00  0.00    -0.278 N 
ATOM     30  H   UNL     1       0.595   8.480  -0.111  0.00  0.00    +0.155 HD
BRANCH  29  31
ATOM     31  C   UNL     1       2.630   8.663  -0.391  0.00  0.00    +0.034 A 
ATOM     32  C   UNL     1       2.872   9.761   0.425  0.00  0.00    +0.025 A 
ATOM     33  C   UNL     1       4.082  10.422   0.349  0.00  0.00    +0.022 A 
ATOM     34  C   UNL     1       5.049   9.998  -0.546  0.00  0.00    +0.041 A 
ATOM     35  C   UNL     1       4.808   8.907  -1.364  0.00  0.00    +0.022 A 
ATOM     36  C   UNL     1       3.602   8.240  -1.288  0.00  0.00    +0.025 A 
ATOM     37 CL   UNL     1       6.567  10.835  -0.643  0.00  0.00    -0.084 Cl
ENDBRANCH  29  31
ENDBRANCH  24  27
ENDBRANCH  22  23
ENDBRANCH   1  22
TORSDOF 7
