REMARK  Name = ZINC28050925
REMARK  9 active torsions:
REMARK  status: ('A' for Active; 'I' for Inactive)
REMARK    1  A    between atoms: C_1  and  C_2
REMARK    2  A    between atoms: C_4  and  C_38
REMARK    3  A    between atoms: C_5  and  N_9
REMARK    4  A    between atoms: C_6  and  C_8
REMARK    5  A    between atoms: C_18  and  C_24
REMARK    6  A    between atoms: C_24  and  N_25
REMARK    7  A    between atoms: C_26  and  C_28
REMARK    8  A    between atoms: C_28  and  O_29
REMARK    9  A    between atoms: O_29  and  C_30
REMARK                            x       y       z     vdW  Elec       q    Type
REMARK                         _______ _______ _______ _____ _____    ______ ____
ROOT
ATOM      1  N   UNL     1       0.704   3.812   2.279  0.00  0.00    -0.209 N 
ATOM      2  C   UNL     1       1.478   2.807   2.705  0.00  0.00    +0.233 C 
ATOM      3  O   UNL     1       2.494   2.933   3.353  0.00  0.00    -0.274 OA
ATOM      4  C   UNL     1       0.890   1.490   2.253  0.00  0.00    +0.123 C 
ATOM      5  C   UNL     1       1.781   0.923   1.105  0.00  0.00    +0.155 C 
ATOM      6  C   UNL     1       1.088  -0.368   0.662  0.00  0.00    +0.004 C 
ATOM      7  C   UNL     1       0.002  -0.004   0.002  0.00  0.00    +0.008 C 
ATOM      8  C   UNL     1      -0.019   1.526   0.010  0.00  0.00    +0.116 C 
ATOM      9  C   UNL     1      -0.392   1.921   1.473  0.00  0.00    +0.128 C 
ATOM     10  C   UNL     1      -0.370   3.429   1.579  0.00  0.00    +0.233 C 
ATOM     11  O   UNL     1      -1.198   4.176   1.104  0.00  0.00    -0.274 OA
ATOM     12  O   UNL     1       1.420   1.816  -0.002  0.00  0.00    -0.359 OA
ENDROOT
BRANCH   1  17
ATOM     13  C   UNL     1       1.879   9.258   3.360  0.00  0.00    +0.044 C 
ATOM     14  C   UNL     1       1.567   7.812   3.073  0.00  0.00    -0.050 A 
ATOM     15  C   UNL     1       0.786   7.086   3.954  0.00  0.00    +0.008 A 
ATOM     16  C   UNL     1       0.498   5.761   3.694  0.00  0.00    -0.028 A 
ATOM     17  C   UNL     1       0.994   5.157   2.546  0.00  0.00    +0.050 A 
ATOM     18  C   UNL     1       1.782   5.886   1.666  0.00  0.00    -0.028 A 
ATOM     19  C   UNL     1       2.062   7.213   1.929  0.00  0.00    +0.008 A 
ATOM     20  C   UNL     1       2.326   5.233   0.422  0.00  0.00    +0.046 C 
ATOM     21  C   UNL     1      -0.352   4.971   4.655  0.00  0.00    +0.046 C 
ENDBRANCH   1  17
BRANCH   8  22
ATOM     22  C   UNL     1      -0.844   2.184  -1.098  0.00  0.00    +0.144 C 
BRANCH  22  23
ATOM     23  N   UNL     1      -0.414   1.665  -2.399  0.00  0.00    -0.309 N 
ATOM     24  C   UNL     1      -1.005   2.105  -3.528  0.00  0.00    +0.251 C 
ATOM     25  O   UNL     1      -1.892   2.929  -3.467  0.00  0.00    -0.272 OA
ATOM     26  H   UNL     1       0.391   0.918  -2.455  0.00  0.00    +0.149 HD
BRANCH  24  27
ATOM     27  C   UNL     1      -0.563   1.572  -4.866  0.00  0.00    +0.324 C 
BRANCH  27  28
ATOM     28  O   UNL     1      -1.333   2.186  -5.902  0.00  0.00    -0.481 OA
BRANCH  28  29
ATOM     29  C   UNL     1      -1.058   1.812  -7.180  0.00  0.00    +0.140 A 
ATOM     30  C   UNL     1      -0.068   0.875  -7.431  0.00  0.00    +0.048 A 
ATOM     31  C   UNL     1       0.210   0.496  -8.731  0.00  0.00    +0.023 A 
ATOM     32  C   UNL     1      -0.498   1.052  -9.781  0.00  0.00    +0.043 A 
ATOM     33  C   UNL     1      -1.488   1.987  -9.533  0.00  0.00    +0.043 A 
ATOM     34  C   UNL     1      -1.773   2.364  -8.234  0.00  0.00    +0.084 A 
ATOM     35 CL   UNL     1      -3.018   3.533  -7.922  0.00  0.00    -0.080 Cl
ATOM     36 CL   UNL     1      -0.147   0.575 -11.413  0.00  0.00    -0.083 Cl
ENDBRANCH  28  29
ENDBRANCH  27  28
ENDBRANCH  24  27
ENDBRANCH  22  23
ENDBRANCH   8  22
TORSDOF 6
