REMARK  Name = ZINC13544806
REMARK  10 active torsions:
REMARK  status: ('A' for Active; 'I' for Inactive)
REMARK    1  A    between atoms: C_1  and  C_2
REMARK    2  A    between atoms: C_2  and  O_3
REMARK    3  A    between atoms: O_3  and  C_4
REMARK    4  A    between atoms: C_6  and  C_19
REMARK    5  A    between atoms: C_9  and  O_10
REMARK    6  A    between atoms: O_10  and  C_11
REMARK    7  A    between atoms: C_11  and  C_12
REMARK    8  A    between atoms: N_20  and  N_21
REMARK    9  A    between atoms: C_26  and  C_29
REMARK   10  A    between atoms: C_29  and  C_30
REMARK                            x       y       z     vdW  Elec       q    Type
REMARK                         _______ _______ _______ _____ _____    ______ ____
ROOT
ATOM      1  C   UNL     1       0.802  -1.825   1.306  0.00  0.00    +0.163 A 
ATOM      2  C   UNL     1       0.261  -2.669   0.354  0.00  0.00    +0.059 A 
ATOM      3  C   UNL     1       0.375  -4.053   0.507  0.00  0.00    -0.002 A 
ATOM      4  C   UNL     1       1.035  -4.577   1.622  0.00  0.00    +0.013 A 
ATOM      5  C   UNL     1       1.572  -3.729   2.567  0.00  0.00    +0.050 A 
ATOM      6  C   UNL     1       1.464  -2.355   2.412  0.00  0.00    +0.162 A 
ENDROOT
BRANCH   3   7
ATOM      7  C   UNL     1      -0.200  -4.959  -0.504  0.00  0.00    +0.138 C 
ATOM      8  N   UNL     1      -0.094  -6.244  -0.360  0.00  0.00    -0.188 NA
BRANCH   8   9
ATOM      9  N   UNL     1      -0.640  -7.104  -1.321  0.00  0.00    -0.217 N 
ATOM     10  C   UNL     1      -0.528  -8.456  -1.170  0.00  0.00    +0.166 C 
ATOM     11  N   UNL     1       0.053  -9.125  -0.183  0.00  0.00    -0.157 NA
ATOM     12  C   UNL     1       0.118 -10.426  -0.110  0.00  0.00    +0.252 C 
ATOM     13  O   UNL     1       0.662 -11.000   0.814  0.00  0.00    -0.272 OA
ATOM     14  C   UNL     1      -0.535 -11.177  -1.264  0.00  0.00    +0.152 C 
ATOM     15  S   UNL     1      -1.138  -9.743  -2.251  0.00  0.00    -0.078 S 
ATOM     16  H   UNL     1      -1.098  -6.739  -2.095  0.00  0.00    +0.176 HD
BRANCH  14  17
ATOM     17  C   UNL     1      -1.697 -12.046  -0.779  0.00  0.00    +0.149 C 
BRANCH  17  18
ATOM     18  C   UNL     1      -2.230 -12.859  -1.930  0.00  0.00    +0.358 C 
ATOM     19  O   UNL     1      -1.727 -12.754  -3.036  0.00  0.00    -0.246 OA
ATOM     20  O   UNL     1      -3.165 -13.623  -1.756  0.00  0.00    -0.246 OA
ENDBRANCH  17  18
ENDBRANCH  14  17
ENDBRANCH   8   9
ENDBRANCH   3   7
BRANCH   1  21
ATOM     21  O   UNL     1       0.693  -0.477   1.160  0.00  0.00    -0.489 OA
BRANCH  21  23
ATOM     22  C   UNL     1      -0.019   1.526   0.010  0.00  0.00    +0.048 C 
ATOM     23  C   UNL     1       0.002  -0.004   0.002  0.00  0.00    +0.226 C 
ENDBRANCH  21  23
ENDBRANCH   1  21
BRANCH   6  24
ATOM     24  O   UNL     1       2.000  -1.523   3.344  0.00  0.00    -0.484 OA
BRANCH  24  25
ATOM     25  C   UNL     1       2.664  -2.132   4.452  0.00  0.00    +0.266 C 
BRANCH  25  26
ATOM     26  C   UNL     1       3.190  -1.062   5.373  0.00  0.00    +0.008 A 
ATOM     27  C   UNL     1       2.983   0.271   5.073  0.00  0.00    +0.008 A 
ATOM     28  C   UNL     1       3.465   1.253   5.918  0.00  0.00    +0.000 A 
ATOM     29  C   UNL     1       4.154   0.903   7.064  0.00  0.00    +0.001 A 
ATOM     30  C   UNL     1       4.361  -0.430   7.365  0.00  0.00    +0.020 A 
ATOM     31  C   UNL     1       3.874  -1.413   6.523  0.00  0.00    +0.047 A 
ATOM     32 CL   UNL     1       4.128  -3.088   6.905  0.00  0.00    -0.083 Cl
ENDBRANCH  25  26
ENDBRANCH  24  25
ENDBRANCH   6  24
TORSDOF 9
