REMARK  Name = ZINC41829443
REMARK  7 active torsions:
REMARK  status: ('A' for Active; 'I' for Inactive)
REMARK    1  A    between atoms: C_1  and  C_2
REMARK    2  A    between atoms: C_4  and  N_8
REMARK    3  A    between atoms: N_5  and  C_7
REMARK    4  A    between atoms: C_9  and  C_11
REMARK    5  A    between atoms: C_11  and  C_12
REMARK    6  A    between atoms: C_12  and  N_13
REMARK    7  A    between atoms: N_16  and  C_17
REMARK                            x       y       z     vdW  Elec       q    Type
REMARK                         _______ _______ _______ _____ _____    ______ ____
ROOT
ATOM      1  N   UNL     1       0.043  -5.061  -6.100  0.00  0.00    -0.299 N 
ATOM      2  C   UNL     1       0.034  -4.918  -7.440  0.00  0.00    +0.300 C 
ATOM      3  O   UNL     1       0.016  -3.807  -7.933  0.00  0.00    -0.253 OA
ATOM      4  N   UNL     1       0.045  -6.007  -8.234  0.00  0.00    -0.294 N 
ATOM      5  H   UNL     1       0.057  -5.948  -5.707  0.00  0.00    +0.150 HD
ATOM      6  H   UNL     1       0.059  -6.894  -7.841  0.00  0.00    +0.151 HD
ENDROOT
BRANCH   4   7
ATOM      7  C   UNL     1       0.036  -5.852  -9.691  0.00  0.00    +0.037 C 
ATOM      8  C   UNL     1      -1.226  -5.098 -10.115  0.00  0.00    +0.029 C 
ATOM      9  C   UNL     1      -1.236  -4.936 -11.637  0.00  0.00    -0.008 C 
ATOM     10  C   UNL     1      -1.220  -6.316 -12.297  0.00  0.00    +0.007 C 
ATOM     11  C   UNL     1       0.042  -7.070 -11.872  0.00  0.00    -0.008 C 
ATOM     12  C   UNL     1       0.052  -7.232 -10.351  0.00  0.00    +0.029 C 
ATOM     13  C   UNL     1       1.278  -6.282 -12.309  0.00  0.00    +0.007 C 
ATOM     14  C   UNL     1       1.263  -4.901 -11.649  0.00  0.00    -0.008 C 
ATOM     15  C   UNL     1       0.001  -4.147 -12.073  0.00  0.00    +0.007 C 
ATOM     16  C   UNL     1       1.272  -5.064 -10.128  0.00  0.00    +0.029 C 
ENDBRANCH   4   7
BRANCH   1  17
ATOM     17  C   UNL     1       0.030  -3.877  -5.237  0.00  0.00    +0.115 C 
BRANCH  17  18
ATOM     18  C   UNL     1       0.044  -4.314  -3.771  0.00  0.00    +0.115 C 
BRANCH  18  20
ATOM     19  N   UNL     1       0.040  -3.240  -1.543  0.00  0.00    -0.271 N 
ATOM     20  C   UNL     1       0.031  -3.097  -2.883  0.00  0.00    +0.220 C 
ATOM     21  O   UNL     1       0.014  -1.988  -3.375  0.00  0.00    -0.275 OA
ATOM     22  H   UNL     1       0.054  -4.126  -1.150  0.00  0.00    +0.156 HD
BRANCH  19  26
ATOM     23  C   UNL     1      -0.018   1.503   0.010  0.00  0.00    +0.067 C 
ATOM     24  C   UNL     1       0.002  -0.004   0.002  0.00  0.00    +0.062 A 
ATOM     25  C   UNL     1       0.008  -0.816  -1.135  0.00  0.00    +0.068 A 
ATOM     26  C   UNL     1       0.028  -2.113  -0.722  0.00  0.00    +0.123 A 
ATOM     27  N   UNL     1       0.035  -2.110   0.631  0.00  0.00    -0.253 N 
ATOM     28  N   UNL     1       0.023  -0.776   1.058  0.00  0.00    -0.175 NA
ATOM     29  C   UNL     1       0.056  -3.292   1.496  0.00  0.00    +0.174 C 
ENDBRANCH  19  26
ENDBRANCH  18  20
ENDBRANCH  17  18
ENDBRANCH   1  17
TORSDOF 5
