REMARK  Name = ZINC48767950
REMARK  3 active torsions:
REMARK  status: ('A' for Active; 'I' for Inactive)
REMARK    1  A    between atoms: C_6  and  N_7
REMARK    2  A    between atoms: N_7  and  N_8
REMARK    3  A    between atoms: C_15  and  C_17
REMARK                            x       y       z     vdW  Elec       q    Type
REMARK                         _______ _______ _______ _____ _____    ______ ____
ROOT
ATOM      1  N   UNL     1      -1.169  -2.120   0.002  0.00  0.00    -0.219 N 
ATOM      2  C   UNL     1      -2.325  -2.812   0.010  0.00  0.00    +0.322 C 
ATOM      3  O   UNL     1      -2.305  -4.028   0.003  0.00  0.00    -0.251 OA
ATOM      4  N   UNL     1      -3.503  -2.157   0.025  0.00  0.00    -0.246 N 
ATOM      5  C   UNL     1      -4.696  -2.872   0.033  0.00  0.00    +0.189 A 
ATOM      6  N   UNL     1      -4.883  -4.177   0.034  0.00  0.00    -0.126 NA
ATOM      7  N   UNL     1      -6.040  -4.685   0.042  0.00  0.00    -0.144 NA
ATOM      8  C   UNL     1      -7.090  -3.889   0.050  0.00  0.00    +0.107 A 
ATOM      9  S   UNL     1      -6.280  -2.296   0.052  0.00  0.00    -0.035 S 
ATOM     10  H   UNL     1      -0.321  -2.591  -0.009  0.00  0.00    +0.174 HD
ATOM     11  H   UNL     1      -3.518  -1.188   0.031  0.00  0.00    +0.158 HD
ENDROOT
BRANCH   8  12
ATOM     12  C   UNL     1      -8.559  -4.227   0.061  0.00  0.00    +0.047 C 
ATOM     13  C   UNL     1      -8.946  -5.693   0.266  0.00  0.00    +0.011 C 
ATOM     14  C   UNL     1      -9.104  -5.046  -1.111  0.00  0.00    +0.011 C 
ENDBRANCH   8  12
BRANCH   1  15
ATOM     15  N   UNL     1      -1.191  -0.719   0.010  0.00  0.00    -0.246 N 
ATOM     16  H   UNL     1      -2.039  -0.247   0.021  0.00  0.00    +0.172 HD
BRANCH  15  22
ATOM     17  C   UNL     1      -0.017   1.390   0.010  0.00  0.00    +0.050 A 
ATOM     18  C   UNL     1       1.199   2.056   0.002  0.00  0.00    +0.045 A 
ATOM     19  C   UNL     1       2.360   1.294  -0.013  0.00  0.00    +0.152 A 
ATOM     20  N   UNL     1       2.284  -0.023  -0.020  0.00  0.00    -0.136 NA
ATOM     21  N   UNL     1       1.161  -0.645  -0.013  0.00  0.00    -0.132 NA
ATOM     22  C   UNL     1       0.002  -0.004   0.002  0.00  0.00    +0.157 A 
ATOM     23 CL   UNL     1       3.910   2.074  -0.025  0.00  0.00    -0.060 Cl
ENDBRANCH  15  22
ENDBRANCH   1  15
TORSDOF 3
