REMARK  Name = ZINC14475035
REMARK  2 active torsions:
REMARK  status: ('A' for Active; 'I' for Inactive)
REMARK    1  A    between atoms: C_6  and  C_11
REMARK    2  A    between atoms: C_22  and  C_27
REMARK                            x       y       z     vdW  Elec       q    Type
REMARK                         _______ _______ _______ _____ _____    ______ ____
ROOT
ATOM      1  C   UNL     1       1.268   1.708  -0.001  0.00  0.00    +0.105 C 
ATOM      2  C   UNL     1       1.237   2.948   0.875  0.00  0.00    +0.029 C 
ATOM      3  C   UNL     1       2.493   3.829   0.887  0.00  0.00    +0.033 C 
ATOM      4  C   UNL     1       1.897   5.209   1.175  0.00  0.00    -0.030 C 
ATOM      5  C   UNL     1       0.636   5.254   0.763  0.00  0.00    -0.023 C 
ATOM      6  C   UNL     1       0.293   3.948   0.144  0.00  0.00    +0.049 C 
ATOM      7  C   UNL     1      -1.078   3.395   0.195  0.00  0.00    -0.019 A 
ATOM      8  C   UNL     1      -2.189   4.194   0.305  0.00  0.00    +0.019 A 
ATOM      9  C   UNL     1      -3.465   3.625   0.335  0.00  0.00    +0.037 A 
ATOM     10  C   UNL     1      -3.605   2.236   0.250  0.00  0.00    +0.015 A 
ATOM     11  C   UNL     1      -2.491   1.438   0.145  0.00  0.00    +0.024 A 
ATOM     12  C   UNL     1      -1.217   2.001   0.117  0.00  0.00    +0.031 A 
ATOM     13  N   UNL     1      -0.106   1.162   0.033  0.00  0.00    -0.336 N 
ATOM     14  H   UNL     1      -0.237   0.202  -0.009  0.00  0.00    +0.147 HD
ENDROOT
BRANCH   1  20
ATOM     15  C   UNL     1       3.975   3.107  -5.695  0.00  0.00    +0.001 A 
ATOM     16  C   UNL     1       4.973   2.783  -4.777  0.00  0.00    +0.001 A 
ATOM     17  C   UNL     1       4.664   2.446  -3.495  0.00  0.00    +0.008 A 
ATOM     18  C   UNL     1       3.319   2.425  -3.087  0.00  0.00    -0.018 A 
ATOM     19  C   UNL     1       2.961   2.090  -1.770  0.00  0.00    +0.014 A 
ATOM     20  C   UNL     1       1.648   2.075  -1.412  0.00  0.00    -0.026 A 
ATOM     21  C   UNL     1       0.650   2.398  -2.330  0.00  0.00    +0.006 A 
ATOM     22  C   UNL     1       0.960   2.734  -3.612  0.00  0.00    +0.009 A 
ATOM     23  C   UNL     1       2.304   2.755  -4.020  0.00  0.00    -0.018 A 
ATOM     24  C   UNL     1       2.663   3.097  -5.336  0.00  0.00    +0.008 A 
ENDBRANCH   1  20
BRANCH   9  25
ATOM     25  C   UNL     1      -4.659   4.484   0.454  0.00  0.00    +0.242 C 
ATOM     26  O   UNL     1      -4.534   5.691   0.527  0.00  0.00    -0.270 OA
ATOM     27  N   UNL     1      -5.887   3.931   0.482  0.00  0.00    -0.325 N 
ATOM     28  H   UNL     1      -5.987   2.968   0.424  0.00  0.00    +0.145 HD
ATOM     29  H   UNL     1      -6.672   4.496   0.560  0.00  0.00    +0.145 HD
ENDBRANCH   9  25
TORSDOF 2
