REMARK  Name = ZINC14367940
REMARK  10 active torsions:
REMARK  status: ('A' for Active; 'I' for Inactive)
REMARK    1  A    between atoms: C_1  and  C_2
REMARK    2  A    between atoms: C_2  and  C_3
REMARK    3  A    between atoms: C_3  and  C_4
REMARK    4  A    between atoms: C_7  and  C_10
REMARK    5  A    between atoms: C_10  and  C_34
REMARK    6  A    between atoms: N_13  and  C_17
REMARK    7  A    between atoms: C_17  and  C_18
REMARK    8  A    between atoms: N_20  and  C_21
REMARK    9  A    between atoms: C_21  and  C_23
REMARK   10  A    between atoms: C_21  and  C_24
REMARK                            x       y       z     vdW  Elec       q    Type
REMARK                         _______ _______ _______ _____ _____    ______ ____
ROOT
ATOM      1  C   UNL     1       7.947  -4.132   3.927  0.00  0.00    +0.135 C 
ATOM      2  C   UNL     1       6.579  -3.482   3.858  0.00  0.00    +0.251 C 
ATOM      3  O   UNL     1       6.105  -2.690   4.644  0.00  0.00    -0.272 OA
ATOM      4  N   UNL     1       6.001  -3.967   2.741  0.00  0.00    -0.215 N 
ATOM      5  C   UNL     1       6.803  -4.828   2.104  0.00  0.00    +0.310 C 
ATOM      6  O   UNL     1       6.500  -5.399   1.075  0.00  0.00    -0.252 OA
ATOM      7  N   UNL     1       7.984  -4.988   2.728  0.00  0.00    -0.281 N 
ATOM      8  C   UNL     1       8.079  -4.976   5.196  0.00  0.00    +0.047 C 
ATOM      9  H   UNL     1       8.716  -5.558   2.446  0.00  0.00    +0.152 HD
ENDROOT
BRANCH   1  13
ATOM     10  C   UNL     1      11.026  -1.175   3.757  0.00  0.00    -0.047 A 
ATOM     11  C   UNL     1      11.255  -2.442   3.254  0.00  0.00    +0.004 A 
ATOM     12  C   UNL     1      10.259  -3.398   3.308  0.00  0.00    +0.006 A 
ATOM     13  C   UNL     1       9.033  -3.089   3.867  0.00  0.00    -0.015 A 
ATOM     14  C   UNL     1       8.802  -1.820   4.366  0.00  0.00    +0.006 A 
ATOM     15  C   UNL     1       9.800  -0.865   4.315  0.00  0.00    +0.004 A 
BRANCH  10  16
ATOM     16  C   UNL     1      12.112  -0.132   3.697  0.00  0.00    +0.035 C 
BRANCH  16  18
ATOM     17  C   UNL     1      13.102   1.706   2.325  0.00  0.00    +0.004 C 
ATOM     18  C   UNL     1      11.999   0.647   2.385  0.00  0.00    +0.001 C 
ENDBRANCH  16  18
ENDBRANCH  10  16
ENDBRANCH   1  13
BRANCH   4  19
ATOM     19  C   UNL     1       4.658  -3.601   2.285  0.00  0.00    +0.213 C 
BRANCH  19  20
ATOM     20  C   UNL     1       4.745  -2.401   1.378  0.00  0.00    +0.231 C 
ATOM     21  O   UNL     1       5.823  -1.900   1.137  0.00  0.00    -0.274 OA
ATOM     22  N   UNL     1       3.625  -1.884   0.835  0.00  0.00    -0.307 N 
ATOM     23  H   UNL     1       2.763  -2.285   1.028  0.00  0.00    +0.149 HD
BRANCH  22  24
ATOM     24  C   UNL     1       3.709  -0.717  -0.047  0.00  0.00    +0.100 C 
ATOM     25  C   UNL     1       4.013  -1.177  -1.474  0.00  0.00    +0.033 C 
BRANCH  24  26
ATOM     26  C   UNL     1       2.397   0.024  -0.026  0.00  0.00    -0.024 A 
ATOM     27  C   UNL     1       1.207  -0.680  -0.016  0.00  0.00    +0.009 A 
ATOM     28  C   UNL     1       0.002  -0.004   0.002  0.00  0.00    +0.050 A 
ATOM     29  C   UNL     1      -0.017   1.383   0.010  0.00  0.00    +0.162 A 
ATOM     30  C   UNL     1       1.179   2.090   0.002  0.00  0.00    +0.162 A 
ATOM     31  C   UNL     1       2.386   1.406  -0.017  0.00  0.00    +0.055 A 
ATOM     32  O   UNL     1       1.184   3.451   0.018  0.00  0.00    -0.485 OA
ATOM     33  C   UNL     1      -0.040   4.103  -0.340  0.00  0.00    +0.270 C 
ATOM     34  C   UNL     1      -1.189   3.413   0.408  0.00  0.00    +0.270 C 
ATOM     35  O   UNL     1      -1.212   2.035   0.019  0.00  0.00    -0.485 OA
ENDBRANCH  24  26
ENDBRANCH  22  24
ENDBRANCH  19  20
ENDBRANCH   4  19
TORSDOF 7
