REMARK  Name = ZINC39989808
REMARK  11 active torsions:
REMARK  status: ('A' for Active; 'I' for Inactive)
REMARK    1  A    between atoms: C_1  and  C_2
REMARK    2  A    between atoms: C_2  and  N_3
REMARK    3  A    between atoms: C_4  and  N_29
REMARK    4  A    between atoms: C_5  and  C_13
REMARK    5  A    between atoms: C_6  and  C_12
REMARK    6  A    between atoms: C_7  and  C_10
REMARK    7  A    between atoms: N_17  and  C_21
REMARK    8  A    between atoms: C_21  and  C_22
REMARK    9  A    between atoms: C_25  and  C_28
REMARK   10  A    between atoms: C_31  and  C_38
REMARK   11  A    between atoms: C_34  and  C_37
REMARK                            x       y       z     vdW  Elec       q    Type
REMARK                         _______ _______ _______ _____ _____    ______ ____
ROOT
ATOM      1  N   UNL     1       0.529  -1.656  -0.936  0.00  0.00    -0.295 N 
ATOM      2  C   UNL     1       0.106  -1.326  -2.183  0.00  0.00    +0.112 A 
ATOM      3  C   UNL     1       0.998  -1.343  -3.267  0.00  0.00    +0.019 A 
ATOM      4  C   UNL     1       2.339  -1.706  -3.053  0.00  0.00    -0.017 A 
ATOM      5  C   UNL     1       2.748  -2.040  -1.765  0.00  0.00    +0.120 A 
ATOM      6  C   UNL     1       1.808  -2.002  -0.704  0.00  0.00    +0.270 A 
ATOM      7  O   UNL     1       2.161  -2.288   0.427  0.00  0.00    -0.266 OA
ATOM      8  C   UNL     1       3.317  -1.733  -4.199  0.00  0.00    +0.046 C 
ENDROOT
BRANCH   3   9
ATOM      9  C   UNL     1       0.536  -0.987  -4.610  0.00  0.00    +0.032 C 
ATOM     10  C   UNL     1       0.507  -1.929  -5.592  0.00  0.00    +0.077 C 
ATOM     11  C   UNL     1       0.220  -1.782  -6.983  0.00  0.00    +0.259 C 
ATOM     12  O   UNL     1      -0.051  -0.693  -7.456  0.00  0.00    -0.269 OA
ATOM     13  N   UNL     1       0.257  -2.864  -7.742  0.00  0.00    -0.251 N 
ATOM     14  C   UNL     1       0.557  -4.072  -7.216  0.00  0.00    +0.121 C 
ATOM     15  S   UNL     1       0.661  -5.589  -8.004  0.00  0.00    -0.027 S 
ATOM     16  S   UNL     1       0.825  -3.685  -5.493  0.00  0.00    -0.061 S 
BRANCH  13  17
ATOM     17  C   UNL     1      -0.032  -2.752  -9.174  0.00  0.00    +0.150 C 
BRANCH  17  18
ATOM     18  C   UNL     1       1.247  -2.483  -9.924  0.00  0.00    -0.030 A 
ATOM     19  C   UNL     1       1.664  -1.182 -10.137  0.00  0.00    +0.005 A 
ATOM     20  C   UNL     1       2.837  -0.936 -10.825  0.00  0.00    +0.003 A 
ATOM     21  C   UNL     1       3.593  -1.991 -11.302  0.00  0.00    -0.050 A 
ATOM     22  C   UNL     1       3.177  -3.292 -11.089  0.00  0.00    +0.003 A 
ATOM     23  C   UNL     1       2.006  -3.538 -10.396  0.00  0.00    +0.005 A 
ATOM     24  C   UNL     1       4.871  -1.722 -12.053  0.00  0.00    +0.044 C 
ENDBRANCH  17  18
ENDBRANCH  13  17
ENDBRANCH   3   9
BRANCH   2  25
ATOM     25  N   UNL     1      -1.197  -0.975  -2.385  0.00  0.00    -0.315 N 
ATOM     26  C   UNL     1      -1.542   0.351  -2.914  0.00  0.00    +0.109 C 
ATOM     27  C   UNL     1      -2.438   0.174  -4.144  0.00  0.00    +0.004 C 
ATOM     28  C   UNL     1      -3.647  -0.687  -3.769  0.00  0.00    +0.009 C 
ATOM     29  C   UNL     1      -3.170  -2.068  -3.316  0.00  0.00    +0.004 C 
ATOM     30  C   UNL     1      -2.282  -1.919  -2.082  0.00  0.00    +0.109 C 
ATOM     31  C   UNL     1      -2.369  -2.727  -4.440  0.00  0.00    +0.009 C 
ATOM     32  C   UNL     1      -2.916   1.544  -4.629  0.00  0.00    +0.009 C 
ENDBRANCH   2  25
BRANCH   1  34
ATOM     33  C   UNL     1      -0.347  -0.274   0.882  0.00  0.00    +0.027 C 
ATOM     34  C   UNL     1      -0.423  -1.631   0.178  0.00  0.00    +0.123 C 
ENDBRANCH   1  34
BRANCH   5  35
ATOM     35  C   UNL     1       4.107  -2.414  -1.513  0.00  0.00    +0.105 C 
ATOM     36  N   UNL     1       5.185  -2.711  -1.313  0.00  0.00    -0.191 NA
ENDBRANCH   5  35
TORSDOF 6
