REMARK  Name = ZINC67028433
REMARK  6 active torsions:
REMARK  status: ('A' for Active; 'I' for Inactive)
REMARK    1  A    between atoms: C_1  and  C_2
REMARK    2  A    between atoms: C_3  and  C_15
REMARK    3  A    between atoms: C_4  and  C_10
REMARK    4  A    between atoms: N_17  and  C_18
REMARK    5  A    between atoms: C_22  and  O_24
REMARK    6  A    between atoms: O_24  and  C_25
REMARK                            x       y       z     vdW  Elec       q    Type
REMARK                         _______ _______ _______ _____ _____    ______ ____
ROOT
ATOM      1  C   UNL     1       0.882   1.497  -0.974  0.00  0.00    +0.061 C 
ATOM      2  C   UNL     1       0.697   0.080  -0.496  0.00  0.00    +0.017 C 
ATOM      3  C   UNL     1      -0.538  -0.352  -0.163  0.00  0.00    +0.057 C 
ATOM      4  C   UNL     1      -0.681  -1.784   0.312  0.00  0.00    +0.160 C 
ATOM      5  N   UNL     1       0.549  -2.592   0.372  0.00  0.00    -0.314 N 
ATOM      6  C   UNL     1       1.712  -2.018   0.007  0.00  0.00    +0.135 C 
ATOM      7  S   UNL     1       3.150  -2.946   0.071  0.00  0.00    -0.019 S 
ATOM      8  N   UNL     1       1.779  -0.748  -0.411  0.00  0.00    -0.300 N 
ATOM      9  H   UNL     1       0.522  -3.515   0.669  0.00  0.00    +0.149 HD
ATOM     10  H   UNL     1       2.647  -0.395  -0.665  0.00  0.00    +0.154 HD
ENDROOT
BRANCH   4  11
ATOM     11  C   UNL     1      -1.651  -2.484  -0.605  0.00  0.00    +0.097 A 
ATOM     12  C   UNL     1      -1.296  -3.552  -1.364  0.00  0.00    +0.094 A 
ATOM     13  S   UNL     1      -2.732  -3.908  -2.159  0.00  0.00    +0.028 S 
ATOM     14  N   UNL     1      -3.675  -2.752  -1.533  0.00  0.00    -0.110 NA
ATOM     15  N   UNL     1      -2.906  -2.107  -0.725  0.00  0.00    -0.144 NA
ENDBRANCH   4  11
BRANCH   3  16
ATOM     16  C   UNL     1      -1.663   0.504  -0.255  0.00  0.00    +0.248 C 
ATOM     17  O   UNL     1      -2.156   0.971   0.755  0.00  0.00    -0.270 OA
ATOM     18  N   UNL     1      -2.187   0.801  -1.461  0.00  0.00    -0.282 N 
ATOM     19  H   UNL     1      -1.879   0.333  -2.252  0.00  0.00    +0.155 HD
BRANCH  18  20
ATOM     20  C   UNL     1      -3.175   1.784  -1.571  0.00  0.00    +0.037 A 
ATOM     21  C   UNL     1      -3.960   2.108  -0.471  0.00  0.00    +0.023 A 
ATOM     22  C   UNL     1      -4.936   3.079  -0.579  0.00  0.00    +0.005 A 
ATOM     23  C   UNL     1      -5.134   3.732  -1.782  0.00  0.00    +0.046 A 
ATOM     24  C   UNL     1      -4.353   3.413  -2.883  0.00  0.00    +0.122 A 
ATOM     25  C   UNL     1      -3.369   2.443  -2.777  0.00  0.00    +0.069 A 
BRANCH  24  26
ATOM     26  O   UNL     1      -4.549   4.056  -4.065  0.00  0.00    -0.495 OA
ATOM     27  C   UNL     1      -5.577   5.048  -4.100  0.00  0.00    +0.277 C 
ENDBRANCH  24  26
ENDBRANCH  18  20
ENDBRANCH   3  16
TORSDOF 4
