REMARK  Name = ZINC36871147
REMARK  5 active torsions:
REMARK  status: ('A' for Active; 'I' for Inactive)
REMARK    1  A    between atoms: C_1  and  C_2
REMARK    2  A    between atoms: C_2  and  C_3
REMARK    3  A    between atoms: C_3  and  C_5
REMARK    4  A    between atoms: C_3  and  N_18
REMARK    5  A    between atoms: N_7  and  C_8
REMARK                            x       y       z     vdW  Elec       q    Type
REMARK                         _______ _______ _______ _____ _____    ______ ____
ROOT
ATOM      1  C   UNL     1       0.698  -1.977  -1.918  0.00  0.00    +0.203 C 
ATOM      2  O   UNL     1       1.699  -2.634  -2.111  0.00  0.00    -0.277 OA
ATOM      3  N   UNL     1      -0.494  -2.590  -1.777  0.00  0.00    -0.287 N 
ATOM      4  H   UNL     1      -1.283  -2.071  -1.558  0.00  0.00    +0.155 HD
ENDROOT
BRANCH   3   5
ATOM      5  C   UNL     1      -0.592  -3.976  -1.947  0.00  0.00    +0.037 A 
ATOM      6  C   UNL     1       0.454  -4.794  -1.550  0.00  0.00    +0.023 A 
ATOM      7  C   UNL     1       0.355  -6.161  -1.719  0.00  0.00    +0.002 A 
ATOM      8  C   UNL     1      -0.781  -6.703  -2.284  0.00  0.00    +0.004 A 
ATOM      9  C   UNL     1      -1.832  -5.887  -2.685  0.00  0.00    -0.042 A 
ATOM     10  C   UNL     1      -1.744  -4.526  -2.509  0.00  0.00    -0.023 A 
ATOM     11  C   UNL     1      -2.853  -3.583  -2.899  0.00  0.00    +0.037 C 
ATOM     12  C   UNL     1      -3.821  -4.264  -3.865  0.00  0.00    +0.005 C 
ATOM     13  C   UNL     1      -4.244  -5.607  -3.259  0.00  0.00    +0.005 C 
ATOM     14  C   UNL     1      -3.037  -6.548  -3.301  0.00  0.00    +0.035 C 
ENDBRANCH   3   5
BRANCH   1  15
ATOM     15  C   UNL     1       0.787  -0.474  -1.837  0.00  0.00    +0.013 C 
BRANCH  15  16
ATOM     16  N   UNL     1       2.030  -0.022  -2.476  0.00  0.00    +0.386 N 
ATOM     17  H   UNL     1       2.089   0.984  -2.422  0.00  0.00    -0.089 HD
ATOM     18  H   UNL     1       2.820  -0.432  -2.002  0.00  0.00    -0.089 HD
ATOM     19  H   UNL     1       2.034  -0.307  -3.444  0.00  0.00    -0.089 HD
ENDBRANCH  15  16
BRANCH  15  21
ATOM     20  C   UNL     1       0.745   1.486  -0.289  0.00  0.00    +0.002 C 
ATOM     21  C   UNL     1       0.781  -0.042  -0.370  0.00  0.00    -0.011 C 
ENDBRANCH  15  21
ENDBRANCH   1  15
TORSDOF 4
