REMARK  Name = ZINC02956470
REMARK  3 active torsions:
REMARK  status: ('A' for Active; 'I' for Inactive)
REMARK    1  A    between atoms: C_1  and  C_2
REMARK    2  A    between atoms: N_4  and  N_5
REMARK    3  A    between atoms: C_6  and  C_8
REMARK                            x       y       z     vdW  Elec       q    Type
REMARK                         _______ _______ _______ _____ _____    ______ ____
ROOT
ATOM      1  C   UNL     1       1.735   2.001  -0.004  0.00  0.00    +0.119 A 
ATOM      2  C   UNL     1       2.241   0.706  -0.015  0.00  0.00    +0.139 A 
ATOM      3  N   UNL     1       3.611   0.447  -0.030  0.00  0.00    -0.307 N 
ATOM      4  H   UNL     1       4.247   1.219  -0.033  0.00  0.00    +0.170 HD
ATOM      5  C   UNL     1       4.108  -0.799  -0.042  0.00  0.00    +0.259 A 
ATOM      6  O   UNL     1       5.309  -0.992  -0.054  0.00  0.00    -0.267 OA
ATOM      7  C   UNL     1       3.161  -1.928  -0.039  0.00  0.00    +0.063 A 
ATOM      8  C   UNL     1       3.604  -3.250  -0.052  0.00  0.00    +0.015 A 
ATOM      9  C   UNL     1       2.679  -4.273  -0.048  0.00  0.00    +0.001 A 
ATOM     10  C   UNL     1       1.322  -3.992  -0.033  0.00  0.00    +0.002 A 
ATOM     11  C   UNL     1       0.874  -2.686  -0.021  0.00  0.00    +0.027 A 
ATOM     12  C   UNL     1       1.793  -1.646  -0.024  0.00  0.00    +0.062 A 
ATOM     13  N   UNL     1       1.336  -0.311  -0.012  0.00  0.00    -0.282 N 
ATOM     14  C   UNL     1       0.002  -0.004   0.002  0.00  0.00    +0.132 A 
ATOM     15  S   UNL     1      -1.330  -1.079   0.009  0.00  0.00    -0.024 S 
ATOM     16  S   UNL     1      -0.021   1.723   0.011  0.00  0.00    -0.055 S 
ENDROOT
BRANCH   1  18
ATOM     17  N   UNL     1       1.762   4.391   0.009  0.00  0.00    -0.230 N 
ATOM     18  C   UNL     1       2.439   3.226  -0.004  0.00  0.00    +0.270 C 
ATOM     19  O   UNL     1       3.657   3.229  -0.016  0.00  0.00    -0.268 OA
ATOM     20  H   UNL     1       0.792   4.389   0.018  0.00  0.00    +0.173 HD
BRANCH  17  24
ATOM     21  C   UNL     1       2.532   8.079   0.020  0.00  0.00    +0.110 C 
ATOM     22  C   UNL     1       1.782   6.772   0.021  0.00  0.00    +0.226 C 
ATOM     23  O   UNL     1       0.569   6.769   0.033  0.00  0.00    -0.275 OA
ATOM     24  N   UNL     1       2.459   5.607   0.008  0.00  0.00    -0.234 N 
ATOM     25  H   UNL     1       3.429   5.609  -0.002  0.00  0.00    +0.173 HD
ENDBRANCH  17  24
ENDBRANCH   1  18
TORSDOF 2
