REMARK  Name = ZINC34975973
REMARK  3 active torsions:
REMARK  status: ('A' for Active; 'I' for Inactive)
REMARK    1  A    between atoms: C_3  and  C_6
REMARK    2  A    between atoms: C_7  and  C_12
REMARK    3  A    between atoms: C_8  and  N_11
REMARK                            x       y       z     vdW  Elec       q    Type
REMARK                         _______ _______ _______ _____ _____    ______ ____
ROOT
ATOM      1  C   UNL     1       3.572   0.619  -0.029  0.00  0.00    +0.158 A 
ATOM      2  C   UNL     1       4.426  -0.374   0.629  0.00  0.00    +0.074 A 
ATOM      3  C   UNL     1       5.731  -0.020   0.352  0.00  0.00    +0.224 A 
ATOM      4  O   UNL     1       5.708   1.087  -0.406  0.00  0.00    -0.339 OA
ATOM      5  N   UNL     1       4.368   1.469  -0.639  0.00  0.00    -0.072 NA
ENDROOT
BRANCH   2   6
ATOM      6  C   UNL     1       3.977  -1.533   1.435  0.00  0.00    -0.011 A 
ATOM      7  C   UNL     1       3.297  -1.329   2.636  0.00  0.00    +0.010 A 
ATOM      8  C   UNL     1       2.880  -2.411   3.382  0.00  0.00    +0.016 A 
ATOM      9  C   UNL     1       3.135  -3.699   2.942  0.00  0.00    +0.018 A 
ATOM     10  C   UNL     1       3.808  -3.907   1.751  0.00  0.00    +0.016 A 
ATOM     11  C   UNL     1       4.225  -2.832   0.993  0.00  0.00    +0.010 A 
ATOM     12 BR   UNL     1       2.561  -5.177   3.971  0.00  0.00    -0.050 Br
ENDBRANCH   2   6
BRANCH   1  15
ATOM     13  C   UNL     1      -0.016   1.344   0.009  0.00  0.00    +0.042 A 
ATOM     14  C   UNL     1       1.325   1.775  -0.001  0.00  0.00    +0.051 A 
ATOM     15  C   UNL     1       2.096   0.655  -0.014  0.00  0.00    +0.157 A 
ATOM     16  O   UNL     1       1.279  -0.417  -0.012  0.00  0.00    -0.461 OA
ATOM     17  C   UNL     1       0.002  -0.004   0.002  0.00  0.00    +0.196 A 
ENDBRANCH   1  15
BRANCH   3  18
ATOM     18  N   UNL     1       6.861  -0.687   0.779  0.00  0.00    -0.327 N 
ATOM     19  H   UNL     1       6.776  -1.483   1.327  0.00  0.00    +0.145 HD
ATOM     20  H   UNL     1       7.740  -0.360   0.532  0.00  0.00    +0.145 HD
ENDBRANCH   3  18
TORSDOF 3
