REMARK  Name = ZINC62121165
REMARK  10 active torsions:
REMARK  status: ('A' for Active; 'I' for Inactive)
REMARK    1  A    between atoms: C_1  and  C_2
REMARK    2  A    between atoms: C_4  and  C_24
REMARK    3  A    between atoms: C_7  and  N_8
REMARK    4  A    between atoms: C_9  and  C_11
REMARK    5  A    between atoms: N_13  and  C_14
REMARK    6  A    between atoms: C_14  and  C_15
REMARK    7  A    between atoms: C_15  and  C_16
REMARK    8  A    between atoms: C_15  and  N_17
REMARK    9  A    between atoms: C_21  and  C_23
REMARK   10  A    between atoms: N_26  and  C_27
REMARK                            x       y       z     vdW  Elec       q    Type
REMARK                         _______ _______ _______ _____ _____    ______ ____
ROOT
ATOM      1  N   UNL     1       0.268  -0.666   2.373  0.00  0.00    -0.278 N 
ATOM      2  C   UNL     1       0.102  -1.210   3.594  0.00  0.00    +0.303 C 
ATOM      3  O   UNL     1       0.026  -2.416   3.716  0.00  0.00    -0.265 OA
ATOM      4  H   UNL     1       0.399   0.291   2.282  0.00  0.00    +0.155 HD
ENDROOT
BRANCH   1  11
ATOM      5  C   UNL     1      -0.833   0.406  -0.017  0.00  0.00    +0.045 C 
ATOM      6  C   UNL     1      -0.278  -0.994   0.048  0.00  0.00    -0.029 A 
ATOM      7  C   UNL     1      -0.291  -1.791  -1.075  0.00  0.00    +0.018 A 
ATOM      8  C   UNL     1       0.224  -3.088  -1.014  0.00  0.00    +0.037 A 
ATOM      9  C   UNL     1       0.751  -3.572   0.187  0.00  0.00    +0.015 A 
ATOM     10  C   UNL     1       0.761  -2.771   1.305  0.00  0.00    +0.024 A 
ATOM     11  C   UNL     1       0.252  -1.477   1.240  0.00  0.00    +0.037 A 
BRANCH   8  12
ATOM     12  C   UNL     1       0.212  -3.946  -2.215  0.00  0.00    +0.244 C 
ATOM     13  O   UNL     1      -0.247  -3.524  -3.259  0.00  0.00    -0.270 OA
ATOM     14  N   UNL     1       0.709  -5.197  -2.155  0.00  0.00    -0.314 N 
ATOM     15  C   UNL     1       0.697  -6.048  -3.347  0.00  0.00    +0.128 C 
ATOM     16  H   UNL     1       1.075  -5.534  -1.323  0.00  0.00    +0.149 HD
ENDBRANCH   8  12
ENDBRANCH   1  11
BRANCH   2  17
ATOM     17  C   UNL     1       0.012  -0.331   4.798  0.00  0.00    +0.299 C 
ATOM     18  O   UNL     1       0.088   0.874   4.676  0.00  0.00    -0.265 OA
ATOM     19  N   UNL     1      -0.155  -0.876   6.019  0.00  0.00    -0.309 N 
ATOM     20  H   UNL     1      -0.216  -1.839   6.117  0.00  0.00    +0.149 HD
BRANCH  19  21
ATOM     21  C   UNL     1      -0.243  -0.013   7.200  0.00  0.00    +0.089 C 
BRANCH  21  22
ATOM     22  C   UNL     1      -0.309  -0.879   8.460  0.00  0.00    -0.054 C 
ATOM     23  C   UNL     1      -0.525   0.016   9.683  0.00  0.00    -0.012 C 
BRANCH  22  24
ATOM     24  N   UNL     1      -1.425  -1.827   8.345  0.00  0.00    +0.383 N 
ATOM     25  C   UNL     1      -1.443  -2.705   9.521  0.00  0.00    -0.078 C 
ATOM     26  C   UNL     1      -2.554  -3.747   9.368  0.00  0.00    -0.018 C 
ATOM     27  C   UNL     1      -3.902  -3.033   9.242  0.00  0.00    -0.001 C 
ATOM     28  C   UNL     1      -3.847  -2.064   8.056  0.00  0.00    -0.031 C 
ATOM     29  C   UNL     1      -2.689  -1.085   8.258  0.00  0.00    -0.075 C 
ATOM     30  C   UNL     1      -5.163  -1.289   7.969  0.00  0.00    +0.005 C 
ATOM     31  H   UNL     1      -1.307  -2.385   7.513  0.00  0.00    -0.081 HD
ENDBRANCH  22  24
ENDBRANCH  21  22
ENDBRANCH  19  21
ENDBRANCH   2  17
TORSDOF 6
