REMARK  Name = ZINC39601339
REMARK  7 active torsions:
REMARK  status: ('A' for Active; 'I' for Inactive)
REMARK    1  A    between atoms: C_1  and  C_2
REMARK    2  A    between atoms: C_2  and  C_3
REMARK    3  A    between atoms: C_2  and  C_4
REMARK    4  A    between atoms: C_4  and  C_5
REMARK    5  A    between atoms: C_5  and  N_6
REMARK    6  A    between atoms: C_7  and  C_9
REMARK    7  A    between atoms: C_20  and  C_22
REMARK                            x       y       z     vdW  Elec       q    Type
REMARK                         _______ _______ _______ _____ _____    ______ ____
ROOT
ATOM      1  C   UNL     1       0.888  -0.881   6.133  0.00  0.00    +0.100 C 
ATOM      2  C   UNL     1       2.318  -0.298   6.181  0.00  0.00    +0.121 C 
ATOM      3  N   UNL     1       2.205   0.900   7.045  0.00  0.00    -0.297 N 
ATOM      4  C   UNL     1       1.274   0.490   8.124  0.00  0.00    +0.115 C 
ATOM      5  C   UNL     1       0.207  -0.365   7.411  0.00  0.00    -0.004 C 
ATOM      6  C   UNL     1      -0.211  -1.534   8.297  0.00  0.00    -0.010 C 
ATOM      7  C   UNL     1      -0.937  -0.998   9.534  0.00  0.00    -0.082 C 
ATOM      8  N   UNL     1      -2.115  -0.229   9.116  0.00  0.00    +0.379 N 
ATOM      9  C   UNL     1      -1.698   0.947   8.343  0.00  0.00    -0.082 C 
ATOM     10  C   UNL     1      -1.003   0.493   7.056  0.00  0.00    -0.010 C 
ATOM     11  C   UNL     1       2.812   2.093   6.887  0.00  0.00    +0.260 C 
ATOM     12  O   UNL     1       2.616   2.983   7.687  0.00  0.00    -0.271 OA
ATOM     13  H   UNL     1      -2.711  -0.811   8.546  0.00  0.00    -0.086 HD
ATOM     14  H   UNL     1      -2.626   0.072   9.933  0.00  0.00    -0.086 HD
ENDROOT
BRANCH  11  15
ATOM     15  C   UNL     1       3.732   2.321   5.716  0.00  0.00    +0.296 C 
ATOM     16  C   UNL     1       4.966   1.418   5.845  0.00  0.00    +0.283 C 
ATOM     17  O   UNL     1       5.824   1.669   4.726  0.00  0.00    -0.484 OA
ATOM     18  C   UNL     1       6.056   2.974   4.414  0.00  0.00    +0.162 A 
ATOM     19  C   UNL     1       7.132   3.299   3.602  0.00  0.00    +0.049 A 
ATOM     20  C   UNL     1       7.378   4.618   3.273  0.00  0.00    +0.004 A 
ATOM     21  C   UNL     1       6.553   5.618   3.753  0.00  0.00    +0.004 A 
ATOM     22  C   UNL     1       5.479   5.301   4.564  0.00  0.00    +0.049 A 
ATOM     23  C   UNL     1       5.228   3.979   4.898  0.00  0.00    +0.163 A 
ATOM     24  O   UNL     1       4.171   3.683   5.704  0.00  0.00    -0.473 OA
ENDBRANCH  11  15
BRANCH   1  26
ATOM     25  N   UNL     1      -0.811  -1.132   4.353  0.00  0.00    -0.315 N 
ATOM     26  C   UNL     1       0.159  -0.382   4.912  0.00  0.00    +0.218 C 
ATOM     27  O   UNL     1       0.446   0.694   4.432  0.00  0.00    -0.275 OA
ATOM     28  H   UNL     1      -1.041  -1.993   4.737  0.00  0.00    +0.149 HD
BRANCH  25  29
ATOM     29  C   UNL     1      -1.520  -0.646   3.166  0.00  0.00    +0.104 C 
BRANCH  29  30
ATOM     30  C   UNL     1      -2.563  -1.680   2.737  0.00  0.00    +0.022 C 
BRANCH  30  32
ATOM     31  C   UNL     1      -2.326  -1.074   0.325  0.00  0.00    +0.007 C 
ATOM     32  C   UNL     1      -3.304  -1.173   1.498  0.00  0.00    -0.016 C 
ATOM     33  C   UNL     1      -4.429  -2.146   1.142  0.00  0.00    +0.007 C 
ENDBRANCH  30  32
ENDBRANCH  29  30
ENDBRANCH  25  29
ENDBRANCH   1  26
TORSDOF 5
