REMARK  Name = ZINC13322292
REMARK  5 active torsions:
REMARK  status: ('A' for Active; 'I' for Inactive)
REMARK    1  A    between atoms: C_6  and  C_7
REMARK    2  A    between atoms: N_8  and  N_9
REMARK    3  A    between atoms: C_10  and  C_12
REMARK    4  A    between atoms: C_14  and  O_19
REMARK    5  A    between atoms: C_16  and  O_18
REMARK                            x       y       z     vdW  Elec       q    Type
REMARK                         _______ _______ _______ _____ _____    ______ ____
ROOT
ATOM      1  N   UNL     1      -2.538   4.101   0.036  0.00  0.00    -0.203 N 
ATOM      2  C   UNL     1      -2.553   5.448   0.044  0.00  0.00    +0.263 C 
ATOM      3  O   UNL     1      -1.506   6.068   0.042  0.00  0.00    -0.268 OA
ATOM      4  H   UNL     1      -3.372   3.606   0.038  0.00  0.00    +0.178 HD
ENDROOT
BRANCH   2   5
ATOM      5  C   UNL     1      -3.841   6.173   0.054  0.00  0.00    +0.045 A 
ATOM      6  C   UNL     1      -5.043   5.464   0.050  0.00  0.00    +0.058 A 
ATOM      7  C   UNL     1      -6.247   6.147   0.066  0.00  0.00    +0.121 A 
ATOM      8  C   UNL     1      -6.261   7.534   0.073  0.00  0.00    +0.090 A 
ATOM      9  C   UNL     1      -5.068   8.243   0.071  0.00  0.00    +0.121 A 
ATOM     10  C   UNL     1      -3.859   7.568   0.061  0.00  0.00    +0.058 A 
BRANCH   9  11
ATOM     11  O   UNL     1      -5.087   9.602   0.078  0.00  0.00    -0.507 OA
ATOM     12  H   UNL     1      -5.096  10.000  -0.803  0.00  0.00    +0.292 HD
ENDBRANCH   9  11
BRANCH   7  13
ATOM     13  O   UNL     1      -7.418   5.457   0.068  0.00  0.00    -0.507 OA
ATOM     14  H   UNL     1      -7.762   5.262  -0.815  0.00  0.00    +0.292 HD
ENDBRANCH   7  13
ENDBRANCH   2   5
BRANCH   1  16
ATOM     15  C   UNL     1      -1.302   2.116   0.020  0.00  0.00    +0.138 C 
ATOM     16  N   UNL     1      -1.317   3.414   0.027  0.00  0.00    -0.187 NA
BRANCH  15  22
ATOM     17  C   UNL     1       1.187   2.102   0.002  0.00  0.00    +0.011 A 
ATOM     18  C   UNL     1       2.386   1.420  -0.014  0.00  0.00    +0.022 A 
ATOM     19  C   UNL     1       2.399   0.036  -0.021  0.00  0.00    +0.059 A 
ATOM     20  C   UNL     1       1.208  -0.674  -0.013  0.00  0.00    +0.060 A 
ATOM     21  C   UNL     1       0.002  -0.004   0.002  0.00  0.00    +0.031 A 
ATOM     22  C   UNL     1      -0.017   1.393   0.010  0.00  0.00    -0.004 A 
ATOM     23 CL   UNL     1       1.235  -2.410  -0.023  0.00  0.00    -0.082 Cl
ATOM     24 CL   UNL     1       3.912  -0.814  -0.041  0.00  0.00    -0.082 Cl
ENDBRANCH  15  22
ENDBRANCH   1  16
TORSDOF 5
