REMARK  Name = ZINC04000134
REMARK  5 active torsions:
REMARK  status: ('A' for Active; 'I' for Inactive)
REMARK    1  A    between atoms: C_1  and  C_2
REMARK    2  A    between atoms: C_8  and  C_24
REMARK    3  A    between atoms: C_8  and  C_25
REMARK    4  A    between atoms: C_9  and  C_15
REMARK    5  A    between atoms: C_16  and  C_17
REMARK                            x       y       z     vdW  Elec       q    Type
REMARK                         _______ _______ _______ _____ _____    ______ ____
ROOT
ATOM      1  C   UNL     1       5.417  -1.150  -5.752  0.00  0.00    +0.044 C 
ATOM      2  C   UNL     1       5.213  -1.016  -4.264  0.00  0.00    -0.050 A 
ATOM      3  C   UNL     1       4.609  -2.037  -3.553  0.00  0.00    +0.005 A 
ATOM      4  C   UNL     1       4.422  -1.920  -2.192  0.00  0.00    +0.024 A 
ATOM      5  C   UNL     1       4.842  -0.771  -1.522  0.00  0.00    +0.036 A 
ATOM      6  C   UNL     1       5.442   0.251  -2.247  0.00  0.00    -0.016 A 
ATOM      7  C   UNL     1       5.630   0.128  -3.608  0.00  0.00    +0.009 A 
ATOM      8  C   UNL     1       5.785   1.369  -1.282  0.00  0.00    +0.034 C 
ATOM      9  C   UNL     1       4.932   1.025  -0.041  0.00  0.00    +0.131 C 
ATOM     10  N   UNL     1       4.769  -0.449  -0.162  0.00  0.00    -0.296 N 
ATOM     11  C   UNL     1       5.959  -0.977   0.547  0.00  0.00    +0.203 C 
ATOM     12  C   UNL     1       6.336   0.104   1.536  0.00  0.00    +0.232 C 
ATOM     13  O   UNL     1       7.065  -0.037   2.495  0.00  0.00    -0.274 OA
ATOM     14  N   UNL     1       5.721   1.264   1.172  0.00  0.00    -0.289 N 
ATOM     15  C   UNL     1       5.378   2.726  -1.860  0.00  0.00    +0.020 C 
ATOM     16  C   UNL     1       7.275   1.354  -0.937  0.00  0.00    +0.020 C 
ATOM     17  H   UNL     1       5.795   2.115   1.632  0.00  0.00    +0.151 HD
ENDROOT
BRANCH   9  18
ATOM     18  C   UNL     1       3.615   1.756  -0.024  0.00  0.00    +0.020 C 
ATOM     19  C   UNL     1       2.478   1.074  -0.016  0.00  0.00    +0.007 C 
BRANCH  19  20
ATOM     20  C   UNL     1       1.186   1.791   0.000  0.00  0.00    -0.024 A 
ATOM     21  C   UNL     1      -0.013   1.076   0.008  0.00  0.00    +0.008 A 
ATOM     22  C   UNL     1      -1.216   1.751   0.017  0.00  0.00    +0.002 A 
ATOM     23  C   UNL     1      -1.237   3.134   0.030  0.00  0.00    +0.015 A 
ATOM     24  C   UNL     1      -0.052   3.850   0.023  0.00  0.00    +0.018 A 
ATOM     25  C   UNL     1       1.159   3.186   0.008  0.00  0.00    +0.023 A 
ATOM     26 BR   UNL     1      -0.092   5.740   0.034  0.00  0.00    -0.050 Br
ENDBRANCH  19  20
ENDBRANCH   9  18
TORSDOF 2
