REMARK  Name = ZINC59045389
REMARK  7 active torsions:
REMARK  status: ('A' for Active; 'I' for Inactive)
REMARK    1  A    between atoms: C_4  and  O_25
REMARK    2  A    between atoms: C_5  and  C_7
REMARK    3  A    between atoms: C_10  and  S_13
REMARK    4  A    between atoms: N_11  and  N_12
REMARK    5  A    between atoms: S_13  and  C_14
REMARK    6  A    between atoms: C_14  and  C_15
REMARK    7  A    between atoms: N_17  and  C_18
REMARK                            x       y       z     vdW  Elec       q    Type
REMARK                         _______ _______ _______ _____ _____    ______ ____
ROOT
ATOM      1  C   UNL     1       1.248  -2.161  -0.045  0.00  0.00    +0.185 A 
ATOM      2  N   UNL     1       2.318  -2.922  -0.059  0.00  0.00    -0.127 NA
ATOM      3  N   UNL     1       1.975  -4.160  -0.059  0.00  0.00    -0.121 NA
ATOM      4  C   UNL     1       0.666  -4.266  -0.045  0.00  0.00    +0.209 A 
ATOM      5  N   UNL     1       0.157  -2.998  -0.029  0.00  0.00    -0.224 N 
ENDROOT
BRANCH   1  10
ATOM      6  C   UNL     1      -0.016   1.375  -0.015  0.00  0.00    +0.001 A 
ATOM      7  C   UNL     1       1.170   2.089  -0.033  0.00  0.00    +0.004 A 
ATOM      8  C   UNL     1       2.384   1.427  -0.055  0.00  0.00    +0.046 A 
ATOM      9  C   UNL     1       2.419   0.042  -0.059  0.00  0.00    +0.128 A 
ATOM     10  C   UNL     1       1.222  -0.683  -0.041  0.00  0.00    +0.062 A 
ATOM     11  C   UNL     1       0.003  -0.004  -0.019  0.00  0.00    +0.015 A 
BRANCH   9  12
ATOM     12  O   UNL     1       3.611  -0.609  -0.080  0.00  0.00    -0.506 OA
ATOM     13  H   UNL     1       3.971  -0.800   0.797  0.00  0.00    +0.292 HD
ENDBRANCH   9  12
ENDBRANCH   1  10
BRANCH   5  14
ATOM     14  N   UNL     1      -1.160  -2.638  -0.007  0.00  0.00    -0.295 N 
ATOM     15  H   UNL     1      -1.524  -2.540  -0.942  0.00  0.00    +0.163 HD
ATOM     16  H   UNL     1      -1.706  -3.297   0.527  0.00  0.00    +0.163 HD
ENDBRANCH   5  14
BRANCH   4  17
ATOM     17  S   UNL     1      -0.261  -5.765  -0.039  0.00  0.00    -0.075 S 
BRANCH  17  18
ATOM     18  C   UNL     1       1.004  -7.064  -0.057  0.00  0.00    +0.173 C 
BRANCH  18  19
ATOM     19  C   UNL     1       0.337  -8.415  -0.054  0.00  0.00    +0.227 C 
ATOM     20  O   UNL     1      -0.873  -8.494  -0.042  0.00  0.00    -0.275 OA
ATOM     21  N   UNL     1       1.085  -9.536  -0.066  0.00  0.00    -0.285 N 
ATOM     22  H   UNL     1       2.050  -9.475  -0.144  0.00  0.00    +0.155 HD
BRANCH  21  23
ATOM     23  C   UNL     1       0.470 -10.790   0.034  0.00  0.00    +0.033 A 
ATOM     24  C   UNL     1       1.095 -11.818   0.727  0.00  0.00    +0.025 A 
ATOM     25  C   UNL     1       0.486 -13.054   0.824  0.00  0.00    +0.022 A 
ATOM     26  C   UNL     1      -0.747 -13.267   0.233  0.00  0.00    +0.041 A 
ATOM     27  C   UNL     1      -1.372 -12.244  -0.458  0.00  0.00    +0.022 A 
ATOM     28  C   UNL     1      -0.770 -11.005  -0.553  0.00  0.00    +0.025 A 
ATOM     29 CL   UNL     1      -1.510 -14.822   0.357  0.00  0.00    -0.084 Cl
ENDBRANCH  21  23
ENDBRANCH  18  19
ENDBRANCH  17  18
ENDBRANCH   4  17
TORSDOF 7
