REMARK  Name = ZINC11633189
REMARK  5 active torsions:
REMARK  status: ('A' for Active; 'I' for Inactive)
REMARK    1  A    between atoms: C_1  and  C_2
REMARK    2  A    between atoms: C_7  and  O_15
REMARK    3  A    between atoms: C_8  and  O_13
REMARK    4  A    between atoms: O_13  and  C_14
REMARK    5  A    between atoms: O_15  and  C_16
REMARK                            x       y       z     vdW  Elec       q    Type
REMARK                         _______ _______ _______ _____ _____    ______ ____
ROOT
ATOM      1  C   UNL     1      -1.431  -0.536  -0.067  0.00  0.00    +0.009 C 
ATOM      2  C   UNL     1       0.002  -0.004   0.002  0.00  0.00    +0.007 C 
ATOM      3  C   UNL     1       0.672  -0.496   1.285  0.00  0.00    +0.042 C 
ATOM      4  C   UNL     1       2.003   0.183   1.479  0.00  0.00    -0.023 A 
ATOM      5  C   UNL     1       2.942  -0.411   2.308  0.00  0.00    +0.054 A 
ATOM      6  C   UNL     1       4.172   0.187   2.511  0.00  0.00    +0.162 A 
ATOM      7  C   UNL     1       4.473   1.392   1.882  0.00  0.00    +0.163 A 
ATOM      8  C   UNL     1       3.538   1.986   1.053  0.00  0.00    +0.072 A 
ATOM      9  C   UNL     1       2.303   1.381   0.850  0.00  0.00    +0.034 A 
ATOM     10  N   UNL     1       1.374   1.998  -0.000  0.00  0.00    -0.343 N 
ATOM     11  C   UNL     1      -0.019   1.530   0.011  0.00  0.00    +0.105 C 
ATOM     12  H   UNL     1       1.647   2.720  -0.587  0.00  0.00    +0.146 HD
ENDROOT
BRANCH   7  13
ATOM     13  O   UNL     1       5.682   1.983   2.081  0.00  0.00    -0.491 OA
ATOM     14  C   UNL     1       5.920   3.217   1.402  0.00  0.00    +0.277 C 
ENDBRANCH   7  13
BRANCH   6  15
ATOM     15  O   UNL     1       5.089  -0.402   3.326  0.00  0.00    -0.491 OA
ATOM     16  C   UNL     1       4.713  -1.637   3.939  0.00  0.00    +0.277 C 
ENDBRANCH   6  15
TORSDOF 2
