REMARK  Name = ZINC59464815
REMARK  2 active torsions:
REMARK  status: ('A' for Active; 'I' for Inactive)
REMARK    1  A    between atoms: C_4  and  O_17
REMARK    2  A    between atoms: C_5  and  C_7
REMARK                            x       y       z     vdW  Elec       q    Type
REMARK                         _______ _______ _______ _____ _____    ______ ____
ROOT
ATOM      1  C   UNL     1       1.227  -2.187  -0.022  0.00  0.00    +0.194 C 
ATOM      2  N   UNL     1      -0.101  -2.741  -0.451  0.00  0.00    -0.197 N 
ATOM      3  C   UNL     1      -0.046  -3.490  -1.614  0.00  0.00    +0.100 C 
ATOM      4  C   UNL     1       1.100  -3.695  -2.289  0.00  0.00    +0.075 C 
ATOM      5  S   UNL     1       2.329  -2.823  -1.341  0.00  0.00    -0.101 S 
ATOM      6  S   UNL     1      -1.760  -3.982  -1.827  0.00  0.00    -0.036 S 
ATOM      7  C   UNL     1      -2.422  -3.175  -0.383  0.00  0.00    +0.175 C 
ATOM      8  N   UNL     1      -1.375  -2.621   0.133  0.00  0.00    -0.155 NA
ATOM      9  N   UNL     1      -3.734  -3.147   0.072  0.00  0.00    -0.336 N 
ATOM     10  H   UNL     1      -4.428  -3.612  -0.421  0.00  0.00    +0.144 HD
ATOM     11  H   UNL     1      -3.956  -2.662   0.882  0.00  0.00    +0.144 HD
ENDROOT
BRANCH   1  16
ATOM     12  C   UNL     1      -0.017   1.378   0.010  0.00  0.00    +0.001 A 
ATOM     13  C   UNL     1       1.170   2.088   0.002  0.00  0.00    +0.004 A 
ATOM     14  C   UNL     1       2.377   1.417  -0.013  0.00  0.00    +0.046 A 
ATOM     15  C   UNL     1       2.399   0.030  -0.021  0.00  0.00    +0.123 A 
ATOM     16  C   UNL     1       1.207  -0.680  -0.013  0.00  0.00    +0.026 A 
ATOM     17  C   UNL     1       0.002  -0.004   0.002  0.00  0.00    +0.010 A 
BRANCH  15  18
ATOM     18  O   UNL     1       3.586  -0.632  -0.037  0.00  0.00    -0.506 OA
ATOM     19  H   UNL     1       3.938  -0.829   0.842  0.00  0.00    +0.292 HD
ENDBRANCH  15  18
ENDBRANCH   1  16
TORSDOF 2
