REMARK  Name = ZINC12631400
REMARK  8 active torsions:
REMARK  status: ('A' for Active; 'I' for Inactive)
REMARK    1  A    between atoms: C_2  and  C_3
REMARK    2  A    between atoms: C_3  and  N_4
REMARK    3  A    between atoms: N_13  and  C_14
REMARK    4  A    between atoms: C_14  and  C_16
REMARK    5  A    between atoms: C_16  and  C_17
REMARK    6  A    between atoms: C_17  and  C_18
REMARK    7  A    between atoms: C_18  and  S_19
REMARK    8  A    between atoms: S_19  and  C_22
REMARK                            x       y       z     vdW  Elec       q    Type
REMARK                         _______ _______ _______ _____ _____    ______ ____
ROOT
ATOM      1  N   UNL     1       0.002  -0.004   0.002  0.00  0.00    -0.309 N 
ATOM      2  C   UNL     1      -0.005  -0.689  -1.201  0.00  0.00    +0.062 A 
ATOM      3  C   UNL     1      -0.019  -0.161  -2.501  0.00  0.00    +0.076 A 
ATOM      4  C   UNL     1      -0.020  -0.990  -3.606  0.00  0.00    +0.164 A 
ATOM      5  C   UNL     1       0.001  -2.373  -3.454  0.00  0.00    +0.163 A 
ATOM      6  C   UNL     1       0.021  -2.918  -2.179  0.00  0.00    +0.066 A 
ATOM      7  C   UNL     1       0.020  -2.085  -1.084  0.00  0.00    +0.043 A 
ATOM      8  S   UNL     1       0.039  -2.348   0.671  0.00  0.00    -0.052 S 
ATOM      9  C   UNL     1       0.022  -0.689   1.176  0.00  0.00    +0.167 A 
ATOM     10  N   UNL     1       0.026  -0.202   2.415  0.00  0.00    -0.156 NA
ATOM     11  O   UNL     1       0.004  -3.199  -4.535  0.00  0.00    -0.485 OA
ATOM     12  C   UNL     1      -0.388  -2.623  -5.786  0.00  0.00    +0.270 C 
ATOM     13  C   UNL     1       0.338  -1.279  -5.941  0.00  0.00    +0.270 C 
ATOM     14  O   UNL     1      -0.043  -0.434  -4.851  0.00  0.00    -0.485 OA
ENDROOT
BRANCH  10  15
ATOM     15  C   UNL     1       0.047  -1.030   3.454  0.00  0.00    +0.238 C 
ATOM     16  O   UNL     1       0.062  -2.233   3.272  0.00  0.00    -0.274 OA
BRANCH  15  17
ATOM     17  C   UNL     1       0.052  -0.480   4.857  0.00  0.00    +0.099 C 
BRANCH  17  18
ATOM     18  C   UNL     1       0.077  -1.637   5.858  0.00  0.00    +0.032 C 
BRANCH  18  19
ATOM     19  C   UNL     1       0.082  -1.078   7.282  0.00  0.00    +0.172 C 
BRANCH  19  20
ATOM     20  S   UNL     1       0.111  -2.449   8.470  0.00  0.00    -0.003 S 
ATOM     21  O   UNL     1      -1.114  -3.167   8.419  0.00  0.00    -0.169 OA
ATOM     22  O   UNL     1       1.355  -3.133   8.397  0.00  0.00    -0.169 OA
BRANCH  20  23
ATOM     23  C   UNL     1       0.115  -1.677  10.053  0.00  0.00    +0.088 A 
ATOM     24  C   UNL     1       1.313  -1.362  10.666  0.00  0.00    +0.028 A 
ATOM     25  C   UNL     1       1.317  -0.751  11.906  0.00  0.00    +0.022 A 
ATOM     26  C   UNL     1       0.120  -0.464  12.539  0.00  0.00    +0.041 A 
ATOM     27  C   UNL     1      -1.079  -0.784  11.927  0.00  0.00    +0.022 A 
ATOM     28  C   UNL     1      -1.081  -1.390  10.685  0.00  0.00    +0.028 A 
ATOM     29 CL   UNL     1       0.124   0.297  14.099  0.00  0.00    -0.084 Cl
ENDBRANCH  20  23
ENDBRANCH  19  20
ENDBRANCH  18  19
ENDBRANCH  17  18
ENDBRANCH  15  17
ENDBRANCH  10  15
BRANCH   1  30
ATOM     30  C   UNL     1      -0.018   1.461   0.010  0.00  0.00    +0.212 C 
BRANCH  30  32
ATOM     31  C   UNL     1       2.465   2.377  -0.009  0.00  0.00    +0.005 C 
ATOM     32  C   UNL     1       1.363   1.970  -0.000  0.00  0.00    -0.084 C 
ENDBRANCH  30  32
ENDBRANCH   1  30
TORSDOF 8
