REMARK  Name = ZINC40546338
REMARK  3 active torsions:
REMARK  status: ('A' for Active; 'I' for Inactive)
REMARK    1  A    between atoms: C_1  and  C_2
REMARK    2  A    between atoms: C_5  and  C_9
REMARK    3  A    between atoms: C_6  and  N_8
REMARK                            x       y       z     vdW  Elec       q    Type
REMARK                         _______ _______ _______ _____ _____    ______ ____
ROOT
ATOM      1  C   UNL     1      -0.007   1.501  -0.068  0.00  0.00    +0.086 C 
ATOM      2  C   UNL     1       0.012  -0.006  -0.036  0.00  0.00    +0.106 C 
ATOM      3  C   UNL     1      -1.125  -0.651   0.066  0.00  0.00    +0.087 C 
ATOM      4  C   UNL     1      -1.171  -2.153   0.103  0.00  0.00    +0.235 C 
ATOM      5  C   UNL     1       0.195  -2.711   0.399  0.00  0.00    +0.137 C 
ATOM      6  C   UNL     1       1.299  -1.927   0.275  0.00  0.00    +0.198 C 
ATOM      7  O   UNL     1       1.199  -0.644  -0.119  0.00  0.00    -0.446 OA
ATOM      8  N   UNL     1      -2.125  -2.602   1.125  0.00  0.00    -0.297 N 
ATOM      9  C   UNL     1      -3.100  -3.349   0.447  0.00  0.00    +0.074 A 
ATOM     10  C   UNL     1      -4.228  -4.010   0.914  0.00  0.00    +0.046 A 
ATOM     11  C   UNL     1      -5.047  -4.689   0.031  0.00  0.00    +0.043 A 
ATOM     12  C   UNL     1      -4.742  -4.710  -1.319  0.00  0.00    +0.024 A 
ATOM     13  C   UNL     1      -3.620  -4.055  -1.788  0.00  0.00    +0.049 A 
ATOM     14  C   UNL     1      -2.792  -3.369  -0.909  0.00  0.00    +0.145 A 
ATOM     15  O   UNL     1      -1.651  -2.664  -1.141  0.00  0.00    -0.458 OA
ATOM     16 CL   UNL     1      -6.457  -5.516   0.615  0.00  0.00    -0.083 Cl
ATOM     17  H   UNL     1      -2.088  -2.419   2.076  0.00  0.00    +0.151 HD
ENDROOT
BRANCH   5  18
ATOM     18  C   UNL     1       0.330  -4.049   0.805  0.00  0.00    +0.248 C 
ATOM     19  O   UNL     1       0.277  -4.945  -0.019  0.00  0.00    -0.270 OA
ATOM     20  N   UNL     1       0.518  -4.342   2.107  0.00  0.00    -0.325 N 
ATOM     21  H   UNL     1       0.484  -3.637   2.773  0.00  0.00    +0.145 HD
ATOM     22  H   UNL     1       0.687  -5.257   2.379  0.00  0.00    +0.145 HD
ENDBRANCH   5  18
BRANCH   6  23
ATOM     23  N   UNL     1       2.533  -2.454   0.550  0.00  0.00    -0.329 N 
ATOM     24  H   UNL     1       2.624  -3.399   0.747  0.00  0.00    +0.145 HD
ATOM     25  H   UNL     1       3.316  -1.881   0.548  0.00  0.00    +0.145 HD
ENDBRANCH   6  23
TORSDOF 2
