REMARK  Name = ZINC58836170
REMARK  5 active torsions:
REMARK  status: ('A' for Active; 'I' for Inactive)
REMARK    1  A    between atoms: C_5  and  C_7
REMARK    2  A    between atoms: N_8  and  N_9
REMARK    3  A    between atoms: C_13  and  C_18
REMARK    4  A    between atoms: N_20  and  C_21
REMARK    5  A    between atoms: C_24  and  C_27
REMARK                            x       y       z     vdW  Elec       q    Type
REMARK                         _______ _______ _______ _____ _____    ______ ____
ROOT
ATOM      1  N   UNL     1       2.067  -4.210  -0.145  0.00  0.00    -0.137 N 
ATOM      2  C   UNL     1       3.224  -4.853  -0.204  0.00  0.00    +0.243 C 
ATOM      3  O   UNL     1       4.215  -4.154  -0.198  0.00  0.00    -0.273 OA
ATOM      4  C   UNL     1       3.469  -6.321  -0.277  0.00  0.00    +0.122 C 
ATOM      5  C   UNL     1       2.350  -7.134   0.377  0.00  0.00    +0.149 C 
ATOM      6  S   UNL     1       0.764  -6.574  -0.325  0.00  0.00    -0.076 S 
ATOM      7  C   UNL     1       0.836  -4.833   0.006  0.00  0.00    +0.177 C 
ATOM      8  N   UNL     1      -0.222  -4.165   0.372  0.00  0.00    -0.278 NA
ATOM      9  H   UNL     1      -1.072  -4.621   0.471  0.00  0.00    +0.189 HD
ENDROOT
BRANCH   5  10
ATOM     10  C   UNL     1       2.548  -8.599   0.086  0.00  0.00    +0.231 C 
ATOM     11  O   UNL     1       3.089  -8.945  -0.943  0.00  0.00    -0.274 OA
ATOM     12  N   UNL     1       2.125  -9.525   0.970  0.00  0.00    -0.285 N 
ATOM     13  H   UNL     1       1.633  -9.253   1.759  0.00  0.00    +0.155 HD
BRANCH  12  14
ATOM     14  C   UNL     1       2.396 -10.874   0.748  0.00  0.00    +0.033 A 
ATOM     15  C   UNL     1       3.573 -11.250   0.108  0.00  0.00    +0.024 A 
ATOM     16  C   UNL     1       3.843 -12.576  -0.112  0.00  0.00    +0.017 A 
ATOM     17  C   UNL     1       2.933 -13.552   0.309  0.00  0.00    +0.063 A 
ATOM     18  C   UNL     1       1.751 -13.171   0.953  0.00  0.00    +0.017 A 
ATOM     19  C   UNL     1       1.491 -11.842   1.173  0.00  0.00    +0.024 A 
BRANCH  17  20
ATOM     20  C   UNL     1       3.219 -14.978   0.075  0.00  0.00    +0.387 C 
ATOM     21  O   UNL     1       4.253 -15.310  -0.488  0.00  0.00    -0.241 OA
ATOM     22  O   UNL     1       2.422 -15.830   0.444  0.00  0.00    -0.241 OA
ENDBRANCH  17  20
ENDBRANCH  12  14
ENDBRANCH   5  10
BRANCH   1  24
ATOM     23  C   UNL     1       1.504  -2.217  -1.230  0.00  0.00    +0.140 C 
ATOM     24  N   UNL     1       2.088  -2.812  -0.236  0.00  0.00    -0.178 NA
BRANCH  23  29
ATOM     25  C   UNL     1       0.731   1.276  -2.364  0.00  0.00    +0.001 A 
ATOM     26  C   UNL     1       1.282   2.021  -1.335  0.00  0.00    +0.001 A 
ATOM     27  C   UNL     1       1.905   1.391  -0.273  0.00  0.00    +0.020 A 
ATOM     28  C   UNL     1       1.981   0.013  -0.231  0.00  0.00    +0.050 A 
ATOM     29  C   UNL     1       1.427  -0.745  -1.267  0.00  0.00    +0.013 A 
ATOM     30  C   UNL     1       0.799  -0.101  -2.336  0.00  0.00    +0.011 A 
ATOM     31 CL   UNL     1       2.764  -0.776   1.102  0.00  0.00    -0.083 Cl
ENDBRANCH  23  29
ENDBRANCH   1  24
TORSDOF 5
