REMARK  Name = ZINC12050743
REMARK  6 active torsions:
REMARK  status: ('A' for Active; 'I' for Inactive)
REMARK    1  A    between atoms: C_1  and  C_2
REMARK    2  A    between atoms: C_10  and  C_11
REMARK    3  A    between atoms: C_16  and  C_19
REMARK    4  A    between atoms: C_22  and  C_24
REMARK    5  A    between atoms: C_24  and  N_25
REMARK    6  A    between atoms: C_26  and  C_28
REMARK                            x       y       z     vdW  Elec       q    Type
REMARK                         _______ _______ _______ _____ _____    ______ ____
ROOT
ATOM      1  C   UNL     1      -1.229   2.174   0.020  0.00  0.00    +0.285 C 
ATOM      2  O   UNL     1      -1.137   3.388   0.026  0.00  0.00    -0.266 OA
ATOM      3  N   UNL     1      -2.444   1.591   0.023  0.00  0.00    -0.258 N 
ATOM      4  C   UNL     1      -3.590   2.374   0.033  0.00  0.00    +0.165 A 
ATOM      5  N   UNL     1      -4.856   2.001   0.038  0.00  0.00    -0.221 NA
ATOM      6  C   UNL     1      -5.839   2.898   0.047  0.00  0.00    +0.115 A 
ATOM      7  C   UNL     1      -5.527   4.231   0.052  0.00  0.00    +0.080 A 
ATOM      8  S   UNL     1      -3.740   4.155   0.051  0.00  0.00    -0.060 S 
ATOM      9  H   UNL     1      -2.518   0.624   0.019  0.00  0.00    +0.157 HD
ENDROOT
BRANCH   1  19
ATOM     10  C   UNL     1       1.683   3.266   0.004  0.00  0.00    +0.048 C 
ATOM     11  C   UNL     1       1.256   1.821  -0.000  0.00  0.00    +0.008 A 
ATOM     12  C   UNL     1       2.128   0.647  -0.015  0.00  0.00    +0.025 A 
ATOM     13  C   UNL     1       3.513   0.462  -0.029  0.00  0.00    +0.012 A 
ATOM     14  C   UNL     1       4.027  -0.803  -0.041  0.00  0.00    +0.002 A 
ATOM     15  C   UNL     1       3.184  -1.906  -0.039  0.00  0.00    +0.024 A 
ATOM     16  C   UNL     1       1.815  -1.746  -0.025  0.00  0.00    +0.084 A 
ATOM     17  C   UNL     1       1.268  -0.467  -0.013  0.00  0.00    +0.154 A 
ATOM     18  O   UNL     1       0.002  -0.004   0.002  0.00  0.00    -0.448 OA
ATOM     19  C   UNL     1      -0.016   1.345   0.009  0.00  0.00    +0.194 A 
ATOM     20 CL   UNL     1       0.776  -3.137  -0.023  0.00  0.00    -0.080 Cl
ENDBRANCH   1  19
BRANCH   6  21
ATOM     21  C   UNL     1      -7.250   2.461   0.052  0.00  0.00    +0.154 A 
ATOM     22  C   UNL     1      -7.687   1.173   0.042  0.00  0.00    +0.052 A 
ATOM     23  C   UNL     1      -9.096   1.221   0.055  0.00  0.00    +0.047 A 
ATOM     24  C   UNL     1      -9.446   2.522   0.062  0.00  0.00    +0.123 A 
ATOM     25  O   UNL     1      -8.328   3.268   0.060  0.00  0.00    -0.457 OA
BRANCH  24  26
ATOM     26  C   UNL     1     -10.857   3.052   0.072  0.00  0.00    +0.178 C 
BRANCH  26  27
ATOM     27  N   UNL     1     -11.306   3.217   1.456  0.00  0.00    -0.308 N 
ATOM     28  C   UNL     1     -12.546   3.682   1.711  0.00  0.00    +0.210 C 
ATOM     29  O   UNL     1     -13.288   3.964   0.794  0.00  0.00    -0.276 OA
ATOM     30  C   UNL     1     -13.008   3.853   3.135  0.00  0.00    +0.109 C 
ATOM     31  H   UNL     1     -10.713   2.992   2.189  0.00  0.00    +0.149 HD
ENDBRANCH  26  27
ENDBRANCH  24  26
ENDBRANCH   6  21
TORSDOF 4
