REMARK  Name = ZINC38783666
REMARK  3 active torsions:
REMARK  status: ('A' for Active; 'I' for Inactive)
REMARK    1  A    between atoms: C_4  and  C_7
REMARK    2  A    between atoms: N_21  and  C_22
REMARK    3  A    between atoms: N_27  and  C_30
REMARK                            x       y       z     vdW  Elec       q    Type
REMARK                         _______ _______ _______ _____ _____    ______ ____
ROOT
ATOM      1  C   UNL     1       3.764  -0.686  -0.087  0.00  0.00    +0.011 C 
ATOM      2  C   UNL     1       4.185  -1.151  -1.460  0.00  0.00    +0.011 A 
ATOM      3  H   UNL     1       3.379   0.250  -2.775  0.00  0.00    +0.166 HD
ATOM      4  C   UNL     1       4.931  -2.262  -1.663  0.00  0.00    -0.022 A 
ATOM      5  C   UNL     1       5.131  -2.389  -3.089  0.00  0.00    +0.003 A 
ATOM      6  C   UNL     1       5.809  -3.325  -3.875  0.00  0.00    +0.010 A 
ATOM      7  C   UNL     1       5.791  -3.126  -5.234  0.00  0.00    +0.001 A 
ATOM      8  C   UNL     1       5.135  -2.051  -5.811  0.00  0.00    +0.002 A 
ATOM      9  C   UNL     1       4.457  -1.109  -5.058  0.00  0.00    +0.026 A 
ATOM     10  C   UNL     1       4.457  -1.285  -3.676  0.00  0.00    +0.047 A 
ATOM     11  N   UNL     1       3.899  -0.561  -2.661  0.00  0.00    -0.359 N 
ATOM     12  C   UNL     1       5.422  -3.143  -0.543  0.00  0.00    +0.019 C 
ATOM     13  C   UNL     1       5.269  -2.362   0.770  0.00  0.00    -0.072 C 
ATOM     14  N   UNL     1       3.913  -1.803   0.858  0.00  0.00    +0.396 N 
ATOM     15  H   UNL     1       3.242  -2.523   0.634  0.00  0.00    -0.079 HD
ENDROOT
BRANCH  14  16
ATOM     16  C   UNL     1       3.668  -1.322   2.224  0.00  0.00    +0.030 C 
ATOM     17  C   UNL     1       4.778  -0.344   2.662  0.00  0.00    +0.091 C 
ATOM     18  C   UNL     1       5.404  -1.030   3.857  0.00  0.00    +0.225 C 
ATOM     19  O   UNL     1       6.327  -0.596   4.512  0.00  0.00    -0.275 OA
ATOM     20  N   UNL     1       4.776  -2.192   4.076  0.00  0.00    -0.212 N 
ATOM     21  C   UNL     1       3.779  -2.458   3.217  0.00  0.00    +0.213 C 
ATOM     22  O   UNL     1       3.080  -3.448   3.232  0.00  0.00    -0.277 OA
BRANCH  20  23
ATOM     23  C   UNL     1       5.129  -3.060   5.119  0.00  0.00    +0.044 A 
ATOM     24  C   UNL     1       6.390  -3.641   5.144  0.00  0.00    +0.024 A 
ATOM     25  C   UNL     1       6.734  -4.495   6.173  0.00  0.00    +0.002 A 
ATOM     26  C   UNL     1       5.825  -4.773   7.177  0.00  0.00    +0.000 A 
ATOM     27  C   UNL     1       4.569  -4.196   7.155  0.00  0.00    +0.002 A 
ATOM     28  C   UNL     1       4.220  -3.336   6.131  0.00  0.00    +0.024 A 
ENDBRANCH  20  23
ENDBRANCH  14  16
BRANCH   1  32
ATOM     29  C   UNL     1      -0.318   0.571  -0.191  0.00  0.00    +0.000 A 
ATOM     30  C   UNL     1       0.690   1.506  -0.046  0.00  0.00    +0.000 A 
ATOM     31  C   UNL     1       2.011   1.099  -0.012  0.00  0.00    +0.002 A 
ATOM     32  C   UNL     1       2.324  -0.243  -0.123  0.00  0.00    -0.055 A 
ATOM     33  C   UNL     1       1.316  -1.178  -0.268  0.00  0.00    +0.002 A 
ATOM     34  C   UNL     1      -0.004  -0.771  -0.303  0.00  0.00    +0.000 A 
ENDBRANCH   1  32
TORSDOF 3
