REMARK  Name = ZINC24907925
REMARK  4 active torsions:
REMARK  status: ('A' for Active; 'I' for Inactive)
REMARK    1  A    between atoms: C_4  and  O_7
REMARK    2  A    between atoms: O_7  and  C_8
REMARK    3  A    between atoms: C_13  and  N_14
REMARK    4  A    between atoms: C_30  and  C_36
REMARK                            x       y       z     vdW  Elec       q    Type
REMARK                         _______ _______ _______ _____ _____    ______ ____
ROOT
ATOM      1  N   UNL     1      -1.979   2.223  -0.443  0.00  0.00    -0.189 N 
ATOM      2  C   UNL     1      -0.858   1.665  -1.013  0.00  0.00    +0.250 C 
ATOM      3  O   UNL     1      -0.555   1.613  -2.186  0.00  0.00    -0.273 OA
ATOM      4  C   UNL     1      -0.074   1.121   0.159  0.00  0.00    +0.182 C 
ATOM      5  C   UNL     1       1.337   1.718   0.203  0.00  0.00    +0.138 C 
ATOM      6  N   UNL     1       1.919   1.446   1.526  0.00  0.00    -0.311 N 
ATOM      7  C   UNL     1       1.201   2.130   2.607  0.00  0.00    +0.125 C 
ATOM      8  C   UNL     1      -0.238   1.596   2.695  0.00  0.00    +0.129 C 
ATOM      9  N   UNL     1      -0.796   1.645   1.340  0.00  0.00    -0.270 N 
ATOM     10  C   UNL     1      -1.942   2.162   0.897  0.00  0.00    +0.316 C 
ATOM     11  O   UNL     1      -2.845   2.534   1.621  0.00  0.00    -0.252 OA
ATOM     12  C   UNL     1       3.266   1.761   1.548  0.00  0.00    +0.131 A 
ATOM     13  C   UNL     1       4.216   0.791   1.937  0.00  0.00    +0.040 A 
ATOM     14  C   UNL     1       3.844  -0.509   2.311  0.00  0.00    +0.015 A 
ATOM     15  C   UNL     1       4.834  -1.382   2.672  0.00  0.00    +0.033 A 
ATOM     16  C   UNL     1       6.163  -0.969   2.662  0.00  0.00    +0.144 A 
ATOM     17  N   UNL     1       6.506   0.249   2.312  0.00  0.00    -0.243 NA
ATOM     18  C   UNL     1       5.588   1.146   1.949  0.00  0.00    +0.076 A 
ATOM     19  C   UNL     1       5.935   2.457   1.570  0.00  0.00    +0.048 A 
ATOM     20  C   UNL     1       4.949   3.322   1.210  0.00  0.00    +0.115 A 
ATOM     21  N   UNL     1       3.671   2.969   1.201  0.00  0.00    -0.240 NA
ENDROOT
BRANCH   1  27
ATOM     22  C   UNL     1      -4.107   2.011  -1.581  0.00  0.00    +0.150 A 
ATOM     23  C   UNL     1      -5.145   2.584  -2.301  0.00  0.00    +0.048 A 
ATOM     24  C   UNL     1      -5.101   3.926  -2.627  0.00  0.00    +0.004 A 
ATOM     25  C   UNL     1      -4.028   4.703  -2.232  0.00  0.00    +0.002 A 
ATOM     26  C   UNL     1      -2.993   4.141  -1.509  0.00  0.00    +0.028 A 
ATOM     27  C   UNL     1      -3.029   2.795  -1.177  0.00  0.00    +0.088 A 
BRANCH  22  28
ATOM     28  O   UNL     1      -4.146   0.690  -1.264  0.00  0.00    -0.454 OA
BRANCH  28  32
ATOM     29  C   UNL     1      -5.785  -0.384   2.366  0.00  0.00    +0.000 A 
ATOM     30  C   UNL     1      -5.191  -1.343   1.566  0.00  0.00    +0.004 A 
ATOM     31  C   UNL     1      -4.642  -0.986   0.350  0.00  0.00    +0.046 A 
ATOM     32  C   UNL     1      -4.686   0.336  -0.069  0.00  0.00    +0.129 A 
ATOM     33  C   UNL     1      -5.279   1.297   0.738  0.00  0.00    +0.046 A 
ATOM     34  C   UNL     1      -5.831   0.934   1.951  0.00  0.00    +0.004 A 
ENDBRANCH  28  32
ENDBRANCH  22  28
ENDBRANCH   1  27
BRANCH  16  35
ATOM     35  C   UNL     1       7.238  -1.946   3.064  0.00  0.00    +0.434 C 
ATOM     36  F   UNL     1       8.475  -1.294   3.092  0.00  0.00    -0.164 F 
ATOM     37  F   UNL     1       6.952  -2.457   4.335  0.00  0.00    -0.164 F 
ATOM     38  F   UNL     1       7.284  -2.995   2.139  0.00  0.00    -0.164 F 
ENDBRANCH  16  35
TORSDOF 4
