REMARK  Name = ZINC12309394
REMARK  7 active torsions:
REMARK  status: ('A' for Active; 'I' for Inactive)
REMARK    1  A    between atoms: C_1  and  C_2
REMARK    2  A    between atoms: C_8  and  N_9
REMARK    3  A    between atoms: N_9  and  O_10
REMARK    4  A    between atoms: O_10  and  C_11
REMARK    5  A    between atoms: C_11  and  C_12
REMARK    6  A    between atoms: N_21  and  C_26
REMARK    7  A    between atoms: N_24  and  C_25
REMARK                            x       y       z     vdW  Elec       q    Type
REMARK                         _______ _______ _______ _____ _____    ______ ____
ROOT
ATOM      1  C   UNL     1       5.632   7.789  -0.526  0.00  0.00    +0.047 C 
ATOM      2  C   UNL     1       4.258   8.337  -0.237  0.00  0.00    -0.008 A 
ATOM      3  C   UNL     1       4.078   9.645   0.004  0.00  0.00    +0.089 A 
ATOM      4  N   UNL     1       2.841  10.166   0.275  0.00  0.00    -0.347 N 
ATOM      5  H   UNL     1       2.750  11.180   0.693  0.00  0.00    +0.167 HD
ATOM      6  C   UNL     1       1.697   9.468   0.043  0.00  0.00    +0.129 A 
ATOM      7  C   UNL     1       1.758   8.099  -0.208  0.00  0.00    +0.106 A 
ATOM      8  C   UNL     1       3.080   7.446  -0.213  0.00  0.00    +0.081 A 
ATOM      9  C   UNL     1       0.563   7.380  -0.436  0.00  0.00    +0.268 A 
ATOM     10  O   UNL     1       0.593   6.181  -0.650  0.00  0.00    -0.267 OA
ATOM     11  N   UNL     1      -0.611   8.047  -0.416  0.00  0.00    -0.263 N 
ATOM     12  C   UNL     1      -0.647   9.370  -0.180  0.00  0.00    +0.333 A 
ATOM     13  O   UNL     1      -1.721   9.939  -0.172  0.00  0.00    -0.246 OA
ATOM     14  N   UNL     1       0.471  10.084   0.046  0.00  0.00    -0.282 N 
ATOM     15  C   UNL     1       0.379  11.524   0.298  0.00  0.00    +0.155 C 
ATOM     16  C   UNL     1      -1.861   7.320  -0.655  0.00  0.00    +0.157 C 
ENDROOT
BRANCH   8  17
ATOM     17  N   UNL     1       3.204   6.138  -0.203  0.00  0.00    -0.264 N 
ATOM     18  H   UNL     1       4.122   5.670  -0.589  0.00  0.00    +0.194 HD
BRANCH  17  19
ATOM     19  O   UNL     1       2.157   5.332   0.305  0.00  0.00    -0.269 OA
BRANCH  19  20
ATOM     20  C   UNL     1       2.470   3.939   0.358  0.00  0.00    +0.230 C 
BRANCH  20  21
ATOM     21  C   UNL     1       1.257   3.169   0.815  0.00  0.00    +0.016 A 
ATOM     22  C   UNL     1       0.121   3.844   1.219  0.00  0.00    +0.009 A 
ATOM     23  C   UNL     1      -0.991   3.138   1.639  0.00  0.00    +0.001 A 
ATOM     24  C   UNL     1      -0.970   1.756   1.647  0.00  0.00    +0.003 A 
ATOM     25  C   UNL     1       0.166   1.079   1.249  0.00  0.00    +0.039 A 
ATOM     26  C   UNL     1       1.281   1.785   0.829  0.00  0.00    +0.129 A 
ATOM     27  F   UNL     1       2.391   1.123   0.433  0.00  0.00    -0.205 F 
ENDBRANCH  20  21
ENDBRANCH  19  20
ENDBRANCH  17  19
ENDBRANCH   8  17
TORSDOF 4
