REMARK  Name = ZINC63526539
REMARK  7 active torsions:
REMARK  status: ('A' for Active; 'I' for Inactive)
REMARK    1  A    between atoms: C_1  and  O_2
REMARK    2  A    between atoms: O_2  and  C_3
REMARK    3  A    between atoms: C_9  and  C_12
REMARK    4  A    between atoms: C_12  and  C_13
REMARK    5  A    between atoms: C_13  and  N_14
REMARK    6  A    between atoms: N_14  and  C_15
REMARK    7  A    between atoms: N_20  and  C_23
REMARK                            x       y       z     vdW  Elec       q    Type
REMARK                         _______ _______ _______ _____ _____    ______ ____
ROOT
ATOM      1  N   UNL     1      -0.711  -6.946  -1.169  0.00  0.00    +0.387 N 
ATOM      2  H   UNL     1      -0.069  -7.710  -1.321  0.00  0.00    -0.085 HD
ATOM      3  H   UNL     1      -0.890  -6.850  -0.181  0.00  0.00    -0.085 HD
ENDROOT
BRANCH   1   4
ATOM      4  C   UNL     1      -1.972  -7.220  -1.871  0.00  0.00    +0.026 C 
ATOM      5  C   UNL     1      -2.575  -8.559  -1.401  0.00  0.00    +0.090 C 
ATOM      6  C   UNL     1      -3.906  -8.158  -0.804  0.00  0.00    +0.225 C 
ATOM      7  O   UNL     1      -4.712  -8.918  -0.310  0.00  0.00    -0.275 OA
ATOM      8  N   UNL     1      -4.053  -6.831  -0.906  0.00  0.00    -0.212 N 
ATOM      9  C   UNL     1      -3.024  -6.201  -1.493  0.00  0.00    +0.213 C 
ATOM     10  O   UNL     1      -2.947  -5.007  -1.688  0.00  0.00    -0.277 OA
BRANCH   8  11
ATOM     11  C   UNL     1      -5.190  -6.155  -0.439  0.00  0.00    +0.048 A 
ATOM     12  C   UNL     1      -6.058  -5.551  -1.339  0.00  0.00    +0.028 A 
ATOM     13  C   UNL     1      -7.176  -4.883  -0.880  0.00  0.00    +0.051 A 
ATOM     14  C   UNL     1      -7.438  -4.815   0.481  0.00  0.00    +0.162 A 
ATOM     15  C   UNL     1      -6.573  -5.421   1.384  0.00  0.00    +0.164 A 
ATOM     16  C   UNL     1      -5.452  -6.094   0.922  0.00  0.00    +0.073 A 
ATOM     17  O   UNL     1      -6.816  -5.372   2.723  0.00  0.00    -0.485 OA
ATOM     18  C   UNL     1      -7.746  -4.380   3.171  0.00  0.00    +0.270 C 
ATOM     19  C   UNL     1      -8.975  -4.422   2.253  0.00  0.00    +0.270 C 
ATOM     20  O   UNL     1      -8.543  -4.149   0.915  0.00  0.00    -0.485 OA
ENDBRANCH   8  11
ENDBRANCH   1   4
BRANCH   1  21
ATOM     21  C   UNL     1      -0.124  -5.702  -1.683  0.00  0.00    -0.077 C 
BRANCH  21  22
ATOM     22  C   UNL     1       1.189  -5.417  -0.952  0.00  0.00    +0.014 C 
BRANCH  22  29
ATOM     23  C   UNL     1       0.970  -1.062   0.489  0.00  0.00    +0.121 A 
ATOM     24  C   UNL     1       1.691  -0.149  -0.301  0.00  0.00    +0.047 A 
ATOM     25  C   UNL     1       2.389  -0.526  -1.393  0.00  0.00    +0.029 A 
ATOM     26  C   UNL     1       2.411  -1.938  -1.791  0.00  0.00    +0.043 A 
ATOM     27  N   UNL     1       2.995  -2.558  -2.785  0.00  0.00    -0.380 N 
ATOM     28  C   UNL     1       2.674  -3.987  -2.698  0.00  0.00    +0.144 C 
ATOM     29  C   UNL     1       1.792  -4.140  -1.480  0.00  0.00    -0.043 C 
ATOM     30  C   UNL     1       1.653  -2.900  -0.959  0.00  0.00    +0.002 A 
ATOM     31  C   UNL     1       0.931  -2.387   0.211  0.00  0.00    +0.055 A 
ATOM     32  H   UNL     1       3.547  -2.142  -3.466  0.00  0.00    +0.160 HD
BRANCH  23  34
ATOM     33  C   UNL     1       0.361   0.805   1.831  0.00  0.00    +0.277 C 
ATOM     34  O   UNL     1       0.293  -0.599   1.574  0.00  0.00    -0.495 OA
ENDBRANCH  23  34
ENDBRANCH  22  29
ENDBRANCH  21  22
ENDBRANCH   1  21
TORSDOF 6
