REMARK  Name = ZINC16989797
REMARK  25 active torsions:
REMARK  status: ('A' for Active; 'I' for Inactive)
REMARK    1  A    between atoms: C_1  and  C_2
REMARK    2  A    between atoms: C_3  and  C_4
REMARK    3  A    between atoms: C_4  and  C_5
REMARK    4  A    between atoms: C_4  and  C_22
REMARK    5  A    between atoms: C_4  and  C_32
REMARK    6  A    between atoms: C_5  and  C_6
REMARK    7  A    between atoms: C_5  and  C_16
REMARK    8  A    between atoms: C_5  and  C_19
REMARK    9  A    between atoms: C_6  and  O_8
REMARK   10  A    between atoms: O_8  and  C_9
REMARK   11  A    between atoms: C_9  and  C_11
REMARK   12  A    between atoms: C_9  and  C_15
REMARK   13  A    between atoms: C_11  and  N_12
REMARK   14  A    between atoms: N_12  and  C_13
REMARK   15  A    between atoms: N_12  and  C_14
REMARK   16  A    between atoms: C_17  and  C_18
REMARK   17  A    between atoms: C_20  and  C_21
REMARK   18  A    between atoms: C_22  and  O_24
REMARK   19  A    between atoms: O_24  and  C_25
REMARK   20  A    between atoms: C_25  and  C_27
REMARK   21  A    between atoms: C_25  and  C_31
REMARK   22  A    between atoms: C_27  and  N_28
REMARK   23  A    between atoms: N_28  and  C_29
REMARK   24  A    between atoms: N_28  and  C_30
REMARK   25  A    between atoms: C_33  and  C_34
REMARK                            x       y       z     vdW  Elec       q    Type
REMARK                         _______ _______ _______ _____ _____    ______ ____
ROOT
ATOM      1  C   UNL     1       0.608  -2.163   0.967  0.00  0.00    +0.126 C 
ENDROOT
BRANCH   1   4
ATOM      2  C   UNL     1      -0.018   1.503   0.010  0.00  0.00    +0.035 C 
ATOM      3  C   UNL     1       0.002  -0.004   0.002  0.00  0.00    -0.033 C 
ATOM      4  C   UNL     1       0.588  -0.657   0.976  0.00  0.00    -0.008 C 
ENDBRANCH   1   4
BRANCH   1   5
ATOM      5  C   UNL     1      -0.084  -2.682   2.201  0.00  0.00    -0.008 C 
ATOM      6  C   UNL     1      -1.140  -3.449   2.087  0.00  0.00    -0.033 C 
ATOM      7  C   UNL     1      -1.831  -3.967   3.322  0.00  0.00    +0.035 C 
ENDBRANCH   1   5
BRANCH   1   8
ATOM      8  C   UNL     1       2.035  -2.646   0.951  0.00  0.00    +0.323 C 
ATOM      9  O   UNL     1       2.431  -3.331   0.037  0.00  0.00    -0.249 OA
BRANCH   8  10
ATOM     10  O   UNL     1       2.867  -2.316   1.952  0.00  0.00    -0.463 OA
BRANCH  10  11
ATOM     11  C   UNL     1       4.206  -2.809   1.871  0.00  0.00    +0.157 C 
ATOM     12  C   UNL     1       4.290  -4.172   2.561  0.00  0.00    +0.050 C 
BRANCH  11  13
ATOM     13  C   UNL     1       5.153  -1.827   2.564  0.00  0.00    -0.035 C 
BRANCH  13  14
ATOM     14  N   UNL     1       5.072  -0.518   1.902  0.00  0.00    +0.378 N 
ATOM     15  C   UNL     1       5.889   0.455   2.639  0.00  0.00    -0.096 C 
ATOM     16  C   UNL     1       5.572  -0.634   0.525  0.00  0.00    -0.096 C 
ATOM     17  H   UNL     1       4.112  -0.208   1.886  0.00  0.00    -0.082 HD
ENDBRANCH  13  14
ENDBRANCH  11  13
ENDBRANCH  10  11
ENDBRANCH   8  10
ENDBRANCH   1   8
BRANCH   1  18
ATOM     18  C   UNL     1      -0.118  -2.676  -0.278  0.00  0.00    +0.126 C 
BRANCH  18  19
ATOM     19  C   UNL     1       0.574  -2.158  -1.512  0.00  0.00    -0.008 C 
ATOM     20  C   UNL     1       1.629  -1.391  -1.398  0.00  0.00    -0.033 C 
ATOM     21  C   UNL     1       2.321  -0.872  -2.632  0.00  0.00    +0.035 C 
ENDBRANCH  18  19
BRANCH  18  22
ATOM     22  C   UNL     1      -0.098  -4.183  -0.286  0.00  0.00    -0.008 C 
ATOM     23  C   UNL     1       0.488  -4.836   0.687  0.00  0.00    -0.033 C 
ATOM     24  C   UNL     1       0.508  -6.343   0.679  0.00  0.00    +0.035 C 
ENDBRANCH  18  22
BRANCH  18  25
ATOM     25  C   UNL     1      -1.546  -2.193  -0.262  0.00  0.00    +0.323 C 
ATOM     26  O   UNL     1      -1.942  -1.509   0.652  0.00  0.00    -0.249 OA
BRANCH  25  27
ATOM     27  O   UNL     1      -2.377  -2.524  -1.262  0.00  0.00    -0.463 OA
BRANCH  27  28
ATOM     28  C   UNL     1      -3.716  -2.031  -1.182  0.00  0.00    +0.157 C 
ATOM     29  C   UNL     1      -4.588  -3.043  -0.435  0.00  0.00    +0.050 C 
BRANCH  28  30
ATOM     30  C   UNL     1      -4.270  -1.826  -2.594  0.00  0.00    -0.035 C 
BRANCH  30  31
ATOM     31  N   UNL     1      -3.433  -0.855  -3.311  0.00  0.00    +0.378 N 
ATOM     32  C   UNL     1      -3.892  -0.747  -4.703  0.00  0.00    -0.096 C 
ATOM     33  C   UNL     1      -3.537   0.457  -2.659  0.00  0.00    -0.096 C 
ATOM     34  H   UNL     1      -2.472  -1.163  -3.296  0.00  0.00    -0.082 HD
ENDBRANCH  30  31
ENDBRANCH  28  30
ENDBRANCH  27  28
ENDBRANCH  25  27
ENDBRANCH  18  25
ENDBRANCH   1  18
TORSDOF 15
