REMARK  Name = ZINC15999204
REMARK  5 active torsions:
REMARK  status: ('A' for Active; 'I' for Inactive)
REMARK    1  A    between atoms: C_1  and  C_2
REMARK    2  A    between atoms: C_2  and  C_4
REMARK    3  A    between atoms: C_6  and  C_30
REMARK    4  A    between atoms: C_30  and  C_32
REMARK    5  A    between atoms: C_36  and  N_38
REMARK                            x       y       z     vdW  Elec       q    Type
REMARK                         _______ _______ _______ _____ _____    ______ ____
ROOT
ATOM      1  C   UNL     1      -0.178   5.019   1.165  0.00  0.00    +0.152 C 
ATOM      2  C   UNL     1      -1.714   5.235   1.276  0.00  0.00    +0.109 C 
ATOM      3  C   UNL     1      -2.330   4.027   0.540  0.00  0.00    +0.108 C 
ATOM      4  C   UNL     1      -3.269   4.458  -0.535  0.00  0.00    -0.008 A 
ATOM      5  C   UNL     1      -3.086   5.226  -1.665  0.00  0.00    +0.006 A 
ATOM      6  C   UNL     1      -4.198   5.440  -2.472  0.00  0.00    +0.000 A 
ATOM      7  C   UNL     1      -5.430   4.906  -2.154  0.00  0.00    +0.002 A 
ATOM      8  C   UNL     1      -5.623   4.132  -1.020  0.00  0.00    +0.023 A 
ATOM      9  C   UNL     1      -4.515   3.910  -0.201  0.00  0.00    +0.038 A 
ATOM     10  N   UNL     1      -4.423   3.187   0.976  0.00  0.00    -0.284 N 
ATOM     11  C   UNL     1      -3.171   3.203   1.483  0.00  0.00    +0.231 C 
ATOM     12  O   UNL     1      -2.795   2.659   2.499  0.00  0.00    -0.274 OA
ATOM     13  C   UNL     1      -1.141   3.242   0.008  0.00  0.00    +0.117 C 
ATOM     14  N   UNL     1      -0.050   3.570   0.968  0.00  0.00    -0.311 N 
ATOM     15  C   UNL     1       1.140   3.069   0.494  0.00  0.00    +0.038 A 
ATOM     16  C   UNL     1       2.328   3.772   0.516  0.00  0.00    +0.025 A 
ATOM     17  C   UNL     1       3.479   3.195   0.009  0.00  0.00    +0.022 A 
ATOM     18  C   UNL     1       3.450   1.916  -0.521  0.00  0.00    +0.042 A 
ATOM     19  C   UNL     1       2.270   1.196  -0.548  0.00  0.00    +0.029 A 
ATOM     20  C   UNL     1       1.108   1.762  -0.040  0.00  0.00    -0.003 A 
ATOM     21  C   UNL     1      -0.179   1.027  -0.041  0.00  0.00    +0.007 C 
ATOM     22  C   UNL     1      -1.311   1.754  -0.024  0.00  0.00    -0.003 C 
ATOM     23 CL   UNL     1       4.904   1.211  -1.156  0.00  0.00    -0.084 Cl
ATOM     24  H   UNL     1      -5.169   2.723   1.387  0.00  0.00    +0.155 HD
ENDROOT
BRANCH   1  26
ATOM     25  C   UNL     1       0.744   7.223   0.116  0.00  0.00    +0.088 C 
ATOM     26  C   UNL     1       0.380   5.767  -0.018  0.00  0.00    +0.151 C 
ATOM     27  O   UNL     1       0.534   5.200  -1.073  0.00  0.00    -0.296 OA
ENDBRANCH   1  26
BRANCH   2  28
ATOM     28  C   UNL     1      -2.144   5.245   2.720  0.00  0.00    +0.170 C 
ATOM     29  O   UNL     1      -1.457   4.705   3.561  0.00  0.00    -0.292 OA
BRANCH  28  30
ATOM     30  C   UNL     1      -3.397   5.910   3.111  0.00  0.00    +0.020 A 
ATOM     31  C   UNL     1      -4.192   6.535   2.144  0.00  0.00    +0.011 A 
ATOM     32  C   UNL     1      -5.365   7.155   2.518  0.00  0.00    +0.003 A 
ATOM     33  C   UNL     1      -5.757   7.162   3.845  0.00  0.00    +0.033 A 
ATOM     34  C   UNL     1      -4.975   6.547   4.808  0.00  0.00    +0.127 A 
ATOM     35  C   UNL     1      -3.802   5.917   4.449  0.00  0.00    +0.044 A 
BRANCH  34  36
ATOM     36  N   UNL     1      -5.403   6.560   6.224  0.00  0.00    +0.056 N 
ATOM     37  O   UNL     1      -6.441   7.112   6.542  0.00  0.00    -0.126 OA
ATOM     38  O   UNL     1      -4.716   6.019   7.073  0.00  0.00    -0.126 OA
ENDBRANCH  34  36
ENDBRANCH  28  30
ENDBRANCH   2  28
TORSDOF 4
