REMARK  Name = ZINC21017806
REMARK  3 active torsions:
REMARK  status: ('A' for Active; 'I' for Inactive)
REMARK    1  A    between atoms: C_1  and  C_2
REMARK    2  A    between atoms: C_5  and  N_9
REMARK    3  A    between atoms: N_9  and  C_10
REMARK                            x       y       z     vdW  Elec       q    Type
REMARK                         _______ _______ _______ _____ _____    ______ ____
ROOT
ATOM      1  C   UNL     1       0.063  -4.893  -1.296  0.00  0.00    +0.191 C 
ATOM      2  C   UNL     1       0.638  -6.279  -1.114  0.00  0.00    +0.017 A 
ATOM      3  C   UNL     1      -0.372  -7.170  -1.456  0.00  0.00    +0.040 A 
ATOM      4  C   UNL     1      -0.119  -8.538  -1.382  0.00  0.00    +0.024 A 
ATOM      5  C   UNL     1       1.118  -8.993  -0.974  0.00  0.00    +0.003 A 
ATOM      6  C   UNL     1       2.116  -8.097  -0.636  0.00  0.00    +0.016 A 
ATOM      7  C   UNL     1       1.872  -6.735  -0.707  0.00  0.00    +0.025 A 
ATOM      8 BR   UNL     1       3.232  -5.505  -0.246  0.00  0.00    -0.050 Br
ATOM      9  N   UNL     1      -1.521  -6.473  -1.833  0.00  0.00    -0.283 N 
ATOM     10  C   UNL     1      -1.354  -5.139  -1.770  0.00  0.00    +0.242 C 
ATOM     11  O   UNL     1      -2.180  -4.293  -2.040  0.00  0.00    -0.273 OA
ATOM     12  H   UNL     1      -2.346  -6.902  -2.111  0.00  0.00    +0.155 HD
ENDROOT
BRANCH   1  13
ATOM     13  N   UNL     1       0.059  -4.168  -0.023  0.00  0.00    -0.328 N 
ATOM     14  H   UNL     1       0.070  -4.658   0.815  0.00  0.00    +0.147 HD
BRANCH  13  19
ATOM     15  C   UNL     1      -0.018   1.503   0.010  0.00  0.00    +0.044 C 
ATOM     16  C   UNL     1       0.002  -0.004   0.002  0.00  0.00    -0.049 A 
ATOM     17  C   UNL     1       0.006  -0.687  -1.200  0.00  0.00    +0.005 A 
ATOM     18  C   UNL     1       0.025  -2.068  -1.212  0.00  0.00    +0.024 A 
ATOM     19  C   UNL     1       0.041  -2.771  -0.014  0.00  0.00    +0.042 A 
ATOM     20  C   UNL     1       0.037  -2.082   1.192  0.00  0.00    +0.039 A 
ATOM     21  C   UNL     1       0.023  -0.700   1.196  0.00  0.00    +0.020 A 
ATOM     22 BR   UNL     1       0.057  -3.034   2.826  0.00  0.00    -0.048 Br
ENDBRANCH  13  19
ENDBRANCH   1  13
TORSDOF 2
