REMARK  Name = ZINC64131675
REMARK  5 active torsions:
REMARK  status: ('A' for Active; 'I' for Inactive)
REMARK    1  A    between atoms: C_1  and  C_2
REMARK    2  A    between atoms: C_10  and  C_12
REMARK    3  A    between atoms: C_12  and  N_13
REMARK    4  A    between atoms: C_21  and  C_23
REMARK    5  A    between atoms: C_25  and  C_34
REMARK                            x       y       z     vdW  Elec       q    Type
REMARK                         _______ _______ _______ _____ _____    ______ ____
ROOT
ATOM      1  N   UNL     1      -2.414   0.779   4.339  0.00  0.00    -0.294 N 
ATOM      2  C   UNL     1      -1.464   1.046   5.428  0.00  0.00    +0.127 C 
ATOM      3  C   UNL     1      -0.213   1.708   4.841  0.00  0.00    +0.127 C 
ATOM      4  N   UNL     1      -0.452   3.137   4.657  0.00  0.00    -0.298 N 
ATOM      5  C   UNL     1      -1.460   3.653   3.733  0.00  0.00    +0.117 C 
ATOM      6  C   UNL     1      -2.853   3.209   4.194  0.00  0.00    +0.115 C 
ATOM      7  C   UNL     1      -3.072   1.781   3.748  0.00  0.00    +0.217 C 
ATOM      8  O   UNL     1      -3.853   1.542   2.851  0.00  0.00    -0.276 OA
ATOM      9  C   UNL     1       0.285   4.014   5.366  0.00  0.00    +0.242 C 
ATOM     10  O   UNL     1       1.128   3.612   6.140  0.00  0.00    -0.273 OA
ENDROOT
BRANCH   9  11
ATOM     11  C   UNL     1       0.062   5.495   5.199  0.00  0.00    +0.193 C 
ATOM     12  C   UNL     1      -1.129   5.939   6.018  0.00  0.00    -0.033 C 
ATOM     13  C   UNL     1      -0.658   6.846   6.904  0.00  0.00    +0.001 A 
ATOM     14  C   UNL     1      -1.305   7.633   7.960  0.00  0.00    +0.030 A 
ATOM     15  C   UNL     1      -0.554   8.479   8.702  0.00  0.00    +0.042 A 
ATOM     16  C   UNL     1       0.825   8.622   8.487  0.00  0.00    +0.022 A 
ATOM     17  C   UNL     1       1.490   7.932   7.536  0.00  0.00    +0.027 A 
ATOM     18  C   UNL     1       0.798   7.014   6.698  0.00  0.00    +0.043 A 
ATOM     19  N   UNL     1       1.212   6.242   5.721  0.00  0.00    -0.370 N 
ATOM     20 CL   UNL     1      -1.316   9.413   9.951  0.00  0.00    -0.084 Cl
ATOM     21  C   UNL     1      -2.553   5.467   5.875  0.00  0.00    +0.042 C 
ATOM     22  H   UNL     1       2.124   6.175   5.398  0.00  0.00    +0.161 HD
ENDBRANCH   9  11
BRANCH   1  23
ATOM     23  C   UNL     1      -2.637  -0.599   3.893  0.00  0.00    +0.159 C 
BRANCH  23  32
ATOM     24  C   UNL     1      -0.018   1.503   0.010  0.00  0.00    +0.043 C 
ATOM     25  C   UNL     1       0.002  -0.004   0.002  0.00  0.00    -0.031 C 
ATOM     26  C   UNL     1       0.006  -0.675  -1.151  0.00  0.00    +0.004 C 
ATOM     27  C   UNL     1       0.030  -2.142  -1.196  0.00  0.00    +0.015 C 
ATOM     28  C   UNL     1      -0.300  -2.846  -0.087  0.00  0.00    +0.073 C 
ATOM     29  N   UNL     1      -0.610  -2.084   1.018  0.00  0.00    -0.306 N 
ATOM     30  C   UNL     1       0.025  -0.777   1.297  0.00  0.00    +0.218 C 
ATOM     31  N   UNL     1      -0.778  -0.139   2.333  0.00  0.00    -0.262 NA
ATOM     32  C   UNL     1      -1.660  -0.936   2.796  0.00  0.00    +0.050 C 
ATOM     33  C   UNL     1      -1.594  -2.268   2.076  0.00  0.00    +0.159 C 
ENDBRANCH  23  32
ENDBRANCH   1  23
TORSDOF 3
