REMARK  Name = ZINC12833328
REMARK  9 active torsions:
REMARK  status: ('A' for Active; 'I' for Inactive)
REMARK    1  A    between atoms: C_1  and  O_2
REMARK    2  A    between atoms: O_2  and  C_3
REMARK    3  A    between atoms: C_8  and  C_15
REMARK    4  A    between atoms: C_15  and  N_64
REMARK    5  A    between atoms: C_16  and  C_17
REMARK    6  A    between atoms: C_16  and  N_64
REMARK    7  A    between atoms: C_26  and  C_27
REMARK    8  A    between atoms: C_26  and  N_64
REMARK    9  A    between atoms: N_31  and  C_32
REMARK                            x       y       z     vdW  Elec       q    Type
REMARK                         _______ _______ _______ _____ _____    ______ ____
ROOT
ATOM      1  N   UNL     1       1.292  -2.458  -1.301  0.00  0.00    +0.390 N 
ATOM      2  H   UNL     1       2.073  -2.098  -1.861  0.00  0.00    -0.080 HD
ENDROOT
BRANCH   1   3
ATOM      3  C   UNL     1       1.194  -1.673  -0.053  0.00  0.00    -0.036 C 
BRANCH   3   9
ATOM      4  C   UNL     1       0.979   4.664  -1.453  0.00  0.00    +0.122 A 
ATOM      5  C   UNL     1      -0.325   4.194  -1.303  0.00  0.00    +0.046 A 
ATOM      6  C   UNL     1      -0.558   2.884  -0.998  0.00  0.00    +0.013 A 
ATOM      7  C   UNL     1       0.519   2.003  -0.846  0.00  0.00    -0.001 A 
ATOM      8  C   UNL     1       0.302   0.593  -0.525  0.00  0.00    +0.017 A 
ATOM      9  C   UNL     1       1.383  -0.214  -0.383  0.00  0.00    +0.001 A 
ATOM     10  C   UNL     1       2.684   0.305  -0.544  0.00  0.00    +0.251 A 
ATOM     11  O   UNL     1       3.641  -0.438  -0.412  0.00  0.00    -0.268 OA
ATOM     12  N   UNL     1       2.895   1.600  -0.839  0.00  0.00    -0.322 N 
ATOM     13  H   UNL     1       3.803   1.925  -0.943  0.00  0.00    +0.169 HD
ATOM     14  C   UNL     1       1.839   2.473  -0.996  0.00  0.00    +0.053 A 
ATOM     15  C   UNL     1       2.058   3.810  -1.300  0.00  0.00    +0.072 A 
BRANCH   4  17
ATOM     16  C   UNL     1       0.038   6.801  -1.895  0.00  0.00    +0.277 C 
ATOM     17  O   UNL     1       1.193   5.971  -1.751  0.00  0.00    -0.495 OA
ENDBRANCH   4  17
ENDBRANCH   3   9
ENDBRANCH   1   3
BRANCH   1  18
ATOM     18  C   UNL     1       0.042  -2.326  -2.080  0.00  0.00    -0.042 C 
BRANCH  18  19
ATOM     19  C   UNL     1      -1.109  -2.961  -1.343  0.00  0.00    -0.060 A 
ATOM     20  C   UNL     1      -1.473  -4.265  -1.623  0.00  0.00    +0.005 A 
ATOM     21  C   UNL     1      -2.524  -4.853  -0.945  0.00  0.00    +0.050 A 
ATOM     22  C   UNL     1      -3.225  -4.132   0.008  0.00  0.00    +0.166 A 
ATOM     23  C   UNL     1      -2.862  -2.816   0.286  0.00  0.00    +0.166 A 
ATOM     24  C   UNL     1      -1.803  -2.235  -0.393  0.00  0.00    +0.051 A 
ATOM     25  O   UNL     1      -3.695  -2.328   1.251  0.00  0.00    -0.453 OA
ATOM     26  C   UNL     1      -4.826  -3.219   1.269  0.00  0.00    +0.466 C 
ATOM     27  O   UNL     1      -4.285  -4.468   0.799  0.00  0.00    -0.453 OA
ENDBRANCH  18  19
ENDBRANCH   1  18
BRANCH   1  28
ATOM     28  C   UNL     1       1.543  -3.880  -0.985  0.00  0.00    +0.001 C 
BRANCH  28  29
ATOM     29  C   UNL     1       2.025  -4.574  -2.233  0.00  0.00    +0.135 A 
ATOM     30  N   UNL     1       1.280  -5.123  -3.161  0.00  0.00    -0.115 NA
ATOM     31  N   UNL     1       2.061  -5.610  -4.062  0.00  0.00    -0.023 NA
ATOM     32  N   UNL     1       3.285  -5.394  -3.729  0.00  0.00    -0.044 NA
ATOM     33  N   UNL     1       3.305  -4.758  -2.607  0.00  0.00    -0.228 N 
BRANCH  33  34
ATOM     34  C   UNL     1       4.496  -4.317  -1.877  0.00  0.00    +0.111 C 
ATOM     35  C   UNL     1       5.350  -3.391  -2.768  0.00  0.00    +0.027 C 
ATOM     36  C   UNL     1       6.811  -3.762  -2.410  0.00  0.00    +0.002 C 
ATOM     37  C   UNL     1       6.738  -5.297  -2.220  0.00  0.00    +0.002 C 
ATOM     38  C   UNL     1       5.379  -5.528  -1.528  0.00  0.00    +0.027 C 
ENDBRANCH  33  34
ENDBRANCH  28  29
ENDBRANCH   1  28
TORSDOF 8
