REMARK  Name = ZINC03351481
REMARK  9 active torsions:
REMARK  status: ('A' for Active; 'I' for Inactive)
REMARK    1  A    between atoms: C_1  and  C_2
REMARK    2  A    between atoms: C_2  and  C_4
REMARK    3  A    between atoms: C_2  and  N_46
REMARK    4  A    between atoms: N_6  and  C_7
REMARK    5  A    between atoms: C_9  and  N_14
REMARK    6  A    between atoms: C_17  and  N_46
REMARK    7  A    between atoms: C_18  and  C_19
REMARK    8  A    between atoms: C_18  and  N_46
REMARK    9  A    between atoms: N_21  and  C_22
REMARK                            x       y       z     vdW  Elec       q    Type
REMARK                         _______ _______ _______ _____ _____    ______ ____
ROOT
ATOM      1  C   UNL     1       1.047  -1.421  -1.101  0.00  0.00    -0.094 C 
ATOM      2  N   UNL     1       0.924  -2.698  -0.367  0.00  0.00    +0.391 N 
ATOM      3  H   UNL     1       0.675  -3.442  -1.030  0.00  0.00    -0.080 HD
ENDROOT
BRANCH   2   5
ATOM      4  C   UNL     1       2.440  -2.165   1.510  0.00  0.00    -0.004 C 
ATOM      5  C   UNL     1       2.211  -3.038   0.275  0.00  0.00    +0.017 C 
BRANCH   5   6
ATOM      6  C   UNL     1       2.181  -4.488   0.683  0.00  0.00    +0.203 C 
ATOM      7  O   UNL     1       1.158  -5.129   0.568  0.00  0.00    -0.277 OA
ATOM      8  N   UNL     1       3.291  -5.073   1.175  0.00  0.00    -0.286 N 
ATOM      9  H   UNL     1       4.090  -4.545   1.330  0.00  0.00    +0.155 HD
BRANCH   8  10
ATOM     10  C   UNL     1       3.292  -6.443   1.461  0.00  0.00    +0.054 A 
ATOM     11  C   UNL     1       2.113  -7.077   1.831  0.00  0.00    +0.057 A 
ATOM     12  C   UNL     1       2.116  -8.429   2.112  0.00  0.00    +0.128 A 
ATOM     13  C   UNL     1       3.292  -9.152   2.027  0.00  0.00    +0.034 A 
ATOM     14  C   UNL     1       4.468  -8.525   1.661  0.00  0.00    +0.024 A 
ATOM     15  C   UNL     1       4.471  -7.173   1.372  0.00  0.00    +0.062 A 
ATOM     16 CL   UNL     1       5.946  -6.387   0.904  0.00  0.00    -0.082 Cl
BRANCH  12  17
ATOM     17  N   UNL     1       0.860  -9.106   2.506  0.00  0.00    +0.056 N 
ATOM     18  O   UNL     1      -0.176  -8.470   2.581  0.00  0.00    -0.126 OA
ATOM     19  O   UNL     1       0.862 -10.298   2.755  0.00  0.00    -0.126 OA
ENDBRANCH  12  17
ENDBRANCH   8  10
ENDBRANCH   5   6
ENDBRANCH   2   5
BRANCH   2  20
ATOM     20  C   UNL     1      -0.138  -2.593   0.656  0.00  0.00    +0.020 C 
BRANCH  20  21
ATOM     21  C   UNL     1      -1.470  -2.466  -0.038  0.00  0.00    +0.201 C 
ATOM     22  O   UNL     1      -1.524  -2.448  -1.250  0.00  0.00    -0.278 OA
ATOM     23  N   UNL     1      -2.602  -2.373   0.688  0.00  0.00    -0.285 N 
ATOM     24  H   UNL     1      -2.564  -2.435   1.655  0.00  0.00    +0.155 HD
BRANCH  23  25
ATOM     25  C   UNL     1      -3.832  -2.179   0.046  0.00  0.00    +0.072 A 
ATOM     26  C   UNL     1      -4.041  -2.695  -1.226  0.00  0.00    +0.029 A 
ATOM     27  C   UNL     1      -5.256  -2.509  -1.856  0.00  0.00    +0.043 A 
ATOM     28  C   UNL     1      -6.263  -1.798  -1.226  0.00  0.00    +0.161 A 
ATOM     29  C   UNL     1      -6.058  -1.276   0.042  0.00  0.00    +0.195 A 
ATOM     30  C   UNL     1      -4.843  -1.466   0.679  0.00  0.00    +0.182 A 
ATOM     31  F   UNL     1      -4.641  -0.959   1.915  0.00  0.00    -0.200 F 
ATOM     32  F   UNL     1      -7.042  -0.583   0.655  0.00  0.00    -0.199 F 
ATOM     33  F   UNL     1      -7.449  -1.612  -1.848  0.00  0.00    -0.202 F 
ENDBRANCH  23  25
ENDBRANCH  20  21
ENDBRANCH   2  20
TORSDOF 7
