REMARK  Name = ZINC49779757
REMARK  7 active torsions:
REMARK  status: ('A' for Active; 'I' for Inactive)
REMARK    1  A    between atoms: C_1  and  C_2
REMARK    2  A    between atoms: C_2  and  C_4
REMARK    3  A    between atoms: C_2  and  N_12
REMARK    4  A    between atoms: N_15  and  N_16
REMARK    5  A    between atoms: N_16  and  C_17
REMARK    6  A    between atoms: C_17  and  N_19
REMARK    7  A    between atoms: N_19  and  C_20
REMARK                            x       y       z     vdW  Elec       q    Type
REMARK                         _______ _______ _______ _____ _____    ______ ____
ROOT
ATOM      1  N   UNL     1       0.764  -0.485  -1.153  0.00  0.00    -0.292 N 
ATOM      2  C   UNL     1       2.096  -0.663  -1.055  0.00  0.00    +0.316 C 
ATOM      3  O   UNL     1       2.666  -0.424  -0.008  0.00  0.00    -0.251 OA
ATOM      4  N   UNL     1       2.797  -1.106  -2.118  0.00  0.00    -0.219 N 
ATOM      5  H   UNL     1       0.309  -0.676  -1.988  0.00  0.00    +0.151 HD
ATOM      6  H   UNL     1       3.756  -1.234  -2.047  0.00  0.00    +0.174 HD
ENDROOT
BRANCH   1   8
ATOM      7  C   UNL     1       0.009   1.526   0.016  0.00  0.00    +0.033 C 
ATOM      8  C   UNL     1       0.002  -0.004   0.002  0.00  0.00    +0.103 C 
BRANCH   8   9
ATOM      9  C   UNL     1      -1.418  -0.499  -0.091  0.00  0.00    -0.009 A 
ATOM     10  C   UNL     1      -1.976  -0.770  -1.327  0.00  0.00    +0.008 A 
ATOM     11  C   UNL     1      -3.278  -1.224  -1.413  0.00  0.00    +0.020 A 
ATOM     12  C   UNL     1      -4.025  -1.407  -0.263  0.00  0.00    +0.042 A 
ATOM     13  C   UNL     1      -3.468  -1.137   0.974  0.00  0.00    +0.040 A 
ATOM     14  C   UNL     1      -2.162  -0.687   1.060  0.00  0.00    +0.047 A 
ATOM     15 CL   UNL     1      -1.459  -0.353   2.612  0.00  0.00    -0.083 Cl
ATOM     16 CL   UNL     1      -5.661  -1.977  -0.371  0.00  0.00    -0.083 Cl
ENDBRANCH   8   9
ENDBRANCH   1   8
BRANCH   4  17
ATOM     17  N   UNL     1       2.140  -1.382  -3.324  0.00  0.00    -0.245 N 
ATOM     18  H   UNL     1       1.181  -1.254  -3.395  0.00  0.00    +0.172 HD
BRANCH  17  19
ATOM     19  C   UNL     1       2.841  -1.825  -4.387  0.00  0.00    +0.147 C 
ATOM     20  S   UNL     1       2.039  -2.161  -5.861  0.00  0.00    -0.017 S 
BRANCH  19  21
ATOM     21  N   UNL     1       4.173  -2.002  -4.289  0.00  0.00    -0.323 N 
ATOM     22  H   UNL     1       4.628  -1.812  -3.454  0.00  0.00    +0.148 HD
BRANCH  21  23
ATOM     23  C   UNL     1       4.935  -2.484  -5.444  0.00  0.00    +0.072 C 
ATOM     24  C   UNL     1       5.378  -1.293  -6.319  0.00  0.00    +0.022 C 
ATOM     25  C   UNL     1       6.818  -0.984  -5.840  0.00  0.00    +0.002 C 
ATOM     26  C   UNL     1       7.401  -2.395  -5.577  0.00  0.00    +0.002 C 
ATOM     27  C   UNL     1       6.221  -3.185  -4.972  0.00  0.00    +0.022 C 
ENDBRANCH  21  23
ENDBRANCH  19  21
ENDBRANCH  17  19
ENDBRANCH   4  17
TORSDOF 6
