REMARK  Name = ZINC39990142
REMARK  11 active torsions:
REMARK  status: ('A' for Active; 'I' for Inactive)
REMARK    1  A    between atoms: C_1  and  C_2
REMARK    2  A    between atoms: C_2  and  C_3
REMARK    3  A    between atoms: C_3  and  N_4
REMARK    4  A    between atoms: C_5  and  N_28
REMARK    5  A    between atoms: C_6  and  C_14
REMARK    6  A    between atoms: C_7  and  C_13
REMARK    7  A    between atoms: C_8  and  C_11
REMARK    8  A    between atoms: N_18  and  C_22
REMARK    9  A    between atoms: C_22  and  C_23
REMARK   10  A    between atoms: C_30  and  C_37
REMARK   11  A    between atoms: C_33  and  C_36
REMARK                            x       y       z     vdW  Elec       q    Type
REMARK                         _______ _______ _______ _____ _____    ______ ____
ROOT
ATOM      1  N   UNL     1       0.846  -1.413   0.209  0.00  0.00    -0.295 N 
ATOM      2  C   UNL     1       1.996  -2.106   0.416  0.00  0.00    +0.112 A 
ATOM      3  C   UNL     1       2.276  -3.263  -0.330  0.00  0.00    +0.019 A 
ATOM      4  C   UNL     1       1.355  -3.701  -1.297  0.00  0.00    -0.017 A 
ATOM      5  C   UNL     1       0.183  -2.974  -1.489  0.00  0.00    +0.120 A 
ATOM      6  C   UNL     1      -0.054  -1.816  -0.706  0.00  0.00    +0.270 A 
ATOM      7  O   UNL     1      -1.079  -1.177  -0.866  0.00  0.00    -0.266 OA
ATOM      8  C   UNL     1       1.630  -4.939  -2.111  0.00  0.00    +0.046 C 
ENDROOT
BRANCH   3   9
ATOM      9  C   UNL     1       3.517  -4.005  -0.104  0.00  0.00    +0.032 C 
ATOM     10  C   UNL     1       3.471  -5.286   0.352  0.00  0.00    +0.077 C 
ATOM     11  C   UNL     1       4.531  -6.226   0.530  0.00  0.00    +0.259 C 
ATOM     12  O   UNL     1       5.682  -5.932   0.262  0.00  0.00    -0.269 OA
ATOM     13  N   UNL     1       4.225  -7.425   0.994  0.00  0.00    -0.248 N 
ATOM     14  C   UNL     1       2.948  -7.752   1.291  0.00  0.00    +0.121 C 
ATOM     15  S   UNL     1       2.331  -9.230   1.896  0.00  0.00    -0.027 S 
ATOM     16  S   UNL     1       2.067  -6.249   0.897  0.00  0.00    -0.061 S 
BRANCH  13  17
ATOM     17  C   UNL     1       5.287  -8.416   1.189  0.00  0.00    +0.189 C 
BRANCH  17  18
ATOM     18  C   UNL     1       5.841  -8.289   2.585  0.00  0.00    +0.122 A 
ATOM     19  C   UNL     1       5.397  -8.947   3.671  0.00  0.00    +0.046 A 
ATOM     20  C   UNL     1       6.197  -8.530   4.759  0.00  0.00    +0.041 A 
ATOM     21  C   UNL     1       7.083  -7.643   4.273  0.00  0.00    +0.195 A 
ATOM     22  O   UNL     1       6.867  -7.505   2.955  0.00  0.00    -0.466 OA
ENDBRANCH  17  18
ENDBRANCH  13  17
ENDBRANCH   3   9
BRANCH   2  23
ATOM     23  N   UNL     1       2.886  -1.675   1.355  0.00  0.00    -0.315 N 
ATOM     24  C   UNL     1       2.573  -1.780   2.787  0.00  0.00    +0.109 C 
ATOM     25  C   UNL     1       3.715  -2.525   3.487  0.00  0.00    +0.004 C 
ATOM     26  C   UNL     1       5.039  -1.821   3.183  0.00  0.00    +0.009 C 
ATOM     27  C   UNL     1       5.299  -1.848   1.675  0.00  0.00    +0.004 C 
ATOM     28  C   UNL     1       4.178  -1.101   0.955  0.00  0.00    +0.109 C 
ATOM     29  C   UNL     1       6.639  -1.174   1.376  0.00  0.00    +0.009 C 
ATOM     30  C   UNL     1       3.772  -3.966   2.978  0.00  0.00    +0.009 C 
ENDBRANCH   2  23
BRANCH   5  31
ATOM     31  C   UNL     1      -0.775  -3.394  -2.466  0.00  0.00    +0.105 C 
ATOM     32  N   UNL     1      -1.536  -3.728  -3.241  0.00  0.00    -0.191 NA
ENDBRANCH   5  31
BRANCH   1  33
ATOM     33  C   UNL     1       0.579  -0.210   1.001  0.00  0.00    +0.126 C 
BRANCH  33  35
ATOM     34  C   UNL     1      -0.511   0.661   3.073  0.00  0.00    +0.005 C 
ATOM     35  C   UNL     1      -0.338  -0.564   2.173  0.00  0.00    +0.018 C 
ENDBRANCH  33  35
ENDBRANCH   1  33
TORSDOF 7
