REMARK  Name = ZINC49161001
REMARK  8 active torsions:
REMARK  status: ('A' for Active; 'I' for Inactive)
REMARK    1  A    between atoms: C_1  and  C_2
REMARK    2  A    between atoms: C_2  and  C_3
REMARK    3  A    between atoms: C_2  and  C_4
REMARK    4  A    between atoms: C_4  and  C_5
REMARK    5  A    between atoms: C_5  and  N_6
REMARK    6  A    between atoms: N_9  and  N_10
REMARK    7  A    between atoms: C_11  and  C_13
REMARK    8  A    between atoms: C_19  and  C_21
REMARK                            x       y       z     vdW  Elec       q    Type
REMARK                         _______ _______ _______ _____ _____    ______ ____
ROOT
ATOM      1  N   UNL     1      -5.360  -3.464  -0.087  0.00  0.00    -0.232 N 
ATOM      2  C   UNL     1      -6.624  -3.930  -0.077  0.00  0.00    +0.250 C 
ATOM      3  O   UNL     1      -6.832  -5.121  -0.173  0.00  0.00    -0.272 OA
ATOM      4  H   UNL     1      -5.194  -2.511  -0.010  0.00  0.00    +0.173 HD
ENDROOT
BRANCH   2   5
ATOM      5  C   UNL     1      -7.780  -2.972   0.052  0.00  0.00    +0.163 C 
ATOM      6  C   UNL     1      -8.083  -2.326  -1.316  0.00  0.00    +0.033 C 
ATOM      7  C   UNL     1      -9.250  -3.193  -1.859  0.00  0.00    +0.021 C 
ATOM      8  C   UNL     1     -10.029  -3.515  -0.559  0.00  0.00    +0.108 C 
ATOM      9  N   UNL     1      -8.987  -3.699   0.473  0.00  0.00    -0.290 N 
ATOM     10  C   UNL     1      -9.118  -4.413   1.608  0.00  0.00    +0.213 C 
ATOM     11  O   UNL     1      -8.190  -4.495   2.384  0.00  0.00    -0.276 OA
ATOM     12  C   UNL     1     -10.419  -5.110   1.913  0.00  0.00    +0.109 C 
ENDBRANCH   2   5
BRANCH   1  16
ATOM     13  N   UNL     1      -2.790  -2.565  -0.111  0.00  0.00    -0.298 N 
ATOM     14  C   UNL     1      -3.021  -3.888  -0.217  0.00  0.00    +0.316 C 
ATOM     15  O   UNL     1      -2.088  -4.662  -0.322  0.00  0.00    -0.251 OA
ATOM     16  N   UNL     1      -4.285  -4.355  -0.208  0.00  0.00    -0.218 N 
ATOM     17  H   UNL     1      -3.534  -1.948  -0.027  0.00  0.00    +0.150 HD
ATOM     18  H   UNL     1      -4.451  -5.307  -0.285  0.00  0.00    +0.174 HD
BRANCH  13  19
ATOM     19  C   UNL     1      -1.416  -2.058  -0.121  0.00  0.00    +0.106 C 
BRANCH  19  20
ATOM     20  C   UNL     1      -1.433  -0.534   0.013  0.00  0.00    +0.022 C 
BRANCH  20  22
ATOM     21  C   UNL     1      -0.019   1.526   0.010  0.00  0.00    +0.007 C 
ATOM     22  C   UNL     1       0.002  -0.004   0.002  0.00  0.00    -0.016 C 
ATOM     23  C   UNL     1       0.742  -0.511   1.242  0.00  0.00    +0.007 C 
ENDBRANCH  20  22
ENDBRANCH  19  20
ENDBRANCH  13  19
ENDBRANCH   1  16
TORSDOF 5
