REMARK  Name = ZINC66660413
REMARK  5 active torsions:
REMARK  status: ('A' for Active; 'I' for Inactive)
REMARK    1  A    between atoms: C_1  and  C_2
REMARK    2  A    between atoms: C_4  and  C_24
REMARK    3  A    between atoms: C_9  and  N_14
REMARK    4  A    between atoms: C_11  and  C_13
REMARK    5  A    between atoms: C_15  and  C_17
REMARK                            x       y       z     vdW  Elec       q    Type
REMARK                         _______ _______ _______ _____ _____    ______ ____
ROOT
ATOM      1  C   UNL     1      -0.018   1.503   0.010  0.00  0.00    +0.066 C 
ATOM      2  C   UNL     1       0.002  -0.004   0.002  0.00  0.00    +0.044 A 
ATOM      3  C   UNL     1       0.006  -0.699  -1.197  0.00  0.00    +0.046 A 
ATOM      4  C   UNL     1       0.025  -2.085  -1.159  0.00  0.00    +0.044 A 
ATOM      5  N   UNL     1       0.039  -2.697   0.013  0.00  0.00    -0.216 NA
ATOM      6  C   UNL     1       0.035  -2.003   1.140  0.00  0.00    +0.253 A 
ATOM      7  N   UNL     1       0.022  -0.680   1.139  0.00  0.00    -0.216 NA
ATOM      8  N   UNL     1       0.049  -2.682   2.357  0.00  0.00    -0.183 N 
ATOM      9  C   UNL     1       0.042  -2.112   3.595  0.00  0.00    +0.132 A 
ATOM     10  C   UNL     1       0.062  -3.122   4.508  0.00  0.00    +0.068 A 
ATOM     11  C   UNL     1       0.082  -4.333   3.809  0.00  0.00    +0.062 A 
ATOM     12  N   UNL     1       0.069  -4.073   2.527  0.00  0.00    -0.167 NA
ATOM     13  C   UNL     1       0.108  -5.706   4.428  0.00  0.00    +0.067 C 
ATOM     14  C   UNL     1       0.029  -2.883  -2.437  0.00  0.00    +0.066 C 
ENDROOT
BRANCH   9  15
ATOM     15  N   UNL     1       0.018  -0.749   3.874  0.00  0.00    -0.265 N 
ATOM     16  C   UNL     1       0.013  -0.323   5.153  0.00  0.00    +0.266 C 
ATOM     17  O   UNL     1       0.030  -1.130   6.064  0.00  0.00    -0.268 OA
ATOM     18  H   UNL     1       0.005  -0.105   3.149  0.00  0.00    +0.157 HD
BRANCH  16  19
ATOM     19  C   UNL     1      -0.012   1.113   5.448  0.00  0.00    +0.104 A 
ATOM     20  C   UNL     1      -0.013   1.689   6.701  0.00  0.00    +0.052 A 
ATOM     21  C   UNL     1      -0.040   3.075   6.518  0.00  0.00    +0.059 A 
ATOM     22  C   UNL     1      -0.054   3.317   5.184  0.00  0.00    +0.103 A 
ATOM     23  N   UNL     1      -0.032   2.133   4.523  0.00  0.00    -0.356 N 
ATOM     24  H   UNL     1      -0.032   2.023   3.559  0.00  0.00    +0.166 HD
ATOM     25 CL   UNL     1      -0.053   4.273   7.774  0.00  0.00    -0.082 Cl
ENDBRANCH  16  19
ENDBRANCH   9  15
TORSDOF 2
