REMARK  Name = ZINC65100381
REMARK  10 active torsions:
REMARK  status: ('A' for Active; 'I' for Inactive)
REMARK    1  A    between atoms: C_1  and  C_2
REMARK    2  A    between atoms: C_5  and  C_8
REMARK    3  A    between atoms: C_8  and  N_9
REMARK    4  A    between atoms: C_10  and  C_12
REMARK    5  A    between atoms: N_17  and  C_22
REMARK    6  A    between atoms: C_22  and  C_23
REMARK    7  A    between atoms: N_25  and  C_26
REMARK    8  A    between atoms: C_30  and  C_32
REMARK    9  A    between atoms: C_32  and  C_33
REMARK   10  A    between atoms: C_32  and  C_34
REMARK                            x       y       z     vdW  Elec       q    Type
REMARK                         _______ _______ _______ _____ _____    ______ ____
ROOT
ATOM      1  C   UNL     1       3.101  -6.548  -0.045  0.00  0.00    +0.053 A 
ATOM      2  C   UNL     1       4.198  -5.576  -0.050  0.00  0.00    +0.018 A 
ATOM      3  C   UNL     1       5.474  -6.024  -0.064  0.00  0.00    +0.049 A 
ATOM      4  C   UNL     1       5.718  -7.468  -0.074  0.00  0.00    +0.162 A 
ATOM      5  N   UNL     1       6.830  -8.163  -0.088  0.00  0.00    -0.148 NA
ATOM      6  N   UNL     1       6.489  -9.522  -0.092  0.00  0.00    -0.203 N 
ATOM      7  C   UNL     1       5.142  -9.604  -0.080  0.00  0.00    +0.351 A 
ATOM      8  O   UNL     1       4.486 -10.631  -0.080  0.00  0.00    -0.244 OA
ATOM      9  N   UNL     1       4.651  -8.347  -0.069  0.00  0.00    -0.250 N 
ATOM     10  C   UNL     1       3.367  -7.882  -0.049  0.00  0.00    +0.110 A 
ENDROOT
BRANCH   1  12
ATOM     11  N   UNL     1       1.437  -4.757  -0.025  0.00  0.00    -0.307 N 
ATOM     12  C   UNL     1       1.704  -6.078  -0.029  0.00  0.00    +0.246 C 
ATOM     13  O   UNL     1       0.792  -6.883  -0.020  0.00  0.00    -0.270 OA
ATOM     14  H   UNL     1       2.164  -4.116  -0.032  0.00  0.00    +0.149 HD
BRANCH  11  15
ATOM     15  C   UNL     1       0.048  -4.291  -0.009  0.00  0.00    +0.139 C 
BRANCH  15  20
ATOM     16  C   UNL     1      -0.045   1.487  -0.002  0.00  0.00    +0.044 C 
ATOM     17  C   UNL     1      -0.021  -0.019  -0.004  0.00  0.00    -0.050 A 
ATOM     18  C   UNL     1      -0.022  -0.709  -1.202  0.00  0.00    +0.003 A 
ATOM     19  C   UNL     1       0.001  -2.091  -1.203  0.00  0.00    +0.005 A 
ATOM     20  C   UNL     1       0.025  -2.784  -0.007  0.00  0.00    -0.030 A 
ATOM     21  C   UNL     1       0.027  -2.094   1.191  0.00  0.00    +0.005 A 
ATOM     22  C   UNL     1       0.008  -0.712   1.192  0.00  0.00    +0.003 A 
ENDBRANCH  15  20
ENDBRANCH  11  15
ENDBRANCH   1  12
BRANCH   6  23
ATOM     23  C   UNL     1       7.424 -10.649  -0.107  0.00  0.00    +0.244 C 
BRANCH  23  24
ATOM     24  C   UNL     1       7.731 -11.028  -1.533  0.00  0.00    +0.239 C 
ATOM     25  O   UNL     1       7.220 -10.416  -2.447  0.00  0.00    -0.273 OA
ATOM     26  N   UNL     1       8.575 -12.046  -1.793  0.00  0.00    -0.284 N 
ATOM     27  H   UNL     1       9.037 -12.492  -1.066  0.00  0.00    +0.155 HD
BRANCH  26  28
ATOM     28  C   UNL     1       8.786 -12.460  -3.113  0.00  0.00    +0.034 A 
ATOM     29  C   UNL     1       8.988 -13.805  -3.397  0.00  0.00    +0.023 A 
ATOM     30  C   UNL     1       9.196 -14.210  -4.700  0.00  0.00    +0.002 A 
ATOM     31  C   UNL     1       9.203 -13.279  -5.723  0.00  0.00    +0.004 A 
ATOM     32  C   UNL     1       9.003 -11.940  -5.444  0.00  0.00    -0.043 A 
ATOM     33  C   UNL     1       8.788 -11.529  -4.143  0.00  0.00    +0.027 A 
BRANCH  32  34
ATOM     34  C   UNL     1       9.013 -10.929  -6.561  0.00  0.00    +0.013 C 
ATOM     35  C   UNL     1      10.370 -10.961  -7.267  0.00  0.00    +0.012 C 
ATOM     36  C   UNL     1       7.908 -11.267  -7.565  0.00  0.00    +0.012 C 
ENDBRANCH  32  34
ENDBRANCH  26  28
ENDBRANCH  23  24
ENDBRANCH   6  23
TORSDOF 7
