REMARK  Name = ZINC65918892
REMARK  5 active torsions:
REMARK  status: ('A' for Active; 'I' for Inactive)
REMARK    1  A    between atoms: C_1  and  C_2
REMARK    2  A    between atoms: C_5  and  N_8
REMARK    3  A    between atoms: C_10  and  C_14
REMARK    4  A    between atoms: N_16  and  N_17
REMARK    5  A    between atoms: N_20  and  C_21
REMARK                            x       y       z     vdW  Elec       q    Type
REMARK                         _______ _______ _______ _____ _____    ______ ____
ROOT
ATOM      1  C   UNL     1       0.534  -7.479   1.441  0.00  0.00    +0.234 C 
ATOM      2  O   UNL     1       1.411  -7.163   2.217  0.00  0.00    -0.274 OA
ATOM      3  N   UNL     1       0.287  -8.781   1.196  0.00  0.00    -0.233 N 
ATOM      4  H   UNL     1      -0.414  -9.033   0.576  0.00  0.00    +0.173 HD
ENDROOT
BRANCH   1   7
ATOM      5  N   UNL     1       0.059  -4.170  -0.021  0.00  0.00    -0.271 N 
ATOM      6  C   UNL     1       0.176  -5.003   1.182  0.00  0.00    +0.127 C 
ATOM      7  C   UNL     1      -0.280  -6.415   0.751  0.00  0.00    +0.103 C 
ATOM      8  C   UNL     1       0.013  -6.391  -0.767  0.00  0.00    +0.110 C 
ATOM      9  C   UNL     1      -0.034  -4.923  -1.130  0.00  0.00    +0.221 C 
ATOM     10  O   UNL     1      -0.139  -4.490  -2.258  0.00  0.00    -0.275 OA
BRANCH   5  15
ATOM     11  C   UNL     1      -0.018   1.503   0.010  0.00  0.00    +0.044 C 
ATOM     12  C   UNL     1       0.002  -0.004   0.002  0.00  0.00    -0.050 A 
ATOM     13  C   UNL     1       0.020  -0.687  -1.200  0.00  0.00    +0.005 A 
ATOM     14  C   UNL     1       0.039  -2.068  -1.211  0.00  0.00    +0.024 A 
ATOM     15  C   UNL     1       0.040  -2.771  -0.013  0.00  0.00    +0.036 A 
ATOM     16  C   UNL     1       0.022  -2.082   1.192  0.00  0.00    +0.024 A 
ATOM     17  C   UNL     1       0.009  -0.701   1.197  0.00  0.00    +0.005 A 
ENDBRANCH   5  15
ENDBRANCH   1   7
BRANCH   3  18
ATOM     18  N   UNL     1       1.044  -9.770   1.838  0.00  0.00    -0.218 N 
ATOM     19  C   UNL     1       0.798 -11.072   1.593  0.00  0.00    +0.316 C 
ATOM     20  O   UNL     1       1.455 -11.930   2.150  0.00  0.00    -0.251 OA
ATOM     21  N   UNL     1      -0.177 -11.423   0.731  0.00  0.00    -0.295 N 
ATOM     22  H   UNL     1       1.746  -9.517   2.459  0.00  0.00    +0.174 HD
ATOM     23  H   UNL     1      -0.701 -10.738   0.287  0.00  0.00    +0.151 HD
BRANCH  21  24
ATOM     24  C   UNL     1      -0.445 -12.838   0.465  0.00  0.00    +0.074 C 
ATOM     25  C   UNL     1      -1.456 -13.387   1.493  0.00  0.00    +0.022 C 
ATOM     26  C   UNL     1      -2.825 -13.272   0.777  0.00  0.00    +0.002 C 
ATOM     27  C   UNL     1      -2.477 -13.642  -0.686  0.00  0.00    +0.002 C 
ATOM     28  C   UNL     1      -1.094 -13.000  -0.920  0.00  0.00    +0.022 C 
ENDBRANCH  21  24
ENDBRANCH   3  18
TORSDOF 4
