REMARK  Name = ZINC36537723
REMARK  10 active torsions:
REMARK  status: ('A' for Active; 'I' for Inactive)
REMARK    1  A    between atoms: C_1  and  C_2
REMARK    2  A    between atoms: C_5  and  S_8
REMARK    3  A    between atoms: S_8  and  C_11
REMARK    4  A    between atoms: C_11  and  N_12
REMARK    5  A    between atoms: C_13  and  C_15
REMARK    6  A    between atoms: C_15  and  C_17
REMARK    7  A    between atoms: C_15  and  N_24
REMARK    8  A    between atoms: N_24  and  C_25
REMARK    9  A    between atoms: C_26  and  C_28
REMARK   10  A    between atoms: C_32  and  N_34
REMARK                            x       y       z     vdW  Elec       q    Type
REMARK                         _______ _______ _______ _____ _____    ______ ____
ROOT
ATOM      1  C   UNL     1       3.219  -4.900   3.535  0.00  0.00    +0.192 C 
ENDROOT
BRANCH   1   2
ATOM      2  C   UNL     1       4.605  -4.329   3.382  0.00  0.00    -0.018 A 
ATOM      3  C   UNL     1       4.837  -2.994   3.656  0.00  0.00    +0.007 A 
ATOM      4  C   UNL     1       6.108  -2.470   3.516  0.00  0.00    +0.020 A 
ATOM      5  C   UNL     1       7.149  -3.282   3.102  0.00  0.00    +0.041 A 
ATOM      6  C   UNL     1       6.916  -4.618   2.827  0.00  0.00    +0.020 A 
ATOM      7  C   UNL     1       5.646  -5.142   2.973  0.00  0.00    +0.007 A 
ATOM      8 CL   UNL     1       8.746  -2.624   2.925  0.00  0.00    -0.084 Cl
ENDBRANCH   1   2
BRANCH   1  10
ATOM      9  N   UNL     1       2.608  -4.517   1.168  0.00  0.00    -0.294 N 
ATOM     10  C   UNL     1       2.724  -5.382   2.195  0.00  0.00    +0.239 C 
ATOM     11  O   UNL     1       2.429  -6.549   2.042  0.00  0.00    -0.273 OA
ATOM     12  H   UNL     1       2.844  -3.584   1.291  0.00  0.00    +0.150 HD
BRANCH   9  13
ATOM     13  C   UNL     1       2.127  -4.986  -0.134  0.00  0.00    +0.278 C 
BRANCH  13  14
ATOM     14  S   UNL     1       0.340  -4.699  -0.257  0.00  0.00    +0.013 S 
ATOM     15  O   UNL     1      -0.310  -5.150   0.923  0.00  0.00    -0.168 OA
ATOM     16  O   UNL     1      -0.131  -5.091  -1.539  0.00  0.00    -0.168 OA
BRANCH  14  21
ATOM     17  C   UNL     1      -0.279   1.302  -0.159  0.00  0.00    +0.044 C 
ATOM     18  C   UNL     1      -0.124  -0.197  -0.183  0.00  0.00    -0.050 A 
ATOM     19  C   UNL     1       0.035  -0.856  -1.388  0.00  0.00    +0.005 A 
ATOM     20  C   UNL     1       0.177  -2.230  -1.411  0.00  0.00    +0.027 A 
ATOM     21  C   UNL     1       0.161  -2.946  -0.228  0.00  0.00    +0.090 A 
ATOM     22  C   UNL     1       0.003  -2.288   0.977  0.00  0.00    +0.027 A 
ATOM     23  C   UNL     1      -0.135  -0.912   1.000  0.00  0.00    +0.005 A 
ENDBRANCH  14  21
ENDBRANCH  13  14
ENDBRANCH   9  13
ENDBRANCH   1  10
BRANCH   1  24
ATOM     24  N   UNL     1       3.254  -6.022   4.476  0.00  0.00    -0.285 N 
ATOM     25  C   UNL     1       4.063  -7.206   4.174  0.00  0.00    +0.133 C 
ATOM     26  C   UNL     1       2.542  -5.966   5.619  0.00  0.00    +0.247 C 
ATOM     27  O   UNL     1       1.930  -4.955   5.904  0.00  0.00    -0.270 OA
BRANCH  26  28
ATOM     28  C   UNL     1       2.505  -7.133   6.525  0.00  0.00    +0.039 A 
ATOM     29  C   UNL     1       3.650  -7.908   6.717  0.00  0.00    +0.013 A 
ATOM     30  C   UNL     1       3.609  -8.996   7.564  0.00  0.00    +0.003 A 
ATOM     31  C   UNL     1       2.435  -9.320   8.222  0.00  0.00    +0.033 A 
ATOM     32  C   UNL     1       1.297  -8.557   8.036  0.00  0.00    +0.127 A 
ATOM     33  C   UNL     1       1.326  -7.462   7.196  0.00  0.00    +0.045 A 
BRANCH  32  34
ATOM     34  N   UNL     1       0.046  -8.911   8.743  0.00  0.00    +0.056 N 
ATOM     35  O   UNL     1       0.020  -9.867   9.484  0.00  0.00    -0.126 OA
ATOM     36  O   UNL     1      -0.950  -8.245   8.582  0.00  0.00    -0.126 OA
ENDBRANCH  32  34
ENDBRANCH  26  28
ENDBRANCH   1  24
TORSDOF 8
