REMARK  Name = ZINC38062087
REMARK  5 active torsions:
REMARK  status: ('A' for Active; 'I' for Inactive)
REMARK    1  A    between atoms: C_1  and  C_2
REMARK    2  A    between atoms: C_6  and  N_14
REMARK    3  A    between atoms: C_7  and  N_11
REMARK    4  A    between atoms: N_14  and  C_15
REMARK    5  A    between atoms: C_15  and  C_16
REMARK                            x       y       z     vdW  Elec       q    Type
REMARK                         _______ _______ _______ _____ _____    ______ ____
ROOT
ATOM      1  C   UNL     1      -0.040   1.475   0.534  0.00  0.00    +0.073 C 
ATOM      2  C   UNL     1      -0.016  -0.020   0.341  0.00  0.00    +0.076 A 
ATOM      3  N   UNL     1      -1.014  -0.851   0.421  0.00  0.00    -0.244 NA
ATOM      4  C   UNL     1      -0.862  -2.177   0.225  0.00  0.00    +0.080 A 
ATOM      5  C   UNL     1      -1.819  -3.212   0.273  0.00  0.00    +0.054 A 
ATOM      6  C   UNL     1      -1.447  -4.517   0.039  0.00  0.00    +0.060 A 
ATOM      7  C   UNL     1      -0.125  -4.851  -0.250  0.00  0.00    +0.148 A 
ATOM      8  C   UNL     1       0.832  -3.856  -0.303  0.00  0.00    +0.051 A 
ATOM      9  C   UNL     1       0.467  -2.552  -0.071  0.00  0.00    +0.041 A 
ATOM     10  S   UNL     1       1.307  -0.990  -0.037  0.00  0.00    -0.072 S 
ENDROOT
BRANCH   7  11
ATOM     11  N   UNL     1       0.251  -6.261  -0.497  0.00  0.00    +0.058 N 
ATOM     12  O   UNL     1       1.310  -6.684  -0.094  0.00  0.00    -0.126 OA
ATOM     13  O   UNL     1      -0.500  -6.990  -1.102  0.00  0.00    -0.126 OA
ENDBRANCH   7  11
BRANCH   6  14
ATOM     14  N   UNL     1      -2.414  -5.527   0.092  0.00  0.00    -0.339 N 
ATOM     15  H   UNL     1      -2.149  -6.457   0.014  0.00  0.00    +0.146 HD
BRANCH  14  16
ATOM     16  C   UNL     1      -3.827  -5.180   0.266  0.00  0.00    +0.135 C 
BRANCH  16  17
ATOM     17  C   UNL     1      -4.667  -6.458   0.291  0.00  0.00    +0.161 C 
ATOM     18  C   UNL     1      -6.144  -6.097   0.470  0.00  0.00    +0.193 C 
ATOM     19  O   UNL     1      -6.933  -7.287   0.380  0.00  0.00    -0.375 OA
ATOM     20  C   UNL     1      -6.768  -7.992  -0.854  0.00  0.00    +0.188 C 
ATOM     21  C   UNL     1      -5.290  -8.354  -1.032  0.00  0.00    +0.188 C 
ATOM     22  O   UNL     1      -4.500  -7.164  -0.942  0.00  0.00    -0.370 OA
ENDBRANCH  16  17
ENDBRANCH  14  16
ENDBRANCH   6  14
TORSDOF 4
