REMARK  Name = ZINC08384888
REMARK  7 active torsions:
REMARK  status: ('A' for Active; 'I' for Inactive)
REMARK    1  A    between atoms: C_1  and  C_2
REMARK    2  A    between atoms: C_5  and  C_8
REMARK    3  A    between atoms: N_12  and  N_13
REMARK    4  A    between atoms: C_14  and  C_15
REMARK    5  A    between atoms: C_18  and  O_23
REMARK    6  A    between atoms: C_20  and  O_21
REMARK    7  A    between atoms: O_23  and  C_24
REMARK                            x       y       z     vdW  Elec       q    Type
REMARK                         _______ _______ _______ _____ _____    ______ ____
ROOT
ATOM      1  C   UNL     1       0.298  -4.270  -0.014  0.00  0.00    +0.184 A 
ATOM      2  N   UNL     1       0.251  -5.022  -1.078  0.00  0.00    -0.152 NA
ATOM      3  N   UNL     1       0.004  -6.340  -0.668  0.00  0.00    -0.253 N 
ATOM      4  C   UNL     1      -0.091  -6.335   0.678  0.00  0.00    +0.197 A 
ATOM      5  N   UNL     1       0.093  -5.066   1.096  0.00  0.00    -0.188 N 
ATOM      6  S   UNL     1      -0.388  -7.694   1.675  0.00  0.00    -0.010 S 
ATOM      7  H   UNL     1      -0.081  -7.114  -1.246  0.00  0.00    +0.191 HD
ENDROOT
BRANCH   1  12
ATOM      8  C   UNL     1       1.229   1.410   0.050  0.00  0.00    +0.044 C 
ATOM      9  C   UNL     1       0.986  -0.077   0.033  0.00  0.00    -0.050 A 
ATOM     10  C   UNL     1       0.955  -0.757  -1.172  0.00  0.00    +0.004 A 
ATOM     11  C   UNL     1       0.732  -2.118  -1.194  0.00  0.00    +0.012 A 
ATOM     12  C   UNL     1       0.538  -2.810   0.003  0.00  0.00    +0.021 A 
ATOM     13  C   UNL     1       0.571  -2.119   1.214  0.00  0.00    +0.012 A 
ATOM     14  C   UNL     1       0.799  -0.758   1.223  0.00  0.00    +0.004 A 
ENDBRANCH   1  12
BRANCH   5  15
ATOM     15  N   UNL     1       0.075  -4.631   2.427  0.00  0.00    -0.170 NA
ATOM     16  C   UNL     1      -0.007  -5.496   3.393  0.00  0.00    +0.145 C 
BRANCH  16  17
ATOM     17  C   UNL     1      -0.117  -5.035   4.787  0.00  0.00    +0.039 A 
ATOM     18  C   UNL     1      -0.200  -5.963   5.829  0.00  0.00    +0.032 A 
ATOM     19  C   UNL     1      -0.303  -5.528   7.132  0.00  0.00    +0.061 A 
ATOM     20  C   UNL     1      -0.326  -4.166   7.415  0.00  0.00    +0.151 A 
ATOM     21  C   UNL     1      -0.245  -3.237   6.388  0.00  0.00    +0.102 A 
ATOM     22  C   UNL     1      -0.135  -3.662   5.075  0.00  0.00    +0.143 A 
ATOM     23 BR   UNL     1      -0.277  -1.388   6.783  0.00  0.00    -0.043 Br
ATOM     24 BR   UNL     1      -0.415  -6.785   8.540  0.00  0.00    -0.046 Br
BRANCH  22  25
ATOM     25  O   UNL     1      -0.049  -2.754   4.069  0.00  0.00    -0.505 OA
ATOM     26  H   UNL     1      -0.905  -2.487   3.707  0.00  0.00    +0.292 HD
ENDBRANCH  22  25
BRANCH  20  27
ATOM     27  O   UNL     1      -0.429  -3.745   8.703  0.00  0.00    -0.493 OA
ATOM     28  C   UNL     1       0.791  -3.543   9.419  0.00  0.00    +0.277 C 
ENDBRANCH  20  27
ENDBRANCH  16  17
ENDBRANCH   5  15
TORSDOF 5
