REMARK  Name = ZINC36585887
REMARK  10 active torsions:
REMARK  status: ('A' for Active; 'I' for Inactive)
REMARK    1  A    between atoms: C_1  and  C_2
REMARK    2  A    between atoms: C_2  and  C_3
REMARK    3  A    between atoms: C_2  and  C_4
REMARK    4  A    between atoms: C_2  and  N_5
REMARK    5  A    between atoms: N_5  and  C_6
REMARK    6  A    between atoms: C_6  and  C_8
REMARK    7  A    between atoms: C_6  and  C_14
REMARK    8  A    between atoms: N_16  and  C_17
REMARK    9  A    between atoms: C_23  and  C_25
REMARK   10  A    between atoms: C_27  and  N_32
REMARK                            x       y       z     vdW  Elec       q    Type
REMARK                         _______ _______ _______ _____ _____    ______ ____
ROOT
ATOM      1  N   UNL     1      -2.132  -2.160   1.642  0.00  0.00    -0.277 N 
ATOM      2  C   UNL     1      -1.823  -3.020   2.632  0.00  0.00    +0.252 C 
ATOM      3  O   UNL     1      -0.947  -2.743   3.428  0.00  0.00    -0.270 OA
ENDROOT
BRANCH   2   4
ATOM      4  C   UNL     1      -2.550  -4.299   2.752  0.00  0.00    +0.086 A 
ATOM      5  C   UNL     1      -3.065  -4.923   1.613  0.00  0.00    +0.049 A 
ATOM      6  C   UNL     1      -3.743  -6.117   1.732  0.00  0.00    +0.127 A 
ATOM      7  C   UNL     1      -3.916  -6.702   2.975  0.00  0.00    +0.036 A 
ATOM      8  C   UNL     1      -3.412  -6.096   4.109  0.00  0.00    +0.054 A 
ATOM      9  C   UNL     1      -2.722  -4.897   4.007  0.00  0.00    +0.191 A 
ATOM     10  O   UNL     1      -2.221  -4.303   5.119  0.00  0.00    -0.287 OA
BRANCH   6  11
ATOM     11  N   UNL     1      -4.289  -6.777   0.524  0.00  0.00    +0.056 N 
ATOM     12  O   UNL     1      -4.061  -6.318  -0.571  0.00  0.00    -0.126 OA
ATOM     13  O   UNL     1      -4.963  -7.775   0.634  0.00  0.00    -0.126 OA
ENDBRANCH   6  11
ENDBRANCH   2   4
BRANCH   1  15
ATOM     14  C   UNL     1      -3.651  -1.308  -0.074  0.00  0.00    +0.031 C 
ATOM     15  C   UNL     1      -3.075  -2.558   0.594  0.00  0.00    +0.030 C 
ATOM     16  C   UNL     1      -4.211  -3.375   1.213  0.00  0.00    +0.031 C 
ATOM     17  C   UNL     1      -2.348  -3.405  -0.452  0.00  0.00    +0.031 C 
ENDBRANCH   1  15
BRANCH   1  18
ATOM     18  C   UNL     1      -1.524  -0.827   1.613  0.00  0.00    +0.193 C 
BRANCH  18  19
ATOM     19  C   UNL     1      -2.068  -0.003   2.751  0.00  0.00    -0.018 A 
ATOM     20  C   UNL     1      -3.416  -0.048   3.055  0.00  0.00    +0.006 A 
ATOM     21  C   UNL     1      -3.914   0.709   4.099  0.00  0.00    +0.000 A 
ATOM     22  C   UNL     1      -3.065   1.510   4.839  0.00  0.00    +0.000 A 
ATOM     23  C   UNL     1      -1.718   1.555   4.536  0.00  0.00    +0.000 A 
ATOM     24  C   UNL     1      -1.218   0.795   3.495  0.00  0.00    +0.006 A 
ENDBRANCH  18  19
BRANCH  18  25
ATOM     25  C   UNL     1      -0.029  -0.954   1.754  0.00  0.00    +0.238 C 
ATOM     26  O   UNL     1       0.472  -2.041   1.953  0.00  0.00    -0.273 OA
ATOM     27  N   UNL     1       0.752   0.140   1.660  0.00  0.00    -0.311 N 
ATOM     28  H   UNL     1       0.352   1.009   1.501  0.00  0.00    +0.149 HD
BRANCH  27  29
ATOM     29  C   UNL     1       2.206   0.017   1.797  0.00  0.00    +0.073 C 
ATOM     30  C   UNL     1       2.583   0.055   3.280  0.00  0.00    +0.022 C 
ATOM     31  C   UNL     1       4.101  -0.073   3.423  0.00  0.00    +0.002 C 
ATOM     32  C   UNL     1       4.782   1.086   2.693  0.00  0.00    +0.000 C 
ATOM     33  C   UNL     1       4.405   1.047   1.211  0.00  0.00    +0.002 C 
ATOM     34  C   UNL     1       2.887   1.176   1.067  0.00  0.00    +0.022 C 
ENDBRANCH  27  29
ENDBRANCH  18  25
ENDBRANCH   1  18
TORSDOF 7
