REMARK  Name = ZINC63083833
REMARK  6 active torsions:
REMARK  status: ('A' for Active; 'I' for Inactive)
REMARK    1  A    between atoms: C_1  and  O_2
REMARK    2  A    between atoms: O_2  and  C_3
REMARK    3  A    between atoms: C_6  and  C_9
REMARK    4  A    between atoms: C_11  and  S_16
REMARK    5  A    between atoms: S_16  and  C_17
REMARK    6  A    between atoms: C_19  and  C_30
REMARK                            x       y       z     vdW  Elec       q    Type
REMARK                         _______ _______ _______ _____ _____    ______ ____
ROOT
ATOM      1  C   UNL     1       5.165  -2.525   8.708  0.00  0.00    +0.171 C 
ATOM      2  C   UNL     1       5.969  -1.700   9.695  0.00  0.00    -0.009 C 
ATOM      3  C   UNL     1       5.614  -1.801  11.043  0.00  0.00    +0.003 A 
ATOM      4  C   UNL     1       6.309  -1.068  12.028  0.00  0.00    +0.030 A 
ATOM      5  C   UNL     1       5.942  -1.185  13.334  0.00  0.00    +0.042 A 
ATOM      6  C   UNL     1       4.892  -2.017  13.720  0.00  0.00    +0.022 A 
ATOM      7  C   UNL     1       4.185  -2.748  12.815  0.00  0.00    +0.025 A 
ATOM      8  C   UNL     1       4.508  -2.676  11.448  0.00  0.00    +0.041 A 
ATOM      9  N   UNL     1       3.812  -3.395  10.561  0.00  0.00    -0.284 N 
ATOM     10  C   UNL     1       4.053  -3.383   9.265  0.00  0.00    +0.235 C 
ATOM     11  O   UNL     1       3.377  -4.064   8.516  0.00  0.00    -0.274 OA
ATOM     12 CL   UNL     1       6.801  -0.282  14.542  0.00  0.00    -0.084 Cl
ATOM     13  H   UNL     1       3.091  -3.955  10.889  0.00  0.00    +0.155 HD
ENDROOT
BRANCH   2  14
ATOM     14  C   UNL     1       7.032  -0.865   9.270  0.00  0.00    -0.020 A 
ATOM     15  C   UNL     1       8.177  -1.423   8.677  0.00  0.00    +0.008 A 
ATOM     16  C   UNL     1       9.204  -0.603   8.268  0.00  0.00    +0.001 A 
ATOM     17  C   UNL     1       9.111   0.769   8.438  0.00  0.00    +0.000 A 
ATOM     18  C   UNL     1       7.987   1.330   9.021  0.00  0.00    +0.001 A 
ATOM     19  C   UNL     1       6.946   0.528   9.433  0.00  0.00    +0.008 A 
ENDBRANCH   2  14
BRANCH   1  20
ATOM     20  S   UNL     1       4.439  -1.389   7.494  0.00  0.00    -0.071 S 
BRANCH  20  23
ATOM     21  C   UNL     1       2.605  -2.586   4.258  0.00  0.00    +0.060 C 
ATOM     22  N   UNL     1       3.146  -1.883   5.228  0.00  0.00    -0.228 NA
ATOM     23  C   UNL     1       3.759  -2.455   6.267  0.00  0.00    +0.182 C 
ATOM     24  N   UNL     1       3.895  -3.757   6.448  0.00  0.00    -0.155 NA
ATOM     25  C   UNL     1       3.415  -4.644   5.576  0.00  0.00    +0.244 C 
ATOM     26  O   UNL     1       3.547  -5.840   5.752  0.00  0.00    -0.273 OA
ATOM     27  C   UNL     1       2.693  -4.098   4.358  0.00  0.00    +0.154 C 
BRANCH  21  31
ATOM     28  C   UNL     1       0.679  -0.709   0.995  0.00  0.00    +0.120 A 
ATOM     29  C   UNL     1       1.247   0.064   2.003  0.00  0.00    +0.046 A 
ATOM     30  C   UNL     1       1.870  -0.537   3.059  0.00  0.00    +0.013 A 
ATOM     31  C   UNL     1       1.937  -1.936   3.127  0.00  0.00    -0.003 A 
ATOM     32  C   UNL     1       1.364  -2.710   2.109  0.00  0.00    +0.013 A 
ATOM     33  C   UNL     1       0.738  -2.098   1.060  0.00  0.00    +0.046 A 
BRANCH  28  35
ATOM     34  C   UNL     1       0.037   1.321  -0.056  0.00  0.00    +0.277 C 
ATOM     35  O   UNL     1       0.062  -0.107  -0.052  0.00  0.00    -0.495 OA
ENDBRANCH  28  35
ENDBRANCH  21  31
ENDBRANCH  20  23
ENDBRANCH   1  20
TORSDOF 5
