REMARK  Name = ZINC63870649
REMARK  5 active torsions:
REMARK  status: ('A' for Active; 'I' for Inactive)
REMARK    1  A    between atoms: C_1  and  C_2
REMARK    2  A    between atoms: C_8  and  C_10
REMARK    3  A    between atoms: C_25  and  C_27
REMARK    4  A    between atoms: C_27  and  C_28
REMARK    5  A    between atoms: C_27  and  C_29
REMARK                            x       y       z     vdW  Elec       q    Type
REMARK                         _______ _______ _______ _____ _____    ______ ____
ROOT
ATOM      1  C   UNL     1      -3.371  -4.927  -0.635  0.00  0.00    +0.302 C 
ATOM      2  O   UNL     1      -3.091  -6.087  -0.856  0.00  0.00    -0.265 OA
ATOM      3  N   UNL     1      -4.626  -4.594  -0.272  0.00  0.00    -0.288 N 
ATOM      4  C   UNL     1      -4.997  -3.180  -0.158  0.00  0.00    +0.113 C 
ATOM      5  C   UNL     1      -5.508  -2.898   1.267  0.00  0.00    +0.052 C 
ATOM      6  C   UNL     1      -6.460  -4.016   1.614  0.00  0.00    -0.035 C 
ATOM      7  C   UNL     1      -7.706  -3.998   2.071  0.00  0.00    -0.001 A 
ATOM      8  C   UNL     1      -8.573  -2.892   2.507  0.00  0.00    +0.010 A 
ATOM      9  C   UNL     1      -9.827  -3.235   2.906  0.00  0.00    +0.001 A 
ATOM     10  C   UNL     1     -10.299  -4.551   2.913  0.00  0.00    +0.002 A 
ATOM     11  C   UNL     1      -9.567  -5.630   2.537  0.00  0.00    +0.026 A 
ATOM     12  C   UNL     1      -8.229  -5.397   2.105  0.00  0.00    +0.043 A 
ATOM     13  N   UNL     1      -7.312  -6.235   1.718  0.00  0.00    -0.376 N 
ATOM     14  C   UNL     1      -6.085  -5.484   1.451  0.00  0.00    +0.127 C 
ATOM     15  C   UNL     1      -5.611  -5.653  -0.001  0.00  0.00    +0.105 C 
ATOM     16  H   UNL     1      -7.424  -7.193   1.622  0.00  0.00    +0.160 HD
ENDROOT
BRANCH   1  24
ATOM     17  C   UNL     1       1.145   0.270  -1.150  0.00  0.00    +0.089 C 
ATOM     18  C   UNL     1       0.903  -1.217  -1.211  0.00  0.00    +0.136 A 
ATOM     19  C   UNL     1      -0.278  -1.832  -1.022  0.00  0.00    +0.091 A 
ATOM     20  C   UNL     1      -0.076  -3.223  -1.164  0.00  0.00    +0.168 A 
ATOM     21  N   UNL     1       1.190  -3.420  -1.430  0.00  0.00    -0.063 NA
ATOM     22  O   UNL     1       1.827  -2.155  -1.468  0.00  0.00    -0.358 OA
ATOM     23  N   UNL     1      -1.052  -4.210  -1.043  0.00  0.00    -0.260 N 
ATOM     24  C   UNL     1      -2.325  -3.869  -0.765  0.00  0.00    +0.304 C 
ATOM     25  O   UNL     1      -2.623  -2.701  -0.620  0.00  0.00    -0.265 OA
ATOM     26  H   UNL     1      -0.814  -5.144  -1.159  0.00  0.00    +0.157 HD
ENDBRANCH   1  24
BRANCH  15  27
ATOM     27  C   UNL     1      -6.797  -5.515  -0.957  0.00  0.00    +0.006 C 
ATOM     28  C   UNL     1      -6.289  -5.487  -2.400  0.00  0.00    +0.009 C 
ATOM     29  C   UNL     1      -7.743  -6.704  -0.771  0.00  0.00    +0.009 C 
ENDBRANCH  15  27
TORSDOF 2
