REMARK  Name = ZINC63733014
REMARK  9 active torsions:
REMARK  status: ('A' for Active; 'I' for Inactive)
REMARK    1  A    between atoms: C_1  and  N_2
REMARK    2  A    between atoms: C_6  and  S_25
REMARK    3  A    between atoms: C_10  and  C_11
REMARK    4  A    between atoms: C_11  and  C_12
REMARK    5  A    between atoms: C_12  and  C_13
REMARK    6  A    between atoms: N_15  and  C_16
REMARK    7  A    between atoms: S_25  and  N_28
REMARK    8  A    between atoms: N_28  and  C_29
REMARK    9  A    between atoms: N_28  and  C_30
REMARK                            x       y       z     vdW  Elec       q    Type
REMARK                         _______ _______ _______ _____ _____    ______ ____
ROOT
ATOM      1  C   UNL     1       0.031  -0.341   2.523  0.00  0.00    +0.083 C 
ENDROOT
BRANCH   1  11
ATOM      2  C   UNL     1      -0.018   1.461   0.010  0.00  0.00    +0.150 C 
ATOM      3  N   UNL     1       0.002  -0.004   0.002  0.00  0.00    -0.331 N 
ATOM      4  C   UNL     1       0.009  -0.816  -1.114  0.00  0.00    +0.069 A 
ATOM      5  C   UNL     1      -0.000  -0.579  -2.482  0.00  0.00    +0.030 A 
ATOM      6  C   UNL     1       0.011  -1.643  -3.360  0.00  0.00    +0.030 A 
ATOM      7  C   UNL     1       0.030  -2.946  -2.884  0.00  0.00    +0.108 A 
ATOM      8  C   UNL     1       0.038  -3.199  -1.542  0.00  0.00    +0.058 A 
ATOM      9  C   UNL     1       0.028  -2.136  -0.634  0.00  0.00    +0.091 A 
ATOM     10  N   UNL     1       0.033  -2.063   0.722  0.00  0.00    -0.232 NA
ATOM     11  C   UNL     1       0.024  -0.816   1.093  0.00  0.00    +0.111 A 
BRANCH   7  12
ATOM     12  S   UNL     1       0.043  -4.290  -4.024  0.00  0.00    +0.060 S 
ATOM     13  O   UNL     1      -0.490  -5.413  -3.334  0.00  0.00    -0.153 OA
ATOM     14  O   UNL     1      -0.519  -3.802  -5.234  0.00  0.00    -0.153 OA
BRANCH  12  15
ATOM     15  N   UNL     1       1.628  -4.643  -4.347  0.00  0.00    -0.183 NA
ATOM     16  C   UNL     1       2.344  -5.619  -3.522  0.00  0.00    +0.131 C 
ATOM     17  C   UNL     1       2.315  -3.978  -5.457  0.00  0.00    +0.131 C 
ENDBRANCH  12  15
ENDBRANCH   7  12
ENDBRANCH   1  11
BRANCH   1  18
ATOM     18  C   UNL     1      -1.408  -0.199   3.021  0.00  0.00    +0.103 C 
BRANCH  18  19
ATOM     19  C   UNL     1      -1.400   0.277   4.451  0.00  0.00    +0.216 C 
ATOM     20  O   UNL     1      -0.347   0.482   5.016  0.00  0.00    -0.276 OA
ATOM     21  N   UNL     1      -2.564   0.474   5.102  0.00  0.00    -0.278 N 
ATOM     22  H   UNL     1      -3.406   0.310   4.650  0.00  0.00    +0.152 HD
BRANCH  21  23
ATOM     23  C   UNL     1      -2.556   0.936   6.492  0.00  0.00    +0.269 C 
ATOM     24  N   UNL     1      -2.247  -0.181   7.393  0.00  0.00    -0.348 N 
ATOM     25  C   UNL     1      -3.265  -0.333   8.191  0.00  0.00    +0.061 A 
ATOM     26  C   UNL     1      -3.543  -1.269   9.289  0.00  0.00    +0.027 A 
ATOM     27  C   UNL     1      -4.713  -1.187   9.953  0.00  0.00    +0.002 A 
ATOM     28  C   UNL     1      -5.696  -0.231   9.640  0.00  0.00    +0.002 A 
ATOM     29  C   UNL     1      -5.543   0.673   8.653  0.00  0.00    +0.027 A 
ATOM     30  C   UNL     1      -4.306   0.679   7.860  0.00  0.00    +0.061 A 
ATOM     31  N   UNL     1      -3.891   1.417   6.871  0.00  0.00    -0.348 N 
ATOM     32  H   UNL     1      -1.434  -0.710   7.394  0.00  0.00    +0.163 HD
ATOM     33  H   UNL     1      -4.375   2.150   6.460  0.00  0.00    +0.163 HD
ENDBRANCH  21  23
ENDBRANCH  18  19
ENDBRANCH   1  18
TORSDOF 6
