REMARK  Name = ZINC43462938
REMARK  5 active torsions:
REMARK  status: ('A' for Active; 'I' for Inactive)
REMARK    1  A    between atoms: C_1  and  C_2
REMARK    2  A    between atoms: C_2  and  N_3
REMARK    3  A    between atoms: C_5  and  C_8
REMARK    4  A    between atoms: C_8  and  O_16
REMARK    5  A    between atoms: C_12  and  C_15
REMARK                            x       y       z     vdW  Elec       q    Type
REMARK                         _______ _______ _______ _____ _____    ______ ____
ROOT
ATOM      1  C   UNL     1       1.107  -1.766   4.440  0.00  0.00    +0.094 C 
ATOM      2  C   UNL     1       1.482  -3.056   3.709  0.00  0.00    +0.040 C 
ATOM      3  C   UNL     1       1.302  -4.247   4.652  0.00  0.00    +0.003 C 
ATOM      4  C   UNL     1       2.206  -4.071   5.874  0.00  0.00    +0.003 C 
ATOM      5  C   UNL     1       1.831  -2.781   6.605  0.00  0.00    -0.011 C 
ATOM      6  C   UNL     1       2.011  -1.590   5.662  0.00  0.00    +0.043 C 
ATOM      7  C   UNL     1       0.371  -2.857   7.057  0.00  0.00    +0.007 C 
ENDROOT
BRANCH   1  10
ATOM      8  N   UNL     1       0.894   0.958   2.024  0.00  0.00    -0.271 N 
ATOM      9  C   UNL     1       0.343  -0.083   2.683  0.00  0.00    +0.114 A 
ATOM     10  C   UNL     1       1.284  -0.592   3.511  0.00  0.00    +0.021 A 
ATOM     11  C   UNL     1       2.450   0.163   3.352  0.00  0.00    +0.140 A 
ATOM     12  N   UNL     1       2.220   1.089   2.457  0.00  0.00    -0.179 NA
BRANCH   8  14
ATOM     13  C   UNL     1       0.334   3.267   1.443  0.00  0.00    +0.029 C 
ATOM     14  C   UNL     1       0.226   1.798   1.028  0.00  0.00    +0.140 C 
ENDBRANCH   8  14
ENDBRANCH   1  10
BRANCH   1  15
ATOM     15  O   UNL     1      -0.257  -1.837   4.862  0.00  0.00    -0.384 OA
ATOM     16  H   UNL     1      -0.887  -1.948   4.138  0.00  0.00    +0.211 HD
ENDBRANCH   1  15
TORSDOF 3
