REMARK  Name = ZINC50986395
REMARK  4 active torsions:
REMARK  status: ('A' for Active; 'I' for Inactive)
REMARK    1  A    between atoms: C_1  and  C_2
REMARK    2  A    between atoms: C_2  and  N_3
REMARK    3  A    between atoms: C_4  and  C_20
REMARK    4  A    between atoms: C_6  and  C_9
REMARK                            x       y       z     vdW  Elec       q    Type
REMARK                         _______ _______ _______ _____ _____    ______ ____
ROOT
ATOM      1  N   UNL     1       0.711  -0.489   1.189  0.00  0.00    -0.279 N 
ATOM      2  C   UNL     1       0.125  -0.765   2.392  0.00  0.00    +0.073 C 
ATOM      3  N   UNL     1       0.957  -1.179   3.281  0.00  0.00    -0.363 N 
ATOM      4  C   UNL     1       2.297  -1.213   2.675  0.00  0.00    +0.172 C 
ATOM      5  C   UNL     1       2.065  -0.740   1.253  0.00  0.00    +0.101 C 
ATOM      6  N   UNL     1       2.940  -0.600   0.313  0.00  0.00    -0.388 N 
ATOM      7  C   UNL     1      -1.351  -0.601   2.652  0.00  0.00    +0.081 C 
ATOM      8  H   UNL     1       2.666  -0.284  -0.562  0.00  0.00    +0.157 HD
ATOM      9  H   UNL     1       3.872  -0.811   0.482  0.00  0.00    +0.157 HD
ATOM     10  H   UNL     1       0.739  -1.425   4.194  0.00  0.00    +0.162 HD
ENDROOT
BRANCH   4  11
ATOM     11  C   UNL     1       3.230  -0.280   3.403  0.00  0.00    -0.013 A 
ATOM     12  C   UNL     1       4.547  -0.644   3.610  0.00  0.00    +0.055 A 
ATOM     13  C   UNL     1       5.409   0.212   4.279  0.00  0.00    +0.164 A 
ATOM     14  C   UNL     1       4.945   1.440   4.738  0.00  0.00    +0.176 A 
ATOM     15  C   UNL     1       3.622   1.799   4.527  0.00  0.00    +0.063 A 
ATOM     16  C   UNL     1       2.769   0.942   3.856  0.00  0.00    +0.025 A 
ATOM     17 BR   UNL     1       2.985   3.466   5.154  0.00  0.00    -0.046 Br
ATOM     18  O   UNL     1       5.776   2.299   5.389  0.00  0.00    -0.484 OA
ATOM     19  C   UNL     1       6.992   1.749   5.908  0.00  0.00    +0.270 C 
ATOM     20  C   UNL     1       7.628   0.875   4.819  0.00  0.00    +0.270 C 
ATOM     21  O   UNL     1       6.702  -0.163   4.479  0.00  0.00    -0.485 OA
ENDBRANCH   4  11
BRANCH   1  23
ATOM     22  C   UNL     1      -0.019   1.526   0.010  0.00  0.00    +0.025 C 
ATOM     23  C   UNL     1       0.002  -0.004   0.002  0.00  0.00    +0.110 C 
ENDBRANCH   1  23
TORSDOF 2
