REMARK  Name = ZINC07028375
REMARK  7 active torsions:
REMARK  status: ('A' for Active; 'I' for Inactive)
REMARK    1  A    between atoms: C_1  and  N_2
REMARK    2  A    between atoms: C_6  and  C_8
REMARK    3  A    between atoms: C_8  and  C_10
REMARK    4  A    between atoms: C_8  and  O_16
REMARK    5  A    between atoms: O_16  and  C_17
REMARK    6  A    between atoms: C_17  and  C_19
REMARK    7  A    between atoms: C_21  and  C_25
REMARK                            x       y       z     vdW  Elec       q    Type
REMARK                         _______ _______ _______ _____ _____    ______ ____
ROOT
ATOM      1  C   UNL     1      -3.902   5.033   0.068  0.00  0.00    +0.293 C 
ENDROOT
BRANCH   1   7
ATOM      2  C   UNL     1      -9.458   6.002  -2.333  0.00  0.00    +0.129 C 
ATOM      3  N   UNL     1      -8.201   6.325  -1.653  0.00  0.00    -0.302 N 
ATOM      4  C   UNL     1      -7.276   5.365  -1.456  0.00  0.00    +0.306 C 
ATOM      5  O   UNL     1      -7.484   4.231  -1.842  0.00  0.00    -0.252 OA
ATOM      6  N   UNL     1      -6.120   5.661  -0.830  0.00  0.00    -0.237 N 
ATOM      7  C   UNL     1      -5.195   4.702  -0.632  0.00  0.00    +0.266 C 
ATOM      8  O   UNL     1      -5.403   3.571  -1.018  0.00  0.00    -0.271 OA
ATOM      9  H   UNL     1      -8.035   7.229  -1.344  0.00  0.00    +0.150 HD
ATOM     10  H   UNL     1      -5.954   6.566  -0.521  0.00  0.00    +0.159 HD
ENDBRANCH   1   7
BRANCH   1  11
ATOM     11  C   UNL     1      -4.190   5.427   1.494  0.00  0.00    +0.002 A 
ATOM     12  C   UNL     1      -4.319   4.453   2.467  0.00  0.00    +0.008 A 
ATOM     13  C   UNL     1      -4.579   4.814   3.776  0.00  0.00    +0.000 A 
ATOM     14  C   UNL     1      -4.719   6.148   4.110  0.00  0.00    +0.000 A 
ATOM     15  C   UNL     1      -4.594   7.122   3.136  0.00  0.00    +0.000 A 
ATOM     16  C   UNL     1      -4.330   6.761   1.828  0.00  0.00    +0.008 A 
ENDBRANCH   1  11
BRANCH   1  17
ATOM     17  O   UNL     1      -3.032   3.872   0.052  0.00  0.00    -0.442 OA
BRANCH  17  18
ATOM     18  C   UNL     1      -1.704   4.102   0.041  0.00  0.00    +0.361 C 
ATOM     19  O   UNL     1      -1.286   5.243   0.044  0.00  0.00    -0.243 OA
BRANCH  18  20
ATOM     20  C   UNL     1      -0.758   2.969   0.025  0.00  0.00    +0.170 A 
ATOM     21  C   UNL     1       0.651   3.056   0.012  0.00  0.00    +0.064 A 
ATOM     22  C   UNL     1       1.095   1.763   0.001  0.00  0.00    +0.067 A 
ATOM     23  N   UNL     1      -0.011   0.966   0.007  0.00  0.00    -0.276 N 
ATOM     24  H   UNL     1       0.003  -0.034   0.006  0.00  0.00    +0.189 HD
ATOM     25  N   UNL     1      -1.073   1.688   0.016  0.00  0.00    -0.167 NA
BRANCH  22  26
ATOM     26  C   UNL     1       2.506   1.315  -0.014  0.00  0.00    -0.000 A 
ATOM     27  C   UNL     1       3.538   2.253  -0.024  0.00  0.00    +0.010 A 
ATOM     28  C   UNL     1       4.851   1.829  -0.032  0.00  0.00    +0.001 A 
ATOM     29  C   UNL     1       5.144   0.477  -0.042  0.00  0.00    +0.000 A 
ATOM     30  C   UNL     1       4.125  -0.458  -0.038  0.00  0.00    +0.001 A 
ATOM     31  C   UNL     1       2.808  -0.047  -0.024  0.00  0.00    +0.010 A 
ENDBRANCH  22  26
ENDBRANCH  18  20
ENDBRANCH  17  18
ENDBRANCH   1  17
TORSDOF 6
