REMARK  Name = ZINC20114729
REMARK  9 active torsions:
REMARK  status: ('A' for Active; 'I' for Inactive)
REMARK    1  A    between atoms: C_1  and  C_2
REMARK    2  A    between atoms: C_2  and  S_3
REMARK    3  A    between atoms: S_3  and  C_4
REMARK    4  A    between atoms: C_12  and  C_13
REMARK    5  A    between atoms: C_15  and  C_27
REMARK    6  A    between atoms: N_16  and  C_19
REMARK    7  A    between atoms: C_17  and  C_18
REMARK    8  A    between atoms: C_22  and  O_25
REMARK    9  A    between atoms: O_25  and  C_26
REMARK                            x       y       z     vdW  Elec       q    Type
REMARK                         _______ _______ _______ _____ _____    ______ ____
ROOT
ATOM      1  C   UNL     1      -2.143  -2.721   1.654  0.00  0.00    +0.175 C 
ATOM      2  N   UNL     1      -1.308  -3.373   2.415  0.00  0.00    -0.185 NA
ATOM      3  S   UNL     1      -2.128  -4.777   2.821  0.00  0.00    +0.048 S 
ATOM      4  C   UNL     1      -3.533  -4.533   1.959  0.00  0.00    +0.183 C 
ATOM      5  N   UNL     1      -4.584  -5.310   1.813  0.00  0.00    -0.152 NA
ATOM      6  C   UNL     1      -5.587  -4.922   1.002  0.00  0.00    +0.273 C 
ATOM      7  O   UNL     1      -6.628  -5.557   0.950  0.00  0.00    -0.268 OA
ATOM      8  C   UNL     1      -5.396  -3.707   0.175  0.00  0.00    +0.078 C 
ATOM      9  C   UNL     1      -6.081  -3.516  -1.007  0.00  0.00    +0.026 C 
ATOM     10  C   UNL     1      -4.424  -2.703   0.692  0.00  0.00    +0.116 C 
ATOM     11  N   UNL     1      -4.550  -1.417   0.501  0.00  0.00    -0.386 N 
ATOM     12  N   UNL     1      -3.357  -3.278   1.411  0.00  0.00    -0.212 N 
ATOM     13  H   UNL     1      -5.306  -1.072   0.001  0.00  0.00    +0.157 HD
ATOM     14  H   UNL     1      -3.887  -0.806   0.860  0.00  0.00    +0.157 HD
ENDROOT
BRANCH   9  15
ATOM     15  C   UNL     1      -6.895  -4.596  -1.562  0.00  0.00    -0.003 A 
ATOM     16  C   UNL     1      -6.633  -6.039  -1.472  0.00  0.00    +0.031 A 
ATOM     17  C   UNL     1      -7.638  -6.649  -2.122  0.00  0.00    +0.022 A 
ATOM     18  N   UNL     1      -8.499  -5.705  -2.607  0.00  0.00    -0.317 N 
ATOM     19  C   UNL     1      -8.075  -4.469  -2.277  0.00  0.00    +0.028 A 
ATOM     20  C   UNL     1      -8.762  -3.174  -2.628  0.00  0.00    +0.064 C 
ATOM     21  C   UNL     1      -7.791  -8.139  -2.290  0.00  0.00    +0.064 C 
BRANCH  18  22
ATOM     22  C   UNL     1      -9.662  -5.983  -3.339  0.00  0.00    +0.047 A 
ATOM     23  C   UNL     1      -9.761  -5.583  -4.665  0.00  0.00    +0.030 A 
ATOM     24  C   UNL     1     -10.906  -5.857  -5.386  0.00  0.00    +0.047 A 
ATOM     25  C   UNL     1     -11.959  -6.533  -4.785  0.00  0.00    +0.120 A 
ATOM     26  C   UNL     1     -11.861  -6.933  -3.460  0.00  0.00    +0.047 A 
ATOM     27  C   UNL     1     -10.714  -6.664  -2.740  0.00  0.00    +0.030 A 
BRANCH  25  28
ATOM     28  O   UNL     1     -13.086  -6.803  -5.495  0.00  0.00    -0.495 OA
ATOM     29  C   UNL     1     -14.130  -7.502  -4.813  0.00  0.00    +0.277 C 
ENDBRANCH  25  28
ENDBRANCH  18  22
ENDBRANCH   9  15
BRANCH   1  30
ATOM     30  S   UNL     1      -1.711  -1.158   0.967  0.00  0.00    -0.089 S 
BRANCH  30  32
ATOM     31  C   UNL     1       0.478   0.482   1.044  0.00  0.00    +0.016 C 
ATOM     32  C   UNL     1      -0.027  -0.862   1.574  0.00  0.00    +0.074 C 
ENDBRANCH  30  32
ENDBRANCH   1  30
TORSDOF 5
