REMARK  Name = ZINC39932128
REMARK  4 active torsions:
REMARK  status: ('A' for Active; 'I' for Inactive)
REMARK    1  A    between atoms: C_10  and  S_11
REMARK    2  A    between atoms: S_11  and  N_14
REMARK    3  A    between atoms: N_14  and  C_15
REMARK    4  A    between atoms: C_15  and  C_16
REMARK                            x       y       z     vdW  Elec       q    Type
REMARK                         _______ _______ _______ _____ _____    ______ ____
ROOT
ATOM      1  S   UNL     1      -1.527  -0.879   0.012  0.00  0.00    +0.059 S 
ATOM      2  O   UNL     1      -1.256  -2.165   0.553  0.00  0.00    -0.153 OA
ATOM      3  O   UNL     1      -2.493  -0.003   0.577  0.00  0.00    -0.153 OA
ENDROOT
BRANCH   1  13
ATOM      4  C   UNL     1      -0.018   1.454   0.010  0.00  0.00    +0.030 A 
ATOM      5  C   UNL     1       1.118   2.185   0.003  0.00  0.00    +0.027 A 
ATOM      6  C   UNL     1       2.412   1.507  -0.013  0.00  0.00    +0.056 A 
ATOM      7  N   UNL     1       3.661   1.900  -0.023  0.00  0.00    -0.268 N 
ATOM      8  C   UNL     1       4.467   0.786  -0.036  0.00  0.00    +0.308 C 
ATOM      9  O   UNL     1       5.679   0.802  -0.047  0.00  0.00    -0.252 OA
ATOM     10  N   UNL     1       3.692  -0.350  -0.035  0.00  0.00    -0.267 N 
ATOM     11  C   UNL     1       2.433   0.009  -0.021  0.00  0.00    +0.058 A 
ATOM     12  C   UNL     1       1.157  -0.704  -0.013  0.00  0.00    +0.053 A 
ATOM     13  C   UNL     1       0.002  -0.004   0.002  0.00  0.00    +0.107 A 
ATOM     14  H   UNL     1       4.021  -1.262  -0.043  0.00  0.00    +0.156 HD
ATOM     15  H   UNL     1       3.966   2.821  -0.021  0.00  0.00    +0.156 HD
ENDBRANCH   1  13
BRANCH   1  16
ATOM     16  N   UNL     1      -1.967  -1.114  -1.567  0.00  0.00    -0.186 NA
ATOM     17  H   UNL     1      -2.768  -0.691  -1.916  0.00  0.00    +0.148 HD
BRANCH  16  18
ATOM     18  C   UNL     1      -1.148  -1.960  -2.438  0.00  0.00    +0.141 C 
BRANCH  18  19
ATOM     19  C   UNL     1      -1.929  -2.311  -3.678  0.00  0.00    -0.027 A 
ATOM     20  C   UNL     1      -2.720  -3.446  -3.696  0.00  0.00    +0.054 A 
ATOM     21  C   UNL     1      -3.438  -3.765  -4.837  0.00  0.00    +0.164 A 
ATOM     22  C   UNL     1      -3.362  -2.949  -5.956  0.00  0.00    +0.180 A 
ATOM     23  C   UNL     1      -2.570  -1.813  -5.935  0.00  0.00    +0.086 A 
ATOM     24  C   UNL     1      -1.858  -1.494  -4.791  0.00  0.00    +0.029 A 
ATOM     25 CL   UNL     1      -2.474  -0.790  -7.335  0.00  0.00    -0.080 Cl
ATOM     26  O   UNL     1      -4.074  -3.272  -7.076  0.00  0.00    -0.487 OA
ATOM     27  C   UNL     1      -3.645  -4.444  -7.772  0.00  0.00    +0.232 C 
ATOM     28  C   UNL     1      -4.260  -5.691  -7.156  0.00  0.00    +0.082 C 
ATOM     29  C   UNL     1      -3.782  -5.930  -5.733  0.00  0.00    +0.232 C 
ATOM     30  O   UNL     1      -4.222  -4.881  -4.868  0.00  0.00    -0.488 OA
ENDBRANCH  18  19
ENDBRANCH  16  18
ENDBRANCH   1  16
TORSDOF 4
