REMARK  Name = ZINC50634905
REMARK  3 active torsions:
REMARK  status: ('A' for Active; 'I' for Inactive)
REMARK    1  A    between atoms: C_1  and  C_2
REMARK    2  A    between atoms: N_8  and  S_9
REMARK    3  A    between atoms: S_9  and  C_12
REMARK                            x       y       z     vdW  Elec       q    Type
REMARK                         _______ _______ _______ _____ _____    ______ ____
ROOT
ATOM      1  S   UNL     1       0.075  -4.876   1.468  0.00  0.00    +0.103 S 
ATOM      2  O   UNL     1       1.319  -4.577   2.085  0.00  0.00    -0.146 OA
ATOM      3  O   UNL     1      -1.171  -4.611   2.098  0.00  0.00    -0.146 OA
ENDROOT
BRANCH   1  11
ATOM      4  C   UNL     1      -0.018   1.503   0.010  0.00  0.00    +0.045 C 
ATOM      5  C   UNL     1       0.002  -0.004   0.002  0.00  0.00    -0.034 A 
ATOM      6  C   UNL     1       0.006  -0.696  -1.222  0.00  0.00    +0.008 A 
ATOM      7  C   UNL     1       0.024  -2.054  -1.226  0.00  0.00    +0.048 A 
ATOM      8  C   UNL     1       0.039  -2.750   0.006  0.00  0.00    +0.153 A 
ATOM      9  N   UNL     1       0.035  -2.044   1.185  0.00  0.00    -0.345 N 
ATOM     10  C   UNL     1       0.022  -0.681   1.169  0.00  0.00    +0.087 A 
ATOM     11  N   UNL     1       0.057  -4.067   0.023  0.00  0.00    -0.111 NA
ATOM     12  H   UNL     1       0.045  -2.517   2.031  0.00  0.00    +0.167 HD
ENDBRANCH   1  11
BRANCH   1  13
ATOM     13  C   UNL     1       0.096  -6.599   1.100  0.00  0.00    +0.149 A 
ATOM     14  C   UNL     1      -1.087  -7.306   0.952  0.00  0.00    +0.145 A 
ATOM     15  N   UNL     1      -1.036  -8.599   0.676  0.00  0.00    -0.221 NA
ATOM     16  C   UNL     1       0.128  -9.217   0.540  0.00  0.00    +0.213 A 
ATOM     17  N   UNL     1       1.276  -8.570   0.676  0.00  0.00    -0.221 NA
ATOM     18  C   UNL     1       1.296  -7.276   0.946  0.00  0.00    +0.145 A 
ATOM     19  N   UNL     1       0.144 -10.570   0.251  0.00  0.00    -0.327 N 
ATOM     20  H   UNL     1      -0.690 -11.055   0.150  0.00  0.00    +0.145 HD
ATOM     21  H   UNL     1       0.990 -11.034   0.150  0.00  0.00    +0.145 HD
ENDBRANCH   1  13
TORSDOF 2
