REMARK  Name = ZINC04847556
REMARK  15 active torsions:
REMARK  status: ('A' for Active; 'I' for Inactive)
REMARK    1  A    between atoms: C_1  and  C_2
REMARK    2  A    between atoms: C_2  and  C_3
REMARK    3  A    between atoms: C_3  and  C_5
REMARK    4  A    between atoms: C_3  and  N_62
REMARK    5  A    between atoms: N_9  and  C_10
REMARK    6  A    between atoms: C_10  and  C_11
REMARK    7  A    between atoms: C_10  and  C_12
REMARK    8  A    between atoms: C_10  and  C_13
REMARK    9  A    between atoms: C_14  and  C_15
REMARK   10  A    between atoms: C_14  and  N_62
REMARK   11  A    between atoms: C_15  and  O_16
REMARK   12  A    between atoms: C_17  and  C_18
REMARK   13  A    between atoms: C_17  and  N_62
REMARK   14  A    between atoms: C_22  and  C_31
REMARK   15  A    between atoms: C_24  and  C_30
REMARK                            x       y       z     vdW  Elec       q    Type
REMARK                         _______ _______ _______ _____ _____    ______ ____
ROOT
ATOM      1  N   UNL     1      -2.102  -1.810   1.157  0.00  0.00    +0.391 N 
ATOM      2  H   UNL     1      -1.666  -0.967   1.548  0.00  0.00    -0.080 HD
ENDROOT
BRANCH   1   3
ATOM      3  C   UNL     1      -3.562  -1.740   1.371  0.00  0.00    +0.003 C 
BRANCH   3   4
ATOM      4  C   UNL     1      -3.899  -2.319   2.721  0.00  0.00    +0.139 A 
ATOM      5  N   UNL     1      -3.325  -2.027   3.863  0.00  0.00    -0.115 NA
ATOM      6  N   UNL     1      -3.892  -2.728   4.784  0.00  0.00    -0.023 NA
ATOM      7  N   UNL     1      -4.812  -3.460   4.259  0.00  0.00    -0.043 NA
ATOM      8  N   UNL     1      -4.851  -3.232   2.990  0.00  0.00    -0.226 N 
BRANCH   8   9
ATOM      9  C   UNL     1      -5.758  -3.853   2.022  0.00  0.00    +0.059 C 
ATOM     10  C   UNL     1      -4.951  -4.704   1.038  0.00  0.00    +0.036 C 
ATOM     11  C   UNL     1      -6.762  -4.742   2.760  0.00  0.00    +0.036 C 
ATOM     12  C   UNL     1      -6.510  -2.763   1.255  0.00  0.00    +0.036 C 
ENDBRANCH   8   9
ENDBRANCH   3   4
BRANCH   3  14
ATOM     13  C   UNL     1      -3.750   0.285  -0.080  0.00  0.00    +0.002 C 
ATOM     14  C   UNL     1      -3.992  -0.273   1.324  0.00  0.00    -0.011 C 
ENDBRANCH   3  14
ENDBRANCH   1   3
BRANCH   1  15
ATOM     15  C   UNL     1      -1.547  -2.998   1.840  0.00  0.00    -0.049 C 
BRANCH  15  16
ATOM     16  C   UNL     1      -0.019  -2.914   1.812  0.00  0.00    +0.137 C 
BRANCH  16  17
ATOM     17  O   UNL     1       0.407  -1.743   2.511  0.00  0.00    -0.397 OA
ATOM     18  H   UNL     1       1.366  -1.625   2.533  0.00  0.00    +0.209 HD
ENDBRANCH  16  17
ENDBRANCH  15  16
ENDBRANCH   1  15
BRANCH   1  19
ATOM     19  C   UNL     1      -1.806  -1.877  -0.290  0.00  0.00    -0.036 C 
BRANCH  19  20
ATOM     20  C   UNL     1      -2.462  -3.084  -0.909  0.00  0.00    +0.001 A 
ATOM     21  C   UNL     1      -3.667  -2.960  -1.518  0.00  0.00    +0.017 A 
ATOM     22  C   UNL     1      -4.278  -4.152  -2.109  0.00  0.00    -0.001 A 
ATOM     23  C   UNL     1      -5.519  -4.087  -2.751  0.00  0.00    +0.013 A 
ATOM     24  C   UNL     1      -6.062  -5.217  -3.292  0.00  0.00    -0.050 A 
ATOM     25  C   UNL     1      -5.393  -6.431  -3.211  0.00  0.00    +0.008 A 
ATOM     26  C   UNL     1      -4.169  -6.519  -2.584  0.00  0.00    -0.026 A 
ATOM     27  C   UNL     1      -3.597  -5.381  -2.025  0.00  0.00    +0.052 A 
ATOM     28  N   UNL     1      -2.374  -5.440  -1.391  0.00  0.00    -0.322 N 
ATOM     29  H   UNL     1      -1.891  -6.314  -1.332  0.00  0.00    +0.169 HD
ATOM     30  C   UNL     1      -1.821  -4.340  -0.852  0.00  0.00    +0.251 A 
ATOM     31  O   UNL     1      -0.735  -4.428  -0.304  0.00  0.00    -0.268 OA
ATOM     32  C   UNL     1      -3.454  -7.843  -2.504  0.00  0.00    +0.046 C 
ATOM     33  C   UNL     1      -7.400  -5.146  -3.983  0.00  0.00    +0.044 C 
ENDBRANCH  19  20
ENDBRANCH   1  19
TORSDOF 9
