REMARK  Name = ZINC33812738
REMARK  11 active torsions:
REMARK  status: ('A' for Active; 'I' for Inactive)
REMARK    1  A    between atoms: C_1  and  C_2
REMARK    2  A    between atoms: C_2  and  C_3
REMARK    3  A    between atoms: C_3  and  C_4
REMARK    4  A    between atoms: C_4  and  N_5
REMARK    5  A    between atoms: C_6  and  N_24
REMARK    6  A    between atoms: C_7  and  C_15
REMARK    7  A    between atoms: C_8  and  C_14
REMARK    8  A    between atoms: C_9  and  C_12
REMARK    9  A    between atoms: N_19  and  C_23
REMARK   10  A    between atoms: N_27  and  C_30
REMARK   11  A    between atoms: C_30  and  C_31
REMARK                            x       y       z     vdW  Elec       q    Type
REMARK                         _______ _______ _______ _____ _____    ______ ____
ROOT
ATOM      1  N   UNL     1       1.972  -2.555  -2.580  0.00  0.00    -0.295 N 
ATOM      2  C   UNL     1       1.107  -2.730  -3.611  0.00  0.00    +0.112 A 
ATOM      3  C   UNL     1       1.477  -3.494  -4.731  0.00  0.00    +0.019 A 
ATOM      4  C   UNL     1       2.754  -4.078  -4.777  0.00  0.00    -0.017 A 
ATOM      5  C   UNL     1       3.622  -3.884  -3.707  0.00  0.00    +0.120 A 
ATOM      6  C   UNL     1       3.202  -3.099  -2.603  0.00  0.00    +0.270 A 
ATOM      7  O   UNL     1       3.960  -2.921  -1.665  0.00  0.00    -0.266 OA
ATOM      8  C   UNL     1       3.176  -4.903  -5.966  0.00  0.00    +0.046 C 
ENDROOT
BRANCH   3   9
ATOM      9  C   UNL     1       0.539  -3.679  -5.840  0.00  0.00    +0.032 C 
ATOM     10  C   UNL     1       0.816  -3.147  -7.061  0.00  0.00    +0.077 C 
ATOM     11  C   UNL     1       1.890  -2.294  -7.458  0.00  0.00    +0.258 C 
ATOM     12  O   UNL     1       2.735  -1.935  -6.658  0.00  0.00    -0.269 OA
ATOM     13  N   UNL     1       1.941  -1.907  -8.721  0.00  0.00    -0.258 N 
ATOM     14  C   UNL     1       1.004  -2.305  -9.609  0.00  0.00    +0.120 C 
ATOM     15  S   UNL     1       0.874  -1.929 -11.274  0.00  0.00    -0.027 S 
ATOM     16  S   UNL     1      -0.063  -3.330  -8.607  0.00  0.00    -0.061 S 
ATOM     17  C   UNL     1       3.029  -1.032  -9.164  0.00  0.00    +0.139 C 
ENDBRANCH   3   9
BRANCH   2  18
ATOM     18  N   UNL     1      -0.131  -2.159  -3.560  0.00  0.00    -0.314 N 
ATOM     19  C   UNL     1      -1.246  -2.835  -2.879  0.00  0.00    +0.122 C 
ATOM     20  C   UNL     1      -2.443  -2.882  -3.834  0.00  0.00    +0.103 C 
ATOM     21  N   UNL     1      -2.738  -1.524  -4.311  0.00  0.00    -0.295 NA
ATOM     22  C   UNL     1      -1.618  -0.978  -5.089  0.00  0.00    +0.103 C 
ATOM     23  C   UNL     1      -0.385  -0.850  -4.180  0.00  0.00    +0.122 C 
BRANCH  21  24
ATOM     24  C   UNL     1      -3.982  -1.500  -5.092  0.00  0.00    +0.119 C 
BRANCH  24  25
ATOM     25  C   UNL     1      -4.382  -0.071  -5.355  0.00  0.00    -0.033 A 
ATOM     26  C   UNL     1      -5.197   0.595  -4.459  0.00  0.00    +0.005 A 
ATOM     27  C   UNL     1      -5.564   1.906  -4.700  0.00  0.00    +0.000 A 
ATOM     28  C   UNL     1      -5.116   2.551  -5.837  0.00  0.00    +0.000 A 
ATOM     29  C   UNL     1      -4.300   1.886  -6.733  0.00  0.00    +0.000 A 
ATOM     30  C   UNL     1      -3.929   0.576  -6.490  0.00  0.00    +0.005 A 
ENDBRANCH  24  25
ENDBRANCH  21  24
ENDBRANCH   2  18
BRANCH   5  31
ATOM     31  C   UNL     1       4.930  -4.466  -3.723  0.00  0.00    +0.105 C 
ATOM     32  N   UNL     1       5.968  -4.928  -3.736  0.00  0.00    -0.191 NA
ENDBRANCH   5  31
BRANCH   1  33
ATOM     33  C   UNL     1       1.562  -1.754  -1.424  0.00  0.00    +0.126 C 
BRANCH  33  34
ATOM     34  C   UNL     1       2.044  -0.313  -1.605  0.00  0.00    +0.021 C 
BRANCH  34  36
ATOM     35  C   UNL     1       2.097   1.964  -0.578  0.00  0.00    +0.004 C 
ATOM     36  C   UNL     1       1.615   0.524  -0.397  0.00  0.00    -0.002 C 
ENDBRANCH  34  36
ENDBRANCH  33  34
ENDBRANCH   1  33
TORSDOF 8
