REMARK  Name = ZINC40310669
REMARK  4 active torsions:
REMARK  status: ('A' for Active; 'I' for Inactive)
REMARK    1  A    between atoms: C_4  and  N_8
REMARK    2  A    between atoms: C_5  and  C_6
REMARK    3  A    between atoms: C_9  and  C_11
REMARK    4  A    between atoms: C_13  and  N_19
REMARK                            x       y       z     vdW  Elec       q    Type
REMARK                         _______ _______ _______ _____ _____    ______ ____
ROOT
ATOM      1  N   UNL     1       1.542  -1.964  -0.024  0.00  0.00    -0.275 N 
ATOM      2  C   UNL     1       2.824  -2.377  -0.038  0.00  0.00    +0.249 C 
ATOM      3  O   UNL     1       3.726  -1.562  -0.042  0.00  0.00    -0.270 OA
ATOM      4  H   UNL     1       0.822  -2.614  -0.021  0.00  0.00    +0.156 HD
ENDROOT
BRANCH   2   5
ATOM      5  C   UNL     1       3.134  -3.822  -0.049  0.00  0.00    +0.040 A 
ATOM      6  C   UNL     1       4.462  -4.253  -0.058  0.00  0.00    +0.037 A 
ATOM      7  C   UNL     1       4.746  -5.609  -0.068  0.00  0.00    +0.045 A 
ATOM      8  C   UNL     1       3.709  -6.537  -0.069  0.00  0.00    +0.080 A 
ATOM      9  C   UNL     1       2.393  -6.110  -0.060  0.00  0.00    +0.062 A 
ATOM     10  C   UNL     1       2.100  -4.760  -0.045  0.00  0.00    +0.034 A 
ATOM     11 CL   UNL     1       1.105  -7.274  -0.063  0.00  0.00    -0.082 Cl
ATOM     12 CL   UNL     1       4.068  -8.235  -0.082  0.00  0.00    -0.080 Cl
BRANCH   7  13
ATOM     13  N   UNL     1       6.074  -6.045  -0.078  0.00  0.00    -0.357 N 
ATOM     14  H   UNL     1       6.797  -5.398  -0.077  0.00  0.00    +0.142 HD
ATOM     15  H   UNL     1       6.273  -6.994  -0.085  0.00  0.00    +0.142 HD
ENDBRANCH   7  13
ENDBRANCH   2   5
BRANCH   1  19
ATOM     16  C   UNL     1      -0.018   1.440   0.010  0.00  0.00    +0.028 A 
ATOM     17  C   UNL     1       1.187   2.043   0.002  0.00  0.00    +0.048 A 
ATOM     18  S   UNL     1       2.328   0.678  -0.017  0.00  0.00    -0.081 S 
ATOM     19  C   UNL     1       1.250  -0.608  -0.013  0.00  0.00    +0.089 A 
ATOM     20  C   UNL     1       0.002  -0.004   0.002  0.00  0.00    +0.080 A 
BRANCH  20  21
ATOM     21  C   UNL     1      -1.206  -0.773   0.010  0.00  0.00    +0.102 C 
ATOM     22  N   UNL     1      -2.164  -1.383   0.016  0.00  0.00    -0.191 NA
ENDBRANCH  20  21
ENDBRANCH   1  19
TORSDOF 4
