REMARK  Name = ZINC06887552
REMARK  7 active torsions:
REMARK  status: ('A' for Active; 'I' for Inactive)
REMARK    1  A    between atoms: C_1  and  C_2
REMARK    2  A    between atoms: C_2  and  C_3
REMARK    3  A    between atoms: C_7  and  C_26
REMARK    4  A    between atoms: C_8  and  N_9
REMARK    5  A    between atoms: N_9  and  S_10
REMARK    6  A    between atoms: S_10  and  C_13
REMARK    7  A    between atoms: C_16  and  C_18
REMARK                            x       y       z     vdW  Elec       q    Type
REMARK                         _______ _______ _______ _____ _____    ______ ____
ROOT
ATOM      1  S   UNL     1      -7.014   4.677  -0.285  0.00  0.00    +0.106 S 
ATOM      2  O   UNL     1      -6.736   3.965   0.913  0.00  0.00    -0.147 OA
ATOM      3  O   UNL     1      -7.808   5.855  -0.305  0.00  0.00    -0.147 OA
ENDROOT
BRANCH   1   4
ATOM      4  C   UNL     1      -5.457   5.106  -0.989  0.00  0.00    +0.262 A 
ATOM      5  C   UNL     1      -5.256   6.035  -1.944  0.00  0.00    +0.072 A 
ATOM      6  C   UNL     1      -3.873   6.061  -2.210  0.00  0.00    +0.053 A 
ATOM      7  C   UNL     1      -3.300   5.131  -1.400  0.00  0.00    +0.157 A 
ATOM      8  O   UNL     1      -4.274   4.562  -0.663  0.00  0.00    -0.435 OA
BRANCH   7   9
ATOM      9  C   UNL     1      -1.861   4.805  -1.335  0.00  0.00    +0.126 A 
ATOM     10  C   UNL     1      -1.402   3.808  -0.440  0.00  0.00    +0.038 A 
ATOM     11  C   UNL     1      -0.067   3.539  -0.404  0.00  0.00    +0.074 A 
ATOM     12  C   UNL     1       0.778   4.265  -1.273  0.00  0.00    +0.265 A 
ATOM     13  O   UNL     1       1.981   4.054  -1.279  0.00  0.00    -0.266 OA
ATOM     14  N   UNL     1       0.249   5.191  -2.094  0.00  0.00    -0.243 N 
ATOM     15  H   UNL     1       0.854   5.701  -2.706  0.00  0.00    +0.192 HD
ATOM     16  N   UNL     1      -1.011   5.438  -2.113  0.00  0.00    -0.168 NA
ENDBRANCH   7   9
ENDBRANCH   1   4
BRANCH   1  17
ATOM     17  N   UNL     1      -7.738   3.602  -1.316  0.00  0.00    -0.213 N 
ATOM     18  H   UNL     1      -8.689   3.423  -1.241  0.00  0.00    +0.174 HD
BRANCH  17  24
ATOM     19  C   UNL     1      -7.324   3.074  -3.635  0.00  0.00    -0.025 A 
ATOM     20  C   UNL     1      -6.569   2.436  -4.599  0.00  0.00    +0.005 A 
ATOM     21  C   UNL     1      -5.479   1.669  -4.231  0.00  0.00    +0.001 A 
ATOM     22  C   UNL     1      -5.138   1.542  -2.897  0.00  0.00    +0.005 A 
ATOM     23  C   UNL     1      -5.885   2.182  -1.928  0.00  0.00    -0.028 A 
ATOM     24  C   UNL     1      -6.980   2.954  -2.294  0.00  0.00    +0.054 A 
ATOM     25  C   UNL     1      -5.512   2.043  -0.474  0.00  0.00    +0.046 C 
BRANCH  19  27
ATOM     26  C   UNL     1      -8.095   5.371  -4.164  0.00  0.00    +0.009 C 
ATOM     27  C   UNL     1      -8.515   3.905  -4.036  0.00  0.00    +0.033 C 
ENDBRANCH  19  27
ENDBRANCH  17  24
ENDBRANCH   1  17
TORSDOF 5
