REMARK  Name = ZINC04032975
REMARK  10 active torsions:
REMARK  status: ('A' for Active; 'I' for Inactive)
REMARK    1  A    between atoms: C_1  and  C_2
REMARK    2  A    between atoms: C_6  and  C_8
REMARK    3  A    between atoms: C_8  and  N_9
REMARK    4  A    between atoms: C_10  and  C_22
REMARK    5  A    between atoms: N_16  and  C_21
REMARK    6  A    between atoms: N_19  and  C_20
REMARK    7  A    between atoms: C_22  and  N_58
REMARK    8  A    between atoms: C_23  and  N_58
REMARK    9  A    between atoms: C_24  and  C_25
REMARK   10  A    between atoms: C_24  and  N_58
REMARK                            x       y       z     vdW  Elec       q    Type
REMARK                         _______ _______ _______ _____ _____    ______ ____
ROOT
ATOM      1  N   UNL     1       0.156   0.694  -0.031  0.00  0.00    -0.319 N 
ATOM      2  C   UNL     1      -0.187  -0.328  -0.838  0.00  0.00    +0.096 A 
ATOM      3  N   UNL     1      -0.313  -1.425  -0.134  0.00  0.00    -0.216 NA
ATOM      4  C   UNL     1      -0.068  -1.166   1.153  0.00  0.00    +0.168 A 
ATOM      5  C   UNL     1       0.235   0.186   1.251  0.00  0.00    +0.152 A 
ATOM      6  C   UNL     1       0.538   0.733   2.516  0.00  0.00    +0.282 A 
ATOM      7  O   UNL     1       0.807   1.916   2.628  0.00  0.00    -0.265 OA
ATOM      8  N   UNL     1       0.525  -0.069   3.601  0.00  0.00    -0.262 N 
ATOM      9  C   UNL     1       0.229  -1.376   3.492  0.00  0.00    +0.333 A 
ATOM     10  O   UNL     1       0.227  -2.068   4.491  0.00  0.00    -0.246 OA
ATOM     11  N   UNL     1      -0.065  -1.937   2.304  0.00  0.00    -0.280 N 
ATOM     12  C   UNL     1      -0.384  -3.365   2.228  0.00  0.00    +0.155 C 
ATOM     13  C   UNL     1       0.839   0.492   4.917  0.00  0.00    +0.157 C 
ENDROOT
BRANCH   1  14
ATOM     14  C   UNL     1       0.394   2.082  -0.435  0.00  0.00    +0.158 C 
BRANCH  14  20
ATOM     15  C   UNL     1       3.976   2.242  -3.925  0.00  0.00    +0.044 C 
ATOM     16  C   UNL     1       3.557   2.331  -2.481  0.00  0.00    -0.050 A 
ATOM     17  C   UNL     1       4.501   2.571  -1.500  0.00  0.00    +0.003 A 
ATOM     18  C   UNL     1       4.117   2.654  -0.175  0.00  0.00    +0.001 A 
ATOM     19  C   UNL     1       2.787   2.500   0.169  0.00  0.00    +0.005 A 
ATOM     20  C   UNL     1       1.843   2.254  -0.810  0.00  0.00    -0.027 A 
ATOM     21  C   UNL     1       2.228   2.172  -2.136  0.00  0.00    +0.008 A 
ENDBRANCH  14  20
ENDBRANCH   1  14
BRANCH   2  22
ATOM     22  C   UNL     1      -0.392  -0.226  -2.328  0.00  0.00    -0.003 C 
BRANCH  22  24
ATOM     23  C   UNL     1      -2.737  -0.830  -2.304  0.00  0.00    -0.095 C 
ATOM     24  N   UNL     1      -1.767   0.249  -2.587  0.00  0.00    +0.385 N 
ATOM     25  H   UNL     1      -1.966   1.046  -1.971  0.00  0.00    -0.081 HD
BRANCH  24  26
ATOM     26  C   UNL     1      -1.895   0.686  -3.993  0.00  0.00    -0.043 C 
BRANCH  26  27
ATOM     27  C   UNL     1      -3.167   1.480  -4.140  0.00  0.00    -0.064 A 
ATOM     28  C   UNL     1      -4.315   0.865  -4.604  0.00  0.00    +0.002 A 
ATOM     29  C   UNL     1      -5.484   1.591  -4.735  0.00  0.00    +0.000 A 
ATOM     30  C   UNL     1      -5.503   2.935  -4.411  0.00  0.00    +0.000 A 
ATOM     31  C   UNL     1      -4.353   3.551  -3.953  0.00  0.00    +0.000 A 
ATOM     32  C   UNL     1      -3.186   2.823  -3.817  0.00  0.00    +0.002 A 
ENDBRANCH  26  27
ENDBRANCH  24  26
ENDBRANCH  22  24
ENDBRANCH   2  22
TORSDOF 6
