REMARK  Name = ZINC57492516
REMARK  10 active torsions:
REMARK  status: ('A' for Active; 'I' for Inactive)
REMARK    1  A    between atoms: C_1  and  C_2
REMARK    2  A    between atoms: C_5  and  C_33
REMARK    3  A    between atoms: C_6  and  N_8
REMARK    4  A    between atoms: N_16  and  C_19
REMARK    5  A    between atoms: C_19  and  C_20
REMARK    6  A    between atoms: N_22  and  C_23
REMARK    7  A    between atoms: C_25  and  O_31
REMARK    8  A    between atoms: C_28  and  O_29
REMARK    9  A    between atoms: O_29  and  C_30
REMARK   10  A    between atoms: O_31  and  C_32
REMARK                            x       y       z     vdW  Elec       q    Type
REMARK                         _______ _______ _______ _____ _____    ______ ____
ROOT
ATOM      1  N   UNL     1       0.031  -2.775   2.376  0.00  0.00    -0.228 N 
ATOM      2  C   UNL     1       1.213  -3.100   2.947  0.00  0.00    +0.275 A 
ATOM      3  O   UNL     1       2.264  -2.774   2.423  0.00  0.00    -0.266 OA
ATOM      4  C   UNL     1       1.211  -3.816   4.148  0.00  0.00    +0.101 A 
ATOM      5  C   UNL     1       0.017  -4.199   4.765  0.00  0.00    +0.066 A 
ATOM      6  C   UNL     1       0.201  -4.904   5.951  0.00  0.00    +0.034 A 
ATOM      7  C   UNL     1       1.452  -5.152   6.394  0.00  0.00    +0.048 A 
ATOM      8  S   UNL     1       2.453  -4.451   5.240  0.00  0.00    -0.090 S 
ATOM      9  N   UNL     1      -1.166  -3.824   4.112  0.00  0.00    -0.284 N 
ATOM     10  C   UNL     1      -1.123  -3.132   2.963  0.00  0.00    +0.337 A 
ATOM     11  O   UNL     1      -2.171  -2.822   2.429  0.00  0.00    -0.246 OA
ENDROOT
BRANCH   1  17
ATOM     12  C   UNL     1      -0.048   1.542   0.021  0.00  0.00    +0.044 C 
ATOM     13  C   UNL     1      -0.028   0.035   0.002  0.00  0.00    -0.048 A 
ATOM     14  C   UNL     1      -0.031  -0.641  -1.204  0.00  0.00    +0.004 A 
ATOM     15  C   UNL     1      -0.013  -2.024  -1.225  0.00  0.00    +0.005 A 
ATOM     16  C   UNL     1       0.008  -2.733  -0.040  0.00  0.00    -0.026 A 
ATOM     17  C   UNL     1       0.011  -2.057   1.173  0.00  0.00    +0.058 A 
ATOM     18  C   UNL     1      -0.002  -0.669   1.190  0.00  0.00    +0.030 A 
ATOM     19  C   UNL     1       0.027  -4.240  -0.063  0.00  0.00    +0.046 C 
ENDBRANCH   1  17
BRANCH   9  20
ATOM     20  C   UNL     1      -2.461  -4.187   4.693  0.00  0.00    +0.222 C 
BRANCH  20  21
ATOM     21  C   UNL     1      -2.921  -3.091   5.619  0.00  0.00    +0.237 C 
ATOM     22  O   UNL     1      -2.234  -2.104   5.779  0.00  0.00    -0.274 OA
ATOM     23  N   UNL     1      -4.095  -3.208   6.271  0.00  0.00    -0.281 N 
ATOM     24  H   UNL     1      -4.674  -3.965   6.094  0.00  0.00    +0.155 HD
BRANCH  23  25
ATOM     25  C   UNL     1      -4.479  -2.234   7.202  0.00  0.00    +0.079 A 
ATOM     26  C   UNL     1      -4.142  -0.904   6.997  0.00  0.00    +0.072 A 
ATOM     27  C   UNL     1      -4.523   0.056   7.920  0.00  0.00    +0.122 A 
ATOM     28  C   UNL     1      -5.240  -0.311   9.049  0.00  0.00    +0.049 A 
ATOM     29  C   UNL     1      -5.577  -1.636   9.257  0.00  0.00    +0.051 A 
ATOM     30  C   UNL     1      -5.204  -2.599   8.334  0.00  0.00    +0.141 A 
BRANCH  30  31
ATOM     31  O   UNL     1      -5.541  -3.902   8.536  0.00  0.00    -0.493 OA
ATOM     32  C   UNL     1      -6.286  -4.204   9.718  0.00  0.00    +0.277 C 
ENDBRANCH  30  31
BRANCH  27  33
ATOM     33  O   UNL     1      -4.192   1.360   7.720  0.00  0.00    -0.495 OA
ATOM     34  C   UNL     1      -4.617   2.297   8.712  0.00  0.00    +0.277 C 
ENDBRANCH  27  33
ENDBRANCH  23  25
ENDBRANCH  20  21
ENDBRANCH   9  20
TORSDOF 6
