REMARK  Name = ZINC10974002
REMARK  9 active torsions:
REMARK  status: ('A' for Active; 'I' for Inactive)
REMARK    1  A    between atoms: C_1  and  C_2
REMARK    2  A    between atoms: C_2  and  C_3
REMARK    3  A    between atoms: C_2  and  C_4
REMARK    4  A    between atoms: C_4  and  N_5
REMARK    5  A    between atoms: C_15  and  S_16
REMARK    6  A    between atoms: S_16  and  C_17
REMARK    7  A    between atoms: C_17  and  C_18
REMARK    8  A    between atoms: N_24  and  C_25
REMARK    9  A    between atoms: N_24  and  C_26
REMARK                            x       y       z     vdW  Elec       q    Type
REMARK                         _______ _______ _______ _____ _____    ______ ____
ROOT
ATOM      1  N   UNL     1      -0.755   3.484   1.277  0.00  0.00    -0.287 N 
ATOM      2  C   UNL     1       0.256   4.166   1.864  0.00  0.00    +0.262 A 
ATOM      3  O   UNL     1       1.189   3.585   2.388  0.00  0.00    -0.267 OA
ATOM      4  C   UNL     1       0.190   5.633   1.840  0.00  0.00    +0.066 A 
ATOM      5  C   UNL     1       1.185   6.424   2.413  0.00  0.00    +0.030 A 
ATOM      6  C   UNL     1       1.069   7.797   2.366  0.00  0.00    +0.019 A 
ATOM      7  C   UNL     1      -0.028   8.393   1.756  0.00  0.00    +0.017 A 
ATOM      8  C   UNL     1      -1.014   7.636   1.188  0.00  0.00    +0.029 A 
ATOM      9  C   UNL     1      -0.924   6.242   1.219  0.00  0.00    +0.079 A 
ATOM     10  N   UNL     1      -1.881   5.458   0.668  0.00  0.00    -0.223 NA
ATOM     11  C   UNL     1      -1.796   4.151   0.698  0.00  0.00    +0.173 A 
ATOM     12 BR   UNL     1       2.413   8.878   3.140  0.00  0.00    -0.050 Br
ENDROOT
BRANCH   1  13
ATOM     13  C   UNL     1      -0.735   2.019   1.269  0.00  0.00    +0.130 C 
BRANCH  13  15
ATOM     14  C   UNL     1       0.002  -0.004   0.002  0.00  0.00    +0.009 C 
ATOM     15  C   UNL     1      -0.019   1.526   0.010  0.00  0.00    +0.003 C 
ATOM     16  C   UNL     1       1.417   2.055  -0.000  0.00  0.00    +0.009 C 
ENDBRANCH  13  15
ENDBRANCH   1  13
BRANCH  11  17
ATOM     17  S   UNL     1      -3.087   3.209  -0.044  0.00  0.00    -0.080 S 
BRANCH  17  18
ATOM     18  C   UNL     1      -4.156   4.547  -0.630  0.00  0.00    +0.153 C 
BRANCH  18  19
ATOM     19  C   UNL     1      -5.362   3.962  -1.319  0.00  0.00    +0.146 A 
ATOM     20  N   UNL     1      -5.328   3.725  -2.619  0.00  0.00    -0.199 NA
ATOM     21  C   UNL     1      -6.389   3.204  -3.230  0.00  0.00    +0.217 A 
ATOM     22  N   UNL     1      -7.487   2.932  -2.534  0.00  0.00    -0.181 NA
ATOM     23  C   UNL     1      -7.520   3.176  -1.228  0.00  0.00    +0.222 A 
ATOM     24  N   UNL     1      -6.452   3.693  -0.623  0.00  0.00    -0.198 NA
ATOM     25  N   UNL     1      -8.658   2.895  -0.501  0.00  0.00    -0.306 N 
ATOM     26  C   UNL     1      -8.692   3.164   0.939  0.00  0.00    +0.132 C 
ATOM     27  C   UNL     1      -9.832   2.326  -1.168  0.00  0.00    +0.132 C 
ATOM     28  N   UNL     1      -6.351   2.951  -4.586  0.00  0.00    -0.327 N 
ATOM     29  H   UNL     1      -7.126   2.575  -5.032  0.00  0.00    +0.145 HD
ATOM     30  H   UNL     1      -5.548   3.150  -5.094  0.00  0.00    +0.145 HD
ENDBRANCH  18  19
ENDBRANCH  17  18
ENDBRANCH  11  17
TORSDOF 5
