REMARK  Name = ZINC35173897
REMARK  10 active torsions:
REMARK  status: ('A' for Active; 'I' for Inactive)
REMARK    1  A    between atoms: C_1  and  C_2
REMARK    2  A    between atoms: C_9  and  C_11
REMARK    3  A    between atoms: C_11  and  C_12
REMARK    4  A    between atoms: C_11  and  C_13
REMARK    5  A    between atoms: C_11  and  C_14
REMARK    6  A    between atoms: C_16  and  C_18
REMARK    7  A    between atoms: C_18  and  S_19
REMARK    8  A    between atoms: S_19  and  C_20
REMARK    9  A    between atoms: C_23  and  C_31
REMARK   10  A    between atoms: N_24  and  C_25
REMARK                            x       y       z     vdW  Elec       q    Type
REMARK                         _______ _______ _______ _____ _____    ______ ____
ROOT
ATOM      1  C   UNL     1       1.045  -5.038  -1.373  0.00  0.00    +0.173 C 
ENDROOT
BRANCH   1  11
ATOM      2  C   UNL     1       0.442   1.036  -0.478  0.00  0.00    +0.029 C 
ATOM      3  C   UNL     1       0.393  -0.473  -0.233  0.00  0.00    +0.090 C 
ATOM      4  C   UNL     1       1.139  -1.202  -1.357  0.00  0.00    +0.130 C 
ATOM      5  N   UNL     1       1.306  -2.611  -0.974  0.00  0.00    -0.298 N 
ATOM      6  C   UNL     1       1.961  -2.924   0.304  0.00  0.00    +0.127 C 
ATOM      7  C   UNL     1       1.215  -2.195   1.429  0.00  0.00    +0.127 C 
ATOM      8  N   UNL     1       1.044  -0.786   1.047  0.00  0.00    -0.295 N 
ATOM      9  C   UNL     1       1.481   0.202   1.854  0.00  0.00    +0.223 C 
ATOM     10  O   UNL     1       1.246   1.359   1.578  0.00  0.00    -0.275 OA
ATOM     11  C   UNL     1       0.867  -3.598  -1.779  0.00  0.00    +0.226 C 
ATOM     12  O   UNL     1       0.328  -3.328  -2.832  0.00  0.00    -0.275 OA
BRANCH   9  13
ATOM     13  C   UNL     1       2.261  -0.133   3.099  0.00  0.00    +0.055 C 
ATOM     14  C   UNL     1       1.389  -0.968   4.039  0.00  0.00    +0.022 C 
ATOM     15  C   UNL     1       3.511  -0.930   2.719  0.00  0.00    +0.022 C 
BRANCH  13  16
ATOM     16  C   UNL     1       2.676   1.161   3.803  0.00  0.00    +0.124 C 
ATOM     17 CL   UNL     1       3.610   0.761   5.293  0.00  0.00    -0.124 Cl
ENDBRANCH  13  16
ENDBRANCH   9  13
ENDBRANCH   1  11
BRANCH   1  18
ATOM     18  S   UNL     1       0.357  -6.119  -2.657  0.00  0.00    -0.076 S 
BRANCH  18  19
ATOM     19  C   UNL     1       0.639  -7.746  -2.041  0.00  0.00    +0.197 A 
ATOM     20  N   UNL     1       1.215  -8.059  -0.903  0.00  0.00    -0.122 NA
ATOM     21  N   UNL     1       1.260  -9.335  -0.765  0.00  0.00    -0.127 NA
ATOM     22  C   UNL     1       0.715  -9.921  -1.808  0.00  0.00    +0.176 A 
ATOM     23  N   UNL     1       0.294  -8.919  -2.658  0.00  0.00    -0.270 N 
BRANCH  23  24
ATOM     24  C   UNL     1      -0.349  -9.070  -3.894  0.00  0.00    +0.051 A 
ATOM     25  C   UNL     1      -1.621  -9.622  -3.953  0.00  0.00    +0.026 A 
ATOM     26  C   UNL     1      -2.253  -9.769  -5.173  0.00  0.00    +0.002 A 
ATOM     27  C   UNL     1      -1.619  -9.367  -6.334  0.00  0.00    +0.000 A 
ATOM     28  C   UNL     1      -0.351  -8.817  -6.278  0.00  0.00    +0.002 A 
ATOM     29  C   UNL     1       0.283  -8.662  -5.061  0.00  0.00    +0.026 A 
ENDBRANCH  23  24
BRANCH  22  30
ATOM     30  C   UNL     1       0.576 -11.369  -2.026  0.00  0.00    +0.057 A 
ATOM     31  C   UNL     1       0.701 -12.396  -1.124  0.00  0.00    +0.019 A 
ATOM     32  C   UNL     1       0.524 -13.688  -1.565  0.00  0.00    +0.008 A 
ATOM     33  C   UNL     1       0.232 -13.907  -2.873  0.00  0.00    +0.046 A 
ATOM     34  S   UNL     1       0.192 -12.249  -3.532  0.00  0.00    -0.094 S 
ENDBRANCH  22  30
ENDBRANCH  18  19
ENDBRANCH   1  18
TORSDOF 7
