REMARK  Name = ZINC04374466
REMARK  3 active torsions:
REMARK  status: ('A' for Active; 'I' for Inactive)
REMARK    1  A    between atoms: C_6  and  C_7
REMARK    2  A    between atoms: C_10  and  C_30
REMARK    3  A    between atoms: C_14  and  C_17
REMARK                            x       y       z     vdW  Elec       q    Type
REMARK                         _______ _______ _______ _____ _____    ______ ____
ROOT
ATOM      1  C   UNL     1      -1.900  -1.152   0.178  0.00  0.00    +0.104 C 
ATOM      2  C   UNL     1      -2.000  -1.725   1.596  0.00  0.00    +0.063 C 
ATOM      3  C   UNL     1      -0.651  -2.322   2.012  0.00  0.00    +0.215 C 
ATOM      4  N   UNL     1      -0.176  -3.209   0.945  0.00  0.00    -0.238 N 
ATOM      5  C   UNL     1      -0.631  -3.159  -0.330  0.00  0.00    +0.130 A 
ATOM      6  C   UNL     1       0.033  -4.136  -1.049  0.00  0.00    +0.096 A 
ATOM      7  C   UNL     1       0.915  -4.780  -0.144  0.00  0.00    +0.149 A 
ATOM      8  N   UNL     1       0.779  -4.221   1.028  0.00  0.00    -0.177 NA
ATOM      9  N   UNL     1      -1.593  -2.254  -0.755  0.00  0.00    -0.322 N 
ATOM     10  H   UNL     1      -2.039  -2.339  -1.612  0.00  0.00    +0.148 HD
ENDROOT
BRANCH   6  11
ATOM     11  C   UNL     1      -0.141  -4.446  -2.473  0.00  0.00    +0.251 C 
ATOM     12  O   UNL     1      -0.327  -3.548  -3.272  0.00  0.00    -0.270 OA
ATOM     13  N   UNL     1      -0.094  -5.725  -2.894  0.00  0.00    -0.301 N 
ATOM     14  C   UNL     1       0.002  -6.822  -1.922  0.00  0.00    +0.089 C 
ATOM     15  C   UNL     1      -1.003  -7.930  -2.283  0.00  0.00    -0.059 C 
ATOM     16  N   UNL     1      -0.801  -8.274  -3.684  0.00  0.00    +0.384 N 
ATOM     17  C   UNL     1      -1.596  -9.399  -4.180  0.00  0.00    -0.078 C 
ATOM     18  C   UNL     1      -1.848  -9.114  -5.680  0.00  0.00    -0.020 C 
ATOM     19  C   UNL     1      -1.223  -7.715  -5.934  0.00  0.00    -0.016 C 
ATOM     20  C   UNL     1      -1.205  -7.111  -4.519  0.00  0.00    -0.051 C 
ATOM     21  C   UNL     1      -0.144  -6.035  -4.338  0.00  0.00    +0.093 C 
ATOM     22  H   UNL     1       0.175  -8.472  -3.841  0.00  0.00    -0.081 HD
ENDBRANCH   6  11
BRANCH   1  28
ATOM     23  C   UNL     1      -1.112   1.224   0.175  0.00  0.00    +0.006 A 
ATOM     24  C   UNL     1      -0.105   2.169   0.126  0.00  0.00    +0.015 A 
ATOM     25  C   UNL     1       1.215   1.768   0.026  0.00  0.00    +0.018 A 
ATOM     26  C   UNL     1       1.526   0.421  -0.024  0.00  0.00    +0.015 A 
ATOM     27  C   UNL     1       0.518  -0.524   0.025  0.00  0.00    +0.006 A 
ATOM     28  C   UNL     1      -0.801  -0.122   0.124  0.00  0.00    -0.027 A 
ATOM     29 BR   UNL     1       2.594   3.060  -0.042  0.00  0.00    -0.050 Br
ENDBRANCH   1  28
BRANCH   3  30
ATOM     30  C   UNL     1      -0.820  -3.119   3.307  0.00  0.00    +0.412 C 
ATOM     31  F   UNL     1      -1.742  -4.151   3.103  0.00  0.00    -0.168 F 
ATOM     32  F   UNL     1       0.412  -3.663   3.684  0.00  0.00    -0.168 F 
ATOM     33  F   UNL     1      -1.285  -2.271   4.318  0.00  0.00    -0.168 F 
ENDBRANCH   3  30
TORSDOF 3
