REMARK  Name = ZINC60276077
REMARK  5 active torsions:
REMARK  status: ('A' for Active; 'I' for Inactive)
REMARK    1  A    between atoms: C_13  and  C_15
REMARK    2  A    between atoms: C_15  and  C_16
REMARK    3  A    between atoms: C_16  and  N_17
REMARK    4  A    between atoms: C_18  and  C_20
REMARK    5  A    between atoms: C_23  and  C_25
REMARK                            x       y       z     vdW  Elec       q    Type
REMARK                         _______ _______ _______ _____ _____    ______ ____
ROOT
ATOM      1  C   UNL     1       0.181  -6.649   1.261  0.00  0.00    +0.114 C 
ENDROOT
BRANCH   1  14
ATOM      2  C   UNL     1       2.370   1.437   0.014  0.00  0.00    +0.005 A 
ATOM      3  C   UNL     1       1.127   2.057   0.003  0.00  0.00    +0.018 A 
ATOM      4  C   UNL     1      -0.015   1.282  -0.017  0.00  0.00    +0.084 A 
ATOM      5  N   UNL     1       0.061  -0.036  -0.024  0.00  0.00    -0.350 N 
ATOM      6  C   UNL     1       1.227  -0.664  -0.014  0.00  0.00    +0.099 A 
ATOM      7  C   UNL     1       2.418   0.054   0.005  0.00  0.00    +0.042 A 
ATOM      8  N   UNL     1       1.260  -2.054  -0.022  0.00  0.00    -0.314 N 
ATOM      9  C   UNL     1       2.538  -2.770  -0.142  0.00  0.00    +0.125 C 
ATOM     10  C   UNL     1       2.671  -3.737   1.041  0.00  0.00    +0.126 C 
ATOM     11  N   UNL     1       1.430  -4.516   1.153  0.00  0.00    -0.298 N 
ATOM     12  C   UNL     1       0.152  -3.799   1.273  0.00  0.00    +0.126 C 
ATOM     13  C   UNL     1       0.020  -2.833   0.096  0.00  0.00    +0.125 C 
ATOM     14  C   UNL     1       1.462  -5.863   1.145  0.00  0.00    +0.217 C 
ATOM     15  O   UNL     1       2.522  -6.443   1.045  0.00  0.00    -0.276 OA
ATOM     16  H   UNL     1      -0.757  -0.557  -0.038  0.00  0.00    +0.166 HD
ENDBRANCH   1  14
BRANCH   1  17
ATOM     17  C   UNL     1       0.496  -8.145   1.226  0.00  0.00    +0.113 C 
BRANCH  17  18
ATOM     18  N   UNL     1      -0.749  -8.909   1.338  0.00  0.00    -0.315 N 
ATOM     19  C   UNL     1      -0.717 -10.256   1.330  0.00  0.00    +0.217 C 
ATOM     20  O   UNL     1       0.344 -10.837   1.230  0.00  0.00    -0.275 OA
ATOM     21  H   UNL     1      -1.597  -8.445   1.418  0.00  0.00    +0.149 HD
BRANCH  19  22
ATOM     22  C   UNL     1      -1.998 -11.042   1.446  0.00  0.00    +0.083 C 
ATOM     23  C   UNL     1      -2.459 -11.825   0.215  0.00  0.00    +0.022 C 
ATOM     24  C   UNL     1      -1.894 -12.568   1.429  0.00  0.00    +0.032 C 
BRANCH  24  25
ATOM     25  C   UNL     1      -2.864 -13.341   2.285  0.00  0.00    -0.042 A 
ATOM     26  C   UNL     1      -4.225 -13.222   2.067  0.00  0.00    +0.004 A 
ATOM     27  C   UNL     1      -5.115 -13.931   2.852  0.00  0.00    +0.001 A 
ATOM     28  C   UNL     1      -4.645 -14.758   3.855  0.00  0.00    +0.015 A 
ATOM     29  C   UNL     1      -3.285 -14.877   4.073  0.00  0.00    +0.018 A 
ATOM     30  C   UNL     1      -2.394 -14.172   3.284  0.00  0.00    +0.019 A 
ATOM     31 BR   UNL     1      -2.642 -16.009   5.445  0.00  0.00    -0.050 Br
ENDBRANCH  24  25
ENDBRANCH  19  22
ENDBRANCH  17  18
ENDBRANCH   1  17
TORSDOF 5
