REMARK  Name = ZINC08368840
REMARK  5 active torsions:
REMARK  status: ('A' for Active; 'I' for Inactive)
REMARK    1  A    between atoms: C_1  and  C_2
REMARK    2  A    between atoms: C_5  and  N_9
REMARK    3  A    between atoms: C_6  and  C_8
REMARK    4  A    between atoms: C_10  and  C_11
REMARK    5  A    between atoms: C_15  and  O_17
REMARK                            x       y       z     vdW  Elec       q    Type
REMARK                         _______ _______ _______ _____ _____    ______ ____
ROOT
ATOM      1  N   UNL     1       0.059  -4.142  -0.021  0.00  0.00    -0.255 NA
ATOM      2  C   UNL     1       0.710  -4.779  -0.952  0.00  0.00    +0.119 C 
ENDROOT
BRANCH   1   7
ATOM      3  C   UNL     1      -0.047   1.502  -0.009  0.00  0.00    +0.044 C 
ATOM      4  C   UNL     1      -0.019  -0.004  -0.012  0.00  0.00    -0.050 A 
ATOM      5  C   UNL     1      -0.283  -0.696  -1.181  0.00  0.00    +0.005 A 
ATOM      6  C   UNL     1      -0.259  -2.075  -1.192  0.00  0.00    +0.028 A 
ATOM      7  C   UNL     1       0.034  -2.773  -0.018  0.00  0.00    +0.067 A 
ATOM      8  C   UNL     1       0.300  -2.069   1.158  0.00  0.00    -0.025 A 
ATOM      9  C   UNL     1       0.277  -0.690   1.153  0.00  0.00    +0.008 A 
ATOM     10  C   UNL     1       0.616  -2.814   2.429  0.00  0.00    +0.046 C 
ENDBRANCH   1   7
BRANCH   2  11
ATOM     11  C   UNL     1       0.640  -6.248  -1.025  0.00  0.00    -0.003 A 
ATOM     12  C   UNL     1      -0.129  -6.962  -0.101  0.00  0.00    +0.009 A 
ATOM     13  C   UNL     1      -0.192  -8.337  -0.173  0.00  0.00    +0.004 A 
ATOM     14  C   UNL     1       0.504  -9.015  -1.157  0.00  0.00    +0.045 A 
ATOM     15  C   UNL     1       1.271  -8.316  -2.080  0.00  0.00    +0.117 A 
ATOM     16  C   UNL     1       1.337  -6.935  -2.022  0.00  0.00    +0.054 A 
BRANCH  15  17
ATOM     17  O   UNL     1       1.952  -8.989  -3.045  0.00  0.00    -0.507 OA
ATOM     18  H   UNL     1       1.450  -9.124  -3.860  0.00  0.00    +0.292 HD
ENDBRANCH  15  17
ENDBRANCH   2  11
TORSDOF 3
