REMARK  Name = ZINC39769604
REMARK  4 active torsions:
REMARK  status: ('A' for Active; 'I' for Inactive)
REMARK    1  A    between atoms: C_4  and  C_7
REMARK    2  A    between atoms: C_9  and  C_20
REMARK    3  A    between atoms: N_22  and  N_23
REMARK    4  A    between atoms: C_24  and  C_25
REMARK                            x       y       z     vdW  Elec       q    Type
REMARK                         _______ _______ _______ _____ _____    ______ ____
ROOT
ATOM      1  C   UNL     1       3.711  -0.707  -0.038  0.00  0.00    +0.167 C 
ATOM      2  C   UNL     1       4.050  -1.259   1.363  0.00  0.00    +0.243 C 
ATOM      3  N   UNL     1       4.099  -2.714   1.168  0.00  0.00    -0.156 NA
ATOM      4  N   UNL     1       3.866  -3.016   0.002  0.00  0.00    -0.076 NA
ATOM      5  N   UNL     1       3.615  -1.934  -0.851  0.00  0.00    -0.173 N 
ATOM      6  C   UNL     1       3.327  -2.001  -2.212  0.00  0.00    +0.228 A 
ATOM      7  C   UNL     1       3.228  -3.228  -3.010  0.00  0.00    +0.204 A 
ATOM      8  N   UNL     1       2.944  -2.896  -4.239  0.00  0.00    -0.032 NA
ATOM      9  O   UNL     1       2.849  -1.484  -4.297  0.00  0.00    -0.239 OA
ATOM     10  N   UNL     1       3.093  -0.984  -2.994  0.00  0.00    -0.030 NA
ATOM     11  N   UNL     1       3.406  -4.523  -2.537  0.00  0.00    -0.338 N 
ATOM     12  H   UNL     1       3.616  -4.673  -1.602  0.00  0.00    +0.144 HD
ATOM     13  H   UNL     1       3.321  -5.276  -3.142  0.00  0.00    +0.144 HD
ENDROOT
BRANCH   1  17
ATOM     14  C   UNL     1      -0.017   1.378   0.010  0.00  0.00    +0.000 A 
ATOM     15  C   UNL     1       1.171   2.086   0.002  0.00  0.00    +0.000 A 
ATOM     16  C   UNL     1       2.377   1.411  -0.013  0.00  0.00    +0.005 A 
ATOM     17  C   UNL     1       2.396   0.029  -0.020  0.00  0.00    -0.022 A 
ATOM     18  C   UNL     1       1.208  -0.679  -0.012  0.00  0.00    +0.005 A 
ATOM     19  C   UNL     1       0.002  -0.004   0.002  0.00  0.00    +0.000 A 
ENDBRANCH   1  17
BRANCH   2  20
ATOM     20  C   UNL     1       5.386  -0.739   1.827  0.00  0.00    +0.261 C 
ATOM     21  O   UNL     1       6.373  -1.438   1.736  0.00  0.00    -0.272 OA
ATOM     22  N   UNL     1       5.483   0.502   2.344  0.00  0.00    -0.205 N 
ATOM     23  H   UNL     1       4.694   1.060   2.417  0.00  0.00    +0.177 HD
BRANCH  22  24
ATOM     24  N   UNL     1       6.726   0.985   2.776  0.00  0.00    -0.189 NA
ATOM     25  C   UNL     1       6.818   2.163   3.267  0.00  0.00    +0.149 C 
BRANCH  25  26
ATOM     26  C   UNL     1       8.154   2.683   3.731  0.00  0.00    +0.219 C 
ATOM     27  N   UNL     1       9.178   1.641   3.588  0.00  0.00    -0.359 N 
ATOM     28  C   UNL     1       9.655   1.396   4.775  0.00  0.00    +0.060 A 
ATOM     29  C   UNL     1      10.684   0.470   5.267  0.00  0.00    +0.027 A 
ATOM     30  C   UNL     1      10.973   0.436   6.583  0.00  0.00    +0.002 A 
ATOM     31  C   UNL     1      10.326   1.258   7.523  0.00  0.00    +0.002 A 
ATOM     32  C   UNL     1       9.368   2.141   7.179  0.00  0.00    +0.027 A 
ATOM     33  C   UNL     1       8.970   2.266   5.770  0.00  0.00    +0.060 A 
ATOM     34  N   UNL     1       8.097   3.015   5.160  0.00  0.00    -0.359 N 
ATOM     35  H   UNL     1       9.450   1.212   2.762  0.00  0.00    +0.162 HD
ATOM     36  H   UNL     1       7.516   3.672   5.574  0.00  0.00    +0.162 HD
ENDBRANCH  25  26
ENDBRANCH  22  24
ENDBRANCH   2  20
TORSDOF 4
