REMARK  Name = ZINC39710416
REMARK  12 active torsions:
REMARK  status: ('A' for Active; 'I' for Inactive)
REMARK    1  A    between atoms: C_1  and  C_2
REMARK    2  A    between atoms: C_2  and  C_3
REMARK    3  A    between atoms: C_10  and  C_15
REMARK    4  A    between atoms: C_15  and  C_17
REMARK    5  A    between atoms: C_15  and  N_27
REMARK    6  A    between atoms: N_22  and  C_23
REMARK    7  A    between atoms: C_23  and  C_24
REMARK    8  A    between atoms: C_23  and  C_25
REMARK    9  A    between atoms: C_23  and  C_26
REMARK   10  A    between atoms: N_30  and  C_33
REMARK   11  A    between atoms: C_35  and  C_40
REMARK   12  A    between atoms: C_38  and  C_39
REMARK                            x       y       z     vdW  Elec       q    Type
REMARK                         _______ _______ _______ _____ _____    ______ ____
ROOT
ATOM      1  C   UNL     1       5.375  -3.216  -3.436  0.00  0.00    -0.009 C 
ENDROOT
BRANCH   1   9
ATOM      2  C   UNL     1       1.004  -0.052  -1.214  0.00  0.00    -0.047 A 
ATOM      3  C   UNL     1       0.317  -0.061  -2.428  0.00  0.00    +0.005 A 
ATOM      4  C   UNL     1       0.888  -0.469  -3.591  0.00  0.00    +0.024 A 
ATOM      5  C   UNL     1       2.225  -0.907  -3.615  0.00  0.00    +0.040 A 
ATOM      6  N   UNL     1       2.776  -1.305  -4.761  0.00  0.00    -0.285 N 
ATOM      7  C   UNL     1       4.025  -1.728  -4.854  0.00  0.00    +0.223 C 
ATOM      8  O   UNL     1       4.473  -2.079  -5.930  0.00  0.00    -0.275 OA
ATOM      9  C   UNL     1       4.895  -1.775  -3.618  0.00  0.00    +0.088 C 
ATOM     10  C   UNL     1       4.274  -1.323  -2.311  0.00  0.00    -0.006 C 
ATOM     11  C   UNL     1       2.976  -0.908  -2.347  0.00  0.00    -0.007 A 
ATOM     12  C   UNL     1       2.300  -0.451  -1.132  0.00  0.00    +0.013 A 
ATOM     13  H   UNL     1       2.235  -1.283  -5.566  0.00  0.00    +0.155 HD
BRANCH   2  15
ATOM     14  C   UNL     1       0.490   1.926   0.190  0.00  0.00    +0.009 C 
ATOM     15  C   UNL     1       0.297   0.416   0.031  0.00  0.00    +0.032 C 
ENDBRANCH   2  15
ENDBRANCH   1   9
BRANCH   1  16
ATOM     16  N   UNL     1       6.138  -3.632  -4.621  0.00  0.00    +0.387 N 
ATOM     17  C   UNL     1       6.694  -4.972  -4.396  0.00  0.00    -0.059 C 
ATOM     18  C   UNL     1       7.393  -5.454  -5.672  0.00  0.00    +0.086 C 
ATOM     19  N   UNL     1       8.384  -4.443  -6.072  0.00  0.00    -0.333 N 
ATOM     20  C   UNL     1       7.948  -3.042  -6.162  0.00  0.00    +0.086 C 
ATOM     21  C   UNL     1       7.223  -2.673  -4.863  0.00  0.00    -0.059 C 
ATOM     22  H   UNL     1       5.525  -3.655  -5.422  0.00  0.00    -0.081 HD
BRANCH  19  23
ATOM     23  C   UNL     1       9.703  -4.805  -6.357  0.00  0.00    +0.033 A 
ATOM     24  C   UNL     1      10.066  -5.145  -7.654  0.00  0.00    +0.026 A 
ATOM     25  C   UNL     1      11.371  -5.502  -7.932  0.00  0.00    -0.049 A 
ATOM     26  C   UNL     1      12.316  -5.520  -6.922  0.00  0.00    +0.004 A 
ATOM     27  C   UNL     1      11.957  -5.182  -5.630  0.00  0.00    +0.005 A 
ATOM     28  C   UNL     1      10.655  -4.819  -5.346  0.00  0.00    -0.029 A 
ATOM     29  C   UNL     1      10.267  -4.444  -3.939  0.00  0.00    +0.045 C 
ATOM     30  C   UNL     1      11.766  -5.871  -9.339  0.00  0.00    +0.044 C 
ENDBRANCH  19  23
ENDBRANCH   1  16
BRANCH   1  31
ATOM     31  C   UNL     1       4.167  -4.137  -3.258  0.00  0.00    +0.205 C 
ATOM     32  N   UNL     1       3.255  -4.015  -4.404  0.00  0.00    -0.152 NA
ATOM     33  N   UNL     1       2.163  -3.608  -4.003  0.00  0.00    -0.070 NA
ATOM     34  N   UNL     1       2.135  -3.398  -2.625  0.00  0.00    -0.179 N 
ATOM     35  N   UNL     1       3.361  -3.712  -2.094  0.00  0.00    -0.183 NA
ATOM     36  H   UNL     1       1.369  -3.080  -2.121  0.00  0.00    +0.191 HD
BRANCH  35  37
ATOM     37  C   UNL     1       3.249  -4.795  -1.108  0.00  0.00    +0.035 C 
ATOM     38  C   UNL     1       4.645  -5.189  -0.621  0.00  0.00    +0.029 C 
ATOM     39  C   UNL     1       2.410  -4.319   0.080  0.00  0.00    +0.029 C 
ATOM     40  C   UNL     1       2.574  -6.006  -1.756  0.00  0.00    +0.029 C 
ENDBRANCH  35  37
ENDBRANCH   1  31
TORSDOF 6
