REMARK  Name = ZINC38598721
REMARK  2 active torsions:
REMARK  status: ('A' for Active; 'I' for Inactive)
REMARK    1  A    between atoms: C_1  and  C_2
REMARK    2  A    between atoms: C_4  and  C_24
REMARK                            x       y       z     vdW  Elec       q    Type
REMARK                         _______ _______ _______ _____ _____    ______ ____
ROOT
ATOM      1  C   UNL     1      -0.018   1.503   0.010  0.00  0.00    +0.062 C 
ATOM      2  C   UNL     1       0.002  -0.004   0.002  0.00  0.00    +0.022 C 
ATOM      3  C   UNL     1      -1.064  -0.752   0.003  0.00  0.00    -0.004 C 
ATOM      4  C   UNL     1      -2.522  -0.386  -0.141  0.00  0.00    +0.059 C 
ATOM      5  C   UNL     1      -3.018  -1.085  -1.415  0.00  0.00    +0.108 C 
ATOM      6  C   UNL     1      -2.419  -2.446  -1.570  0.00  0.00    +0.216 C 
ATOM      7  O   UNL     1      -3.009  -3.211  -2.304  0.00  0.00    -0.276 OA
ATOM      8  N   UNL     1      -1.312  -2.916  -0.995  0.00  0.00    -0.292 N 
ATOM      9  C   UNL     1      -0.615  -2.203   0.068  0.00  0.00    +0.210 C 
ATOM     10  N   UNL     1       0.833  -2.133  -0.134  0.00  0.00    -0.213 N 
ATOM     11  N   UNL     1       1.158  -0.770  -0.014  0.00  0.00    -0.265 N 
ATOM     12  C   UNL     1       1.675  -3.155  -0.388  0.00  0.00    +0.150 C 
ATOM     13  N   UNL     1       1.235  -4.397  -0.488  0.00  0.00    -0.221 NA
ATOM     14  C   UNL     1       2.025  -5.449  -0.672  0.00  0.00    +0.225 C 
ATOM     15  N   UNL     1       3.335  -5.403  -0.457  0.00  0.00    -0.218 NA
ATOM     16  C   UNL     1       3.827  -4.217  -0.111  0.00  0.00    +0.164 C 
ATOM     17  N   UNL     1       4.813  -3.826   0.639  0.00  0.00    -0.219 NA
ATOM     18  C   UNL     1       4.691  -2.534   0.969  0.00  0.00    +0.218 C 
ATOM     19  N   UNL     1       3.722  -1.932   0.337  0.00  0.00    -0.253 NA
ATOM     20  C   UNL     1       3.150  -2.925  -0.574  0.00  0.00    +0.239 C 
ATOM     21  H   UNL     1      -0.956  -3.766  -1.296  0.00  0.00    +0.151 HD
ATOM     22  H   UNL     1       2.060  -0.417   0.051  0.00  0.00    +0.170 HD
ENDROOT
BRANCH   4  23
ATOM     23  C   UNL     1      -3.299  -0.873   1.055  0.00  0.00    -0.040 A 
ATOM     24  C   UNL     1      -3.326  -2.221   1.359  0.00  0.00    +0.004 A 
ATOM     25  C   UNL     1      -4.039  -2.668   2.456  0.00  0.00    +0.000 A 
ATOM     26  C   UNL     1      -4.724  -1.767   3.249  0.00  0.00    +0.000 A 
ATOM     27  C   UNL     1      -4.695  -0.418   2.946  0.00  0.00    +0.000 A 
ATOM     28  C   UNL     1      -3.979   0.029   1.851  0.00  0.00    +0.004 A 
ENDBRANCH   4  23
TORSDOF 1
