REMARK  Name = ZINC02313280
REMARK  5 active torsions:
REMARK  status: ('A' for Active; 'I' for Inactive)
REMARK    1  A    between atoms: C_8  and  C_10
REMARK    2  A    between atoms: N_12  and  C_13
REMARK    3  A    between atoms: C_13  and  N_15
REMARK    4  A    between atoms: N_15  and  C_16
REMARK    5  A    between atoms: C_18  and  N_23
REMARK                            x       y       z     vdW  Elec       q    Type
REMARK                         _______ _______ _______ _____ _____    ______ ____
ROOT
ATOM      1  C   UNL     1      -2.353   1.224  -0.226  0.00  0.00    +0.141 C 
ATOM      2  S   UNL     1      -2.323  -0.454  -0.569  0.00  0.00    -0.018 S 
ENDROOT
BRANCH   1   5
ATOM      3  C   UNL     1      -0.033   1.314  -0.466  0.00  0.00    +0.285 C 
ATOM      4  O   UNL     1      -0.011   0.123  -0.710  0.00  0.00    -0.266 OA
ATOM      5  N   UNL     1      -1.204   1.929  -0.211  0.00  0.00    -0.261 N 
ATOM      6  H   UNL     1      -1.222   2.879  -0.017  0.00  0.00    +0.157 HD
BRANCH   3  14
ATOM      7  C   UNL     1       5.353   4.049  -0.540  0.00  0.00    +0.001 A 
ATOM      8  C   UNL     1       4.579   5.158  -0.226  0.00  0.00    +0.004 A 
ATOM      9  C   UNL     1       3.213   5.048  -0.089  0.00  0.00    +0.047 A 
ATOM     10  C   UNL     1       2.596   3.815  -0.266  0.00  0.00    +0.136 A 
ATOM     11  C   UNL     1       3.385   2.693  -0.585  0.00  0.00    +0.021 A 
ATOM     12  C   UNL     1       4.769   2.827  -0.720  0.00  0.00    +0.011 A 
ATOM     13  C   UNL     1       2.453   1.573  -0.703  0.00  0.00    +0.063 A 
ATOM     14  C   UNL     1       1.218   2.084  -0.456  0.00  0.00    +0.191 A 
ATOM     15  O   UNL     1       1.314   3.407  -0.206  0.00  0.00    -0.450 OA
ENDBRANCH   3  14
ENDBRANCH   1   5
BRANCH   1  16
ATOM     16  N   UNL     1      -3.525   1.838   0.029  0.00  0.00    -0.294 N 
ATOM     17  H   UNL     1      -3.536   2.774   0.284  0.00  0.00    +0.154 HD
BRANCH  16  18
ATOM     18  C   UNL     1      -4.726   1.127  -0.075  0.00  0.00    +0.070 A 
ATOM     19  C   UNL     1      -4.845  -0.127   0.510  0.00  0.00    +0.059 A 
ATOM     20  C   UNL     1      -6.033  -0.825   0.410  0.00  0.00    +0.128 A 
ATOM     21  C   UNL     1      -7.101  -0.281  -0.280  0.00  0.00    +0.035 A 
ATOM     22  C   UNL     1      -6.986   0.964  -0.869  0.00  0.00    +0.042 A 
ATOM     23  C   UNL     1      -5.801   1.671  -0.769  0.00  0.00    +0.145 A 
ATOM     24  F   UNL     1      -5.689   2.888  -1.344  0.00  0.00    -0.204 F 
BRANCH  20  25
ATOM     25  N   UNL     1      -6.161  -2.159   1.038  0.00  0.00    +0.056 N 
ATOM     26  O   UNL     1      -7.207  -2.777   0.947  0.00  0.00    -0.126 OA
ATOM     27  O   UNL     1      -5.221  -2.638   1.647  0.00  0.00    -0.126 OA
ENDBRANCH  20  25
ENDBRANCH  16  18
ENDBRANCH   1  16
TORSDOF 5
