REMARK  Name = ZINC04290207
REMARK  2 active torsions:
REMARK  status: ('A' for Active; 'I' for Inactive)
REMARK    1  A    between atoms: C_7  and  C_11
REMARK    2  A    between atoms: C_7  and  O_15
REMARK                            x       y       z     vdW  Elec       q    Type
REMARK                         _______ _______ _______ _____ _____    ______ ____
ROOT
ATOM      1  C   UNL     1      -2.255   1.238   1.153  0.00  0.00    +0.001 C 
ATOM      2  C   UNL     1      -0.773   1.602   1.245  0.00  0.00    +0.006 C 
ATOM      3  C   UNL     1      -0.013   1.086   0.008  0.00  0.00    +0.055 C 
ATOM      4  C   UNL     1      -0.782   1.606  -1.187  0.00  0.00    +0.067 C 
ATOM      5  N   UNL     1      -0.421   2.295  -2.174  0.00  0.00    -0.090 NA
ATOM      6  O   UNL     1      -1.505   2.766  -2.953  0.00  0.00    -0.349 OA
ATOM      7  C   UNL     1      -2.675   1.995  -2.617  0.00  0.00    +0.340 C 
ATOM      8  C   UNL     1      -2.272   1.293  -1.320  0.00  0.00    +0.120 C 
ATOM      9  C   UNL     1      -2.930   1.872  -0.070  0.00  0.00    +0.016 C 
ENDROOT
BRANCH   7  10
ATOM     10  C   UNL     1      -2.980   0.972  -3.713  0.00  0.00    +0.459 C 
ATOM     11  F   UNL     1      -4.031   0.146  -3.300  0.00  0.00    -0.164 F 
ATOM     12  F   UNL     1      -3.345   1.641  -4.886  0.00  0.00    -0.164 F 
ATOM     13  F   UNL     1      -1.842   0.194  -3.954  0.00  0.00    -0.164 F 
ENDBRANCH   7  10
BRANCH   7  14
ATOM     14  O   UNL     1      -3.800   2.849  -2.399  0.00  0.00    -0.347 OA
ATOM     15  H   UNL     1      -4.096   3.319  -3.191  0.00  0.00    +0.214 HD
ENDBRANCH   7  14
TORSDOF 2
