REMARK  Name = ZINC13691077
REMARK  5 active torsions:
REMARK  status: ('A' for Active; 'I' for Inactive)
REMARK    1  A    between atoms: C_1  and  C_2
REMARK    2  A    between atoms: C_3  and  C_8
REMARK    3  A    between atoms: N_5  and  C_7
REMARK    4  A    between atoms: N_17  and  C_20
REMARK    5  A    between atoms: C_20  and  C_21
REMARK                            x       y       z     vdW  Elec       q    Type
REMARK                         _______ _______ _______ _____ _____    ______ ____
ROOT
ATOM      1  C   UNL     1       0.217  -0.376  -2.542  0.00  0.00    +0.083 C 
ATOM      2  N   UNL     1       0.157  -1.192  -3.663  0.00  0.00    -0.264 N 
ATOM      3  O   UNL     1      -0.247  -0.340  -4.753  0.00  0.00    -0.256 OA
ATOM      4  C   UNL     1       0.550   0.822  -4.476  0.00  0.00    +0.271 C 
ATOM      5  C   UNL     1       0.390   0.919  -2.950  0.00  0.00    +0.081 C 
ATOM      6  H   UNL     1       0.348  -2.142  -3.704  0.00  0.00    +0.194 HD
ATOM      7  C   UNL     1       0.404   2.298  -2.733  0.00  0.00    +0.254 C 
ATOM      8  O   UNL     1       0.766   2.845  -1.706  0.00  0.00    -0.270 OA
ATOM      9  N   UNL     1      -0.045   2.929  -3.836  0.00  0.00    -0.231 N 
ATOM     10  C   UNL     1      -0.047   2.123  -4.935  0.00  0.00    +0.259 C 
ATOM     11  O   UNL     1      -0.458   2.388  -6.044  0.00  0.00    -0.272 OA
ENDROOT
BRANCH   1  14
ATOM     12  C   UNL     1       0.111  -3.395  -1.569  0.00  0.00    +0.068 C 
ATOM     13  C   UNL     1       0.060  -2.168  -0.696  0.00  0.00    +0.069 A 
ATOM     14  C   UNL     1       0.108  -0.829  -1.143  0.00  0.00    +0.041 A 
ATOM     15  C   UNL     1       0.033  -0.023  -0.025  0.00  0.00    +0.118 A 
ATOM     16  N   UNL     1      -0.055  -0.830   1.047  0.00  0.00    -0.274 N 
ATOM     17  N   UNL     1      -0.043  -2.157   0.605  0.00  0.00    -0.176 NA
ATOM     18  C   UNL     1      -0.154  -0.393   2.442  0.00  0.00    +0.172 C 
ENDBRANCH   1  14
BRANCH   9  19
ATOM     19  C   UNL     1      -0.465   4.333  -3.857  0.00  0.00    +0.152 C 
BRANCH  19  20
ATOM     20  C   UNL     1       0.720   5.207  -4.180  0.00  0.00    -0.030 A 
ATOM     21  C   UNL     1       1.516   5.696  -3.162  0.00  0.00    +0.005 A 
ATOM     22  C   UNL     1       2.603   6.497  -3.458  0.00  0.00    +0.000 A 
ATOM     23  C   UNL     1       2.893   6.810  -4.773  0.00  0.00    +0.000 A 
ATOM     24  C   UNL     1       2.096   6.321  -5.792  0.00  0.00    +0.000 A 
ATOM     25  C   UNL     1       1.013   5.515  -5.495  0.00  0.00    +0.005 A 
ENDBRANCH  19  20
ENDBRANCH   9  19
TORSDOF 3
