REMARK  Name = ZINC63362344
REMARK  5 active torsions:
REMARK  status: ('A' for Active; 'I' for Inactive)
REMARK    1  A    between atoms: C_1  and  C_2
REMARK    2  A    between atoms: C_2  and  C_4
REMARK    3  A    between atoms: C_2  and  N_18
REMARK    4  A    between atoms: N_6  and  C_7
REMARK    5  A    between atoms: C_21  and  C_37
REMARK                            x       y       z     vdW  Elec       q    Type
REMARK                         _______ _______ _______ _____ _____    ______ ____
ROOT
ATOM      1  N   UNL     1       0.688  -0.476  -1.203  0.00  0.00    -0.212 N 
ATOM      2  C   UNL     1       1.796  -1.245  -1.192  0.00  0.00    +0.249 C 
ATOM      3  O   UNL     1       2.406  -1.635  -0.220  0.00  0.00    -0.273 OA
ATOM      4  C   UNL     1       2.121  -1.519  -2.645  0.00  0.00    +0.136 C 
ATOM      5  C   UNL     1       3.496  -0.939  -2.995  0.00  0.00    +0.139 C 
ATOM      6  C   UNL     1       3.514  -0.756  -4.508  0.00  0.00    -0.034 C 
ATOM      7  C   UNL     1       4.551  -1.458  -4.957  0.00  0.00    -0.001 A 
ATOM      8  C   UNL     1       5.110  -1.619  -6.309  0.00  0.00    +0.010 A 
ATOM      9  C   UNL     1       6.193  -2.434  -6.416  0.00  0.00    +0.001 A 
ATOM     10  C   UNL     1       6.768  -3.097  -5.327  0.00  0.00    +0.002 A 
ATOM     11  C   UNL     1       6.322  -3.002  -4.049  0.00  0.00    +0.026 A 
ATOM     12  C   UNL     1       5.189  -2.170  -3.809  0.00  0.00    +0.043 A 
ATOM     13  N   UNL     1       4.570  -1.886  -2.687  0.00  0.00    -0.375 N 
ATOM     14  C   UNL     1       2.469   0.031  -5.260  0.00  0.00    +0.052 C 
ATOM     15  C   UNL     1       1.092  -0.510  -4.825  0.00  0.00    +0.115 C 
ATOM     16  N   UNL     1       1.117  -0.712  -3.373  0.00  0.00    -0.269 N 
ATOM     17  C   UNL     1       0.288  -0.204  -2.452  0.00  0.00    +0.313 C 
ATOM     18  O   UNL     1      -0.712   0.435  -2.719  0.00  0.00    -0.252 OA
ATOM     19  C   UNL     1       2.016  -3.007  -2.983  0.00  0.00    +0.044 C 
ATOM     20  H   UNL     1       4.779  -2.240  -1.808  0.00  0.00    +0.160 HD
ENDROOT
BRANCH   1  22
ATOM     21  C   UNL     1      -0.019   1.526   0.010  0.00  0.00    +0.038 C 
ATOM     22  C   UNL     1       0.002  -0.004   0.002  0.00  0.00    +0.168 C 
BRANCH  22  23
ATOM     23  C   UNL     1      -1.412  -0.526   0.013  0.00  0.00    +0.234 C 
ATOM     24  O   UNL     1      -1.808  -1.223  -0.897  0.00  0.00    -0.274 OA
ATOM     25  N   UNL     1      -2.236  -0.217   1.033  0.00  0.00    -0.307 N 
ATOM     26  H   UNL     1      -1.920   0.341   1.761  0.00  0.00    +0.149 HD
BRANCH  25  27
ATOM     27  C   UNL     1      -3.611  -0.724   1.044  0.00  0.00    +0.103 C 
ATOM     28  C   UNL     1      -4.487   0.213   1.873  0.00  0.00    +0.027 C 
ATOM     29  C   UNL     1      -5.861  -0.444   2.054  0.00  0.00    +0.007 C 
ATOM     30  C   UNL     1      -5.702  -1.643   2.986  0.00  0.00    +0.035 C 
ATOM     31  C   UNL     1      -4.586  -2.537   2.513  0.00  0.00    -0.042 A 
ATOM     32  C   UNL     1      -3.623  -2.113   1.625  0.00  0.00    -0.024 A 
ATOM     33  C   UNL     1      -2.616  -2.986   1.236  0.00  0.00    +0.006 A 
ATOM     34  C   UNL     1      -2.575  -4.274   1.729  0.00  0.00    +0.000 A 
ATOM     35  C   UNL     1      -3.543  -4.700   2.618  0.00  0.00    +0.000 A 
ATOM     36  C   UNL     1      -4.543  -3.835   3.006  0.00  0.00    +0.004 A 
ENDBRANCH  25  27
ENDBRANCH  22  23
ENDBRANCH   1  22
TORSDOF 3
