REMARK  Name = ZINC11818114
REMARK  5 active torsions:
REMARK  status: ('A' for Active; 'I' for Inactive)
REMARK    1  A    between atoms: C_1  and  C_2
REMARK    2  A    between atoms: C_3  and  C_12
REMARK    3  A    between atoms: C_5  and  C_7
REMARK    4  A    between atoms: C_12  and  N_53
REMARK    5  A    between atoms: C_25  and  C_27
REMARK                            x       y       z     vdW  Elec       q    Type
REMARK                         _______ _______ _______ _____ _____    ______ ____
ROOT
ATOM      1  C   UNL     1       3.854   6.713   2.201  0.00  0.00    -0.072 C 
ATOM      2  C   UNL     1       3.915   7.084   3.689  0.00  0.00    +0.019 C 
ATOM      3  C   UNL     1       5.062   8.042   3.884  0.00  0.00    -0.022 A 
ATOM      4  C   UNL     1       5.725   8.441   5.106  0.00  0.00    +0.003 A 
ATOM      5  C   UNL     1       5.536   8.097   6.448  0.00  0.00    +0.010 A 
ATOM      6  C   UNL     1       6.372   8.685   7.364  0.00  0.00    +0.001 A 
ATOM      7  C   UNL     1       7.361   9.580   6.991  0.00  0.00    +0.002 A 
ATOM      8  C   UNL     1       7.570   9.940   5.671  0.00  0.00    +0.026 A 
ATOM      9  C   UNL     1       6.737   9.359   4.718  0.00  0.00    +0.047 A 
ATOM     10  N   UNL     1       6.671   9.488   3.360  0.00  0.00    -0.359 N 
ATOM     11  H   UNL     1       7.248  10.054   2.824  0.00  0.00    +0.166 HD
ATOM     12  C   UNL     1       5.667   8.699   2.868  0.00  0.00    +0.012 A 
ATOM     13  C   UNL     1       5.250   8.545   1.425  0.00  0.00    +0.030 C 
ATOM     14  N   UNL     1       3.889   7.957   1.399  0.00  0.00    +0.393 N 
ATOM     15  H   UNL     1       3.228   8.632   1.804  0.00  0.00    -0.080 HD
ENDROOT
BRANCH  13  16
ATOM     16  C   UNL     1       5.211   9.897   0.761  0.00  0.00    +0.033 A 
ATOM     17  C   UNL     1       6.367  10.426   0.219  0.00  0.00    +0.022 A 
ATOM     18  C   UNL     1       6.319  11.668  -0.395  0.00  0.00    +0.003 A 
ATOM     19  C   UNL     1       5.106  12.340  -0.429  0.00  0.00    +0.020 A 
ATOM     20  C   UNL     1       3.993  11.752   0.140  0.00  0.00    +0.111 A 
ATOM     21  N   UNL     1       4.075  10.565   0.710  0.00  0.00    -0.261 NA
ENDBRANCH  13  16
BRANCH  14  22
ATOM     22  C   UNL     1       3.490   7.671   0.006  0.00  0.00    -0.017 C 
BRANCH  22  25
ATOM     23  C   UNL     1       0.556   8.746   0.039  0.00  0.00    +0.088 C 
ATOM     24  C   UNL     1       0.975   7.298   0.028  0.00  0.00    +0.124 A 
ATOM     25  C   UNL     1       2.236   6.834   0.014  0.00  0.00    +0.066 A 
ATOM     26  N   UNL     1       2.182   5.493   0.014  0.00  0.00    -0.215 NA
ATOM     27  C   UNL     1       0.920   5.124   0.018  0.00  0.00    +0.234 A 
ATOM     28  O   UNL     1       0.153   6.229   0.031  0.00  0.00    -0.440 OA
BRANCH  27  29
ATOM     29  C   UNL     1       0.430   3.737   0.017  0.00  0.00    +0.074 A 
ATOM     30  C   UNL     1      -0.872   3.273   0.027  0.00  0.00    +0.021 A 
ATOM     31  C   UNL     1      -1.082   1.914   0.017  0.00  0.00    +0.008 A 
ATOM     32  C   UNL     1      -0.013   1.076   0.008  0.00  0.00    +0.046 A 
ATOM     33  S   UNL     1       1.362   2.215   0.001  0.00  0.00    -0.092 S 
ENDBRANCH  27  29
ENDBRANCH  22  25
ENDBRANCH  14  22
TORSDOF 4
