REMARK  Name = ZINC17079864
REMARK  2 active torsions:
REMARK  status: ('A' for Active; 'I' for Inactive)
REMARK    1  A    between atoms: C_1  and  C_2
REMARK    2  A    between atoms: C_3  and  N_9
REMARK                            x       y       z     vdW  Elec       q    Type
REMARK                         _______ _______ _______ _____ _____    ______ ____
ROOT
ATOM      1  N   UNL     1       2.432   0.157  -0.030  0.00  0.00    -0.256 N 
ATOM      2  C   UNL     1       1.342  -0.631  -0.020  0.00  0.00    +0.268 A 
ATOM      3  O   UNL     1       1.456  -1.843  -0.029  0.00  0.00    -0.267 OA
ATOM      4  C   UNL     1       0.002  -0.004   0.002  0.00  0.00    +0.074 A 
ATOM      5  C   UNL     1      -1.309  -0.685   0.021  0.00  0.00    -0.023 A 
ATOM      6  C   UNL     1      -2.367   0.144   0.006  0.00  0.00    -0.004 A 
ATOM      7  S   UNL     1      -1.691   1.784   0.021  0.00  0.00    -0.075 S 
ATOM      8  C   UNL     1      -0.017   1.385   0.010  0.00  0.00    +0.092 A 
ATOM      9  N   UNL     1       1.141   2.116   0.003  0.00  0.00    -0.329 N 
ATOM     10  H   UNL     1       1.098   3.215   0.014  0.00  0.00    +0.168 HD
ATOM     11  C   UNL     1       2.338   1.497  -0.018  0.00  0.00    +0.166 A 
ATOM     12  S   UNL     1       3.768   2.437  -0.029  0.00  0.00    -0.012 S 
ATOM     13  C   UNL     1      -3.827  -0.206  -0.073  0.00  0.00    +0.043 C 
ATOM     14  C   UNL     1      -4.134  -0.540  -1.544  0.00  0.00    +0.005 C 
ATOM     15  C   UNL     1      -3.152  -1.623  -2.004  0.00  0.00    +0.000 C 
ATOM     16  C   UNL     1      -3.433  -2.822  -1.122  0.00  0.00    +0.000 C 
ATOM     17  C   UNL     1      -2.736  -2.771   0.226  0.00  0.00    +0.005 C 
ATOM     18  C   UNL     1      -1.325  -2.209   0.120  0.00  0.00    +0.037 C 
ENDROOT
BRANCH   1  21
ATOM     19  C   UNL     1       3.692  -0.421   2.455  0.00  0.00    +0.047 C 
ATOM     20  C   UNL     1       4.351  -0.734   1.137  0.00  0.00    -0.008 A 
ATOM     21  C   UNL     1       3.701  -0.436  -0.053  0.00  0.00    +0.056 A 
ATOM     22  C   UNL     1       4.313  -0.721  -1.266  0.00  0.00    +0.027 A 
ATOM     23  C   UNL     1       5.565  -1.306  -1.286  0.00  0.00    +0.003 A 
ATOM     24  C   UNL     1       6.208  -1.608  -0.101  0.00  0.00    +0.020 A 
ATOM     25  C   UNL     1       5.600  -1.325   1.111  0.00  0.00    +0.046 A 
ATOM     26 CL   UNL     1       6.412  -1.704   2.598  0.00  0.00    -0.083 Cl
ENDBRANCH   1  21
TORSDOF 1
