REMARK  Name = ZINC52094508
REMARK  5 active torsions:
REMARK  status: ('A' for Active; 'I' for Inactive)
REMARK    1  A    between atoms: C_1  and  N_2
REMARK    2  A    between atoms: N_2  and  C_3
REMARK    3  A    between atoms: C_3  and  C_5
REMARK    4  A    between atoms: C_3  and  C_11
REMARK    5  A    between atoms: C_5  and  C_6
REMARK                            x       y       z     vdW  Elec       q    Type
REMARK                         _______ _______ _______ _____ _____    ______ ____
ROOT
ATOM      1  C   UNL     1      -2.260  -0.058  -1.176  0.00  0.00    -0.045 A 
ATOM      2  C   UNL     1      -1.502   0.437  -2.220  0.00  0.00    +0.031 A 
ATOM      3  C   UNL     1      -2.125   0.873  -3.379  0.00  0.00    +0.067 A 
ATOM      4  C   UNL     1      -3.516   0.809  -3.487  0.00  0.00    +0.068 A 
ATOM      5  C   UNL     1      -4.269   0.311  -2.435  0.00  0.00    +0.043 A 
ATOM      6  C   UNL     1      -3.638  -0.126  -1.285  0.00  0.00    +0.022 A 
ATOM      7 BR   UNL     1      -4.663  -0.814   0.147  0.00  0.00    -0.050 Br
ATOM      8  N   UNL     1      -3.845   1.309  -4.745  0.00  0.00    -0.306 N 
ATOM      9  H   UNL     1      -4.742   1.390  -5.107  0.00  0.00    +0.170 HD
ATOM     10  C   UNL     1      -2.708   1.660  -5.373  0.00  0.00    +0.325 A 
ATOM     11  O   UNL     1      -2.642   2.134  -6.492  0.00  0.00    -0.247 OA
ATOM     12  N   UNL     1      -1.653   1.409  -4.575  0.00  0.00    -0.306 N 
ATOM     13  H   UNL     1      -0.723   1.574  -4.795  0.00  0.00    +0.170 HD
ENDROOT
BRANCH   1  14
ATOM     14  C   UNL     1      -1.582  -0.531   0.084  0.00  0.00    -0.040 C 
BRANCH  14  16
ATOM     15  C   UNL     1      -0.512   1.595   0.376  0.00  0.00    -0.100 C 
ATOM     16  N   UNL     1      -0.289   0.151   0.231  0.00  0.00    +0.382 N 
ATOM     17  H   UNL     1       0.277  -0.022  -0.587  0.00  0.00    -0.085 HD
ATOM     18  H   UNL     1       0.185  -0.201   1.049  0.00  0.00    -0.085 HD
ENDBRANCH  14  16
BRANCH  14  19
ATOM     19  C   UNL     1      -1.355  -2.042   0.004  0.00  0.00    -0.008 C 
BRANCH  19  20
ATOM     20  C   UNL     1      -0.842  -2.553   1.352  0.00  0.00    -0.012 C 
ATOM     21  C   UNL     1       0.611  -2.087   1.575  0.00  0.00    +0.003 C 
ATOM     22  C   UNL     1       1.289  -3.283   2.289  0.00  0.00    +0.000 C 
ATOM     23  C   UNL     1       0.652  -4.506   1.584  0.00  0.00    +0.000 C 
ATOM     24  C   UNL     1      -0.816  -4.091   1.358  0.00  0.00    +0.003 C 
ENDBRANCH  19  20
ENDBRANCH  14  19
ENDBRANCH   1  14
TORSDOF 4
