REMARK  Name = ZINC63502517
REMARK  7 active torsions:
REMARK  status: ('A' for Active; 'I' for Inactive)
REMARK    1  A    between atoms: C_1  and  C_2
REMARK    2  A    between atoms: C_6  and  N_8
REMARK    3  A    between atoms: C_13  and  C_15
REMARK    4  A    between atoms: C_16  and  C_18
REMARK    5  A    between atoms: C_23  and  C_30
REMARK    6  A    between atoms: C_35  and  N_36
REMARK    7  A    between atoms: C_37  and  C_39
REMARK                            x       y       z     vdW  Elec       q    Type
REMARK                         _______ _______ _______ _____ _____    ______ ____
ROOT
ATOM      1  C   UNL     1       1.787  -4.490   6.935  0.00  0.00    +0.039 A 
ATOM      2  C   UNL     1       1.824  -3.033   6.988  0.00  0.00    +0.015 A 
ATOM      3  C   UNL     1       1.838  -2.380   8.168  0.00  0.00    +0.028 A 
ATOM      4  C   UNL     1       1.815  -3.151   9.421  0.00  0.00    +0.058 A 
ATOM      5  N   UNL     1       1.827  -2.532  10.569  0.00  0.00    -0.369 N 
ATOM      6  C   UNL     1       1.804  -3.334  11.801  0.00  0.00    +0.198 C 
ATOM      7  C   UNL     1       1.766  -4.839  11.664  0.00  0.00    +0.244 C 
ATOM      8  O   UNL     1       1.745  -5.548  12.650  0.00  0.00    -0.273 OA
ATOM      9  N   UNL     1       1.755  -5.379  10.441  0.00  0.00    -0.282 N 
ATOM     10  C   UNL     1       1.777  -4.632   9.351  0.00  0.00    +0.057 A 
ATOM     11  C   UNL     1       1.759  -5.252   8.077  0.00  0.00    +0.038 A 
ATOM     12  H   UNL     1       1.852  -1.563  10.609  0.00  0.00    +0.161 HD
ATOM     13  H   UNL     1       1.731  -6.344  10.351  0.00  0.00    +0.155 HD
ENDROOT
BRANCH   1  21
ATOM     14  N   UNL     1       4.589  -4.338   2.913  0.00  0.00    -0.324 N 
ATOM     15  C   UNL     1       3.749  -5.529   2.727  0.00  0.00    +0.124 C 
ATOM     16  C   UNL     1       2.336  -5.217   3.234  0.00  0.00    +0.127 C 
ATOM     17  N   UNL     1       2.438  -4.625   4.575  0.00  0.00    -0.294 N 
ATOM     18  C   UNL     1       3.278  -3.434   4.762  0.00  0.00    +0.130 C 
ATOM     19  C   UNL     1       4.696  -3.749   4.256  0.00  0.00    +0.088 C 
ATOM     20  C   UNL     1       5.518  -2.461   4.188  0.00  0.00    +0.029 C 
ATOM     21  C   UNL     1       1.773  -5.165   5.616  0.00  0.00    +0.247 C 
ATOM     22  O   UNL     1       1.163  -6.206   5.472  0.00  0.00    -0.270 OA
BRANCH  14  28
ATOM     23  C   UNL     1       4.511  -1.843  -1.320  0.00  0.00    +0.044 C 
ATOM     24  C   UNL     1       5.265  -2.562  -0.232  0.00  0.00    -0.049 A 
ATOM     25  C   UNL     1       6.643  -2.669  -0.301  0.00  0.00    +0.003 A 
ATOM     26  C   UNL     1       7.339  -3.329   0.695  0.00  0.00    +0.002 A 
ATOM     27  C   UNL     1       6.661  -3.883   1.762  0.00  0.00    +0.023 A 
ATOM     28  C   UNL     1       5.278  -3.778   1.835  0.00  0.00    +0.030 A 
ATOM     29  C   UNL     1       4.582  -3.110   0.835  0.00  0.00    +0.026 A 
ENDBRANCH  14  28
ENDBRANCH   1  21
BRANCH   6  30
ATOM     30  C   UNL     1       3.027  -2.977  12.606  0.00  0.00    +0.005 A 
ATOM     31  C   UNL     1       4.107  -2.376  11.991  0.00  0.00    +0.008 A 
ATOM     32  C   UNL     1       5.230  -2.048  12.728  0.00  0.00    +0.000 A 
ATOM     33  C   UNL     1       5.275  -2.321  14.083  0.00  0.00    +0.002 A 
ATOM     34  C   UNL     1       4.198  -2.922  14.704  0.00  0.00    +0.023 A 
ATOM     35  C   UNL     1       3.067  -3.248  13.967  0.00  0.00    +0.039 A 
BRANCH  35  36
ATOM     36  N   UNL     1       1.972  -3.853  14.594  0.00  0.00    -0.285 N 
ATOM     37  C   UNL     1       2.159  -4.619  15.687  0.00  0.00    +0.214 C 
ATOM     38  O   UNL     1       3.266  -4.723  16.172  0.00  0.00    -0.276 OA
ATOM     39  C   UNL     1       0.994  -5.345  16.307  0.00  0.00    +0.109 C 
ATOM     40  H   UNL     1       1.077  -3.721  14.242  0.00  0.00    +0.155 HD
ENDBRANCH  35  36
ENDBRANCH   6  30
TORSDOF 4
