REMARK  Name = ZINC09111343
REMARK  7 active torsions:
REMARK  status: ('A' for Active; 'I' for Inactive)
REMARK    1  A    between atoms: C_1  and  C_2
REMARK    2  A    between atoms: C_2  and  C_3
REMARK    3  A    between atoms: C_3  and  N_4
REMARK    4  A    between atoms: C_11  and  N_31
REMARK    5  A    between atoms: C_21  and  C_22
REMARK    6  A    between atoms: C_21  and  N_65
REMARK    7  A    between atoms: C_34  and  O_38
REMARK                            x       y       z     vdW  Elec       q    Type
REMARK                         _______ _______ _______ _____ _____    ______ ____
ROOT
ATOM      1  N   UNL     1       7.887   0.601  -1.661  0.00  0.00    -0.223 N 
ATOM      2  C   UNL     1       7.020   0.675  -2.683  0.00  0.00    +0.240 C 
ATOM      3  O   UNL     1       6.979   1.684  -3.355  0.00  0.00    -0.274 OA
ATOM      4  C   UNL     1       6.098  -0.465  -3.011  0.00  0.00    +0.141 C 
ATOM      5  C   UNL     1       6.354  -0.934  -4.446  0.00  0.00    +0.064 C 
ATOM      6  C   UNL     1       5.825   0.088  -5.420  0.00  0.00    -0.023 A 
ATOM      7  C   UNL     1       6.242   0.010  -6.740  0.00  0.00    +0.038 A 
ATOM      8  C   UNL     1       5.784   0.917  -7.675  0.00  0.00    +0.127 A 
ATOM      9  C   UNL     1       4.901   1.911  -7.295  0.00  0.00    +0.034 A 
ATOM     10  C   UNL     1       4.484   1.997  -5.985  0.00  0.00    +0.025 A 
ATOM     11  C   UNL     1       4.946   1.085  -5.034  0.00  0.00    +0.033 A 
ATOM     12  N   UNL     1       4.494   1.229  -3.725  0.00  0.00    -0.329 N 
ATOM     13  C   UNL     1       4.644   0.012  -2.925  0.00  0.00    +0.081 C 
ATOM     14  C   UNL     1       4.284   0.311  -1.468  0.00  0.00    -0.054 C 
ATOM     15  C   UNL     1       2.748   2.032  -2.212  0.00  0.00    -0.059 C 
ATOM     16  C   UNL     1       3.115   1.732  -3.669  0.00  0.00    +0.087 C 
ATOM     17  C   UNL     1       6.309  -1.608  -2.061  0.00  0.00    +0.198 C 
ATOM     18  N   UNL     1       7.184  -1.564  -1.103  0.00  0.00    -0.131 NA
ATOM     19  C   UNL     1       7.966  -0.495  -0.890  0.00  0.00    +0.335 C 
ATOM     20  O   UNL     1       8.767  -0.520   0.026  0.00  0.00    -0.250 OA
ATOM     21  N   UNL     1       2.886   0.793  -1.417  0.00  0.00    +0.385 N 
ATOM     22  H   UNL     1       2.270   0.072  -1.813  0.00  0.00    -0.081 HD
ENDROOT
BRANCH   8  23
ATOM     23  N   UNL     1       6.237   0.824  -9.081  0.00  0.00    +0.056 N 
ATOM     24  O   UNL     1       5.832   1.625  -9.905  0.00  0.00    -0.126 OA
ATOM     25  O   UNL     1       7.015  -0.052  -9.414  0.00  0.00    -0.126 OA
ENDBRANCH   8  23
BRANCH  17  26
ATOM     26  O   UNL     1       5.565  -2.716  -2.207  0.00  0.00    -0.496 OA
ATOM     27  H   UNL     1       5.723  -3.437  -1.581  0.00  0.00    +0.293 HD
ENDBRANCH  17  26
BRANCH   1  28
ATOM     28  C   UNL     1       8.765   1.740  -1.381  0.00  0.00    +0.118 C 
BRANCH  28  30
ATOM     29  C   UNL     1       8.992   3.876  -0.106  0.00  0.00    +0.005 C 
ATOM     30  C   UNL     1       8.074   2.687  -0.398  0.00  0.00    +0.016 C 
ENDBRANCH  28  30
ENDBRANCH   1  28
BRANCH  21  31
ATOM     31  C   UNL     1       2.489   1.045  -0.016  0.00  0.00    -0.043 C 
BRANCH  31  32
ATOM     32  C   UNL     1       1.175   1.783   0.000  0.00  0.00    -0.060 A 
ATOM     33  C   UNL     1       1.160   3.165   0.008  0.00  0.00    +0.005 A 
ATOM     34  C   UNL     1      -0.043   3.846   0.023  0.00  0.00    +0.050 A 
ATOM     35  C   UNL     1      -1.237   3.144   0.031  0.00  0.00    +0.166 A 
ATOM     36  C   UNL     1      -1.222   1.752   0.017  0.00  0.00    +0.166 A 
ATOM     37  C   UNL     1      -0.013   1.076   0.008  0.00  0.00    +0.051 A 
ATOM     38  O   UNL     1      -2.510   1.302   0.033  0.00  0.00    -0.453 OA
ATOM     39  C   UNL     1      -3.306   2.423   0.459  0.00  0.00    +0.466 C 
ATOM     40  O   UNL     1      -2.535   3.567   0.045  0.00  0.00    -0.453 OA
ENDBRANCH  31  32
ENDBRANCH  21  31
TORSDOF 6
