REMARK  Name = ZINC12833024
REMARK  9 active torsions:
REMARK  status: ('A' for Active; 'I' for Inactive)
REMARK    1  A    between atoms: C_1  and  C_2
REMARK    2  A    between atoms: C_4  and  C_37
REMARK    3  A    between atoms: C_9  and  C_14
REMARK    4  A    between atoms: C_14  and  N_69
REMARK    5  A    between atoms: C_15  and  C_16
REMARK    6  A    between atoms: C_15  and  N_69
REMARK    7  A    between atoms: C_25  and  C_26
REMARK    8  A    between atoms: C_25  and  N_69
REMARK    9  A    between atoms: N_30  and  C_31
REMARK                            x       y       z     vdW  Elec       q    Type
REMARK                         _______ _______ _______ _____ _____    ______ ____
ROOT
ATOM      1  N   UNL     1      -1.393   7.761  -1.219  0.00  0.00    +0.390 N 
ATOM      2  H   UNL     1      -2.182   7.399  -1.768  0.00  0.00    -0.080 HD
ENDROOT
BRANCH   1   3
ATOM      3  C   UNL     1      -1.264   6.963   0.018  0.00  0.00    -0.036 C 
BRANCH   3  12
ATOM      4  C   UNL     1       1.441   0.187  -1.526  0.00  0.00    +0.044 C 
ATOM      5  C   UNL     1       0.278   1.123  -1.324  0.00  0.00    -0.050 A 
ATOM      6  C   UNL     1      -1.020   0.645  -1.453  0.00  0.00    +0.008 A 
ATOM      7  C   UNL     1      -2.099   1.484  -1.278  0.00  0.00    -0.026 A 
ATOM      8  C   UNL     1      -1.889   2.821  -0.957  0.00  0.00    +0.052 A 
ATOM      9  C   UNL     1      -0.572   3.302  -0.827  0.00  0.00    -0.001 A 
ATOM     10  C   UNL     1       0.508   2.433  -1.015  0.00  0.00    +0.013 A 
ATOM     11  C   UNL     1      -0.361   4.712  -0.495  0.00  0.00    +0.017 A 
ATOM     12  C   UNL     1      -1.446   5.507  -0.324  0.00  0.00    +0.001 A 
ATOM     13  C   UNL     1      -2.746   4.975  -0.465  0.00  0.00    +0.251 A 
ATOM     14  O   UNL     1      -3.708   5.707  -0.307  0.00  0.00    -0.268 OA
ATOM     15  N   UNL     1      -2.950   3.681  -0.770  0.00  0.00    -0.322 N 
ATOM     16  H   UNL     1      -3.856   3.348  -0.860  0.00  0.00    +0.169 HD
ATOM     17  C   UNL     1      -3.501   0.953  -1.427  0.00  0.00    +0.046 C 
ENDBRANCH   3  12
ENDBRANCH   1   3
BRANCH   1  18
ATOM     18  C   UNL     1      -0.158   7.650  -2.023  0.00  0.00    -0.042 C 
BRANCH  18  19
ATOM     19  C   UNL     1       1.001   8.287  -1.301  0.00  0.00    -0.060 A 
ATOM     20  C   UNL     1       1.347   9.597  -1.573  0.00  0.00    +0.005 A 
ATOM     21  C   UNL     1       2.406  10.188  -0.910  0.00  0.00    +0.050 A 
ATOM     22  C   UNL     1       3.131   9.463   0.022  0.00  0.00    +0.166 A 
ATOM     23  C   UNL     1       2.786   8.142   0.293  0.00  0.00    +0.166 A 
ATOM     24  C   UNL     1       1.720   7.558  -0.372  0.00  0.00    +0.051 A 
ATOM     25  O   UNL     1       3.642   7.652   1.237  0.00  0.00    -0.453 OA
ATOM     26  C   UNL     1       4.765   8.553   1.242  0.00  0.00    +0.466 C 
ATOM     27  O   UNL     1       4.203   9.802   0.796  0.00  0.00    -0.453 OA
ENDBRANCH  18  19
ENDBRANCH   1  18
BRANCH   1  28
ATOM     28  C   UNL     1      -1.652   9.176  -0.883  0.00  0.00    +0.001 C 
BRANCH  28  29
ATOM     29  C   UNL     1      -2.165   9.880  -2.113  0.00  0.00    +0.135 A 
ATOM     30  N   UNL     1      -1.443  10.445  -3.049  0.00  0.00    -0.115 NA
ATOM     31  N   UNL     1      -2.246  10.935  -3.930  0.00  0.00    -0.023 NA
ATOM     32  N   UNL     1      -3.462  10.703  -3.576  0.00  0.00    -0.044 NA
ATOM     33  N   UNL     1      -3.453  10.054  -2.460  0.00  0.00    -0.228 N 
BRANCH  33  34
ATOM     34  C   UNL     1      -4.626   9.595  -1.712  0.00  0.00    +0.111 C 
ATOM     35  C   UNL     1      -5.444   8.638  -2.583  0.00  0.00    +0.027 C 
ATOM     36  C   UNL     1      -6.668   8.158  -1.802  0.00  0.00    +0.002 C 
ATOM     37  C   UNL     1      -7.532   9.362  -1.417  0.00  0.00    +0.000 C 
ATOM     38  C   UNL     1      -6.714  10.318  -0.547  0.00  0.00    +0.002 C 
ATOM     39  C   UNL     1      -5.489  10.798  -1.328  0.00  0.00    +0.027 C 
ENDBRANCH  33  34
ENDBRANCH  28  29
ENDBRANCH   1  28
TORSDOF 7
