REMARK  Name = ZINC13070919
REMARK  5 active torsions:
REMARK  status: ('A' for Active; 'I' for Inactive)
REMARK    1  A    between atoms: N_9  and  C_26
REMARK    2  A    between atoms: C_10  and  S_12
REMARK    3  A    between atoms: S_12  and  C_13
REMARK    4  A    between atoms: C_13  and  C_14
REMARK    5  A    between atoms: C_26  and  C_27
REMARK                            x       y       z     vdW  Elec       q    Type
REMARK                         _______ _______ _______ _____ _____    ______ ____
ROOT
ATOM      1  C   UNL     1     -10.803   7.191  -0.492  0.00  0.00    +0.001 A 
ATOM      2  C   UNL     1     -10.155   6.495  -1.504  0.00  0.00    +0.002 A 
ATOM      3  C   UNL     1      -8.964   5.865  -1.274  0.00  0.00    +0.028 A 
ATOM      4  C   UNL     1      -8.387   5.920  -0.002  0.00  0.00    +0.079 A 
ATOM      5  C   UNL     1      -9.049   6.630   1.026  0.00  0.00    +0.065 A 
ATOM      6  C   UNL     1     -10.263   7.263   0.763  0.00  0.00    +0.015 A 
ATOM      7  C   UNL     1      -8.422   6.674   2.354  0.00  0.00    +0.263 A 
ATOM      8  O   UNL     1      -8.944   7.269   3.279  0.00  0.00    -0.267 OA
ATOM      9  N   UNL     1      -7.243   6.029   2.510  0.00  0.00    -0.280 N 
ATOM     10  C   UNL     1      -6.672   5.367   1.461  0.00  0.00    +0.173 A 
ATOM     11  N   UNL     1      -7.211   5.319   0.267  0.00  0.00    -0.223 NA
ENDROOT
BRANCH  10  12
ATOM     12  S   UNL     1      -5.135   4.545   1.722  0.00  0.00    -0.081 S 
BRANCH  12  13
ATOM     13  C   UNL     1      -4.856   3.867   0.068  0.00  0.00    +0.133 C 
BRANCH  13  14
ATOM     14  C   UNL     1      -3.559   3.099   0.051  0.00  0.00    +0.059 A 
ATOM     15  C   UNL     1      -3.574   1.718   0.044  0.00  0.00    +0.094 A 
ATOM     16  C   UNL     1      -2.357   1.028   0.029  0.00  0.00    +0.259 A 
ATOM     17  O   UNL     1      -2.336  -0.193   0.022  0.00  0.00    -0.267 OA
ATOM     18  N   UNL     1      -1.206   1.733   0.017  0.00  0.00    -0.267 N 
ATOM     19  C   UNL     1      -0.013   1.076   0.008  0.00  0.00    +0.111 A 
ATOM     20  C   UNL     1       1.154   1.761   0.001  0.00  0.00    +0.035 A 
ATOM     21  C   UNL     1       1.147   3.163   0.008  0.00  0.00    +0.020 A 
ATOM     22  C   UNL     1      -0.041   3.830   0.022  0.00  0.00    +0.048 A 
ATOM     23  C   UNL     1      -1.244   3.099   0.030  0.00  0.00    +0.141 A 
ATOM     24  N   UNL     1      -2.406   3.750   0.044  0.00  0.00    -0.233 NA
ATOM     25 BR   UNL     1       2.797   0.825  -0.019  0.00  0.00    -0.049 Br
ENDBRANCH  13  14
ENDBRANCH  12  13
ENDBRANCH  10  12
BRANCH   9  26
ATOM     26  C   UNL     1      -6.574   6.041   3.813  0.00  0.00    +0.201 C 
BRANCH  26  27
ATOM     27  C   UNL     1      -5.649   7.228   3.892  0.00  0.00    +0.125 A 
ATOM     28  C   UNL     1      -5.978   8.453   4.339  0.00  0.00    +0.046 A 
ATOM     29  C   UNL     1      -4.815   9.251   4.241  0.00  0.00    +0.041 A 
ATOM     30  C   UNL     1      -3.847   8.468   3.732  0.00  0.00    +0.195 A 
ATOM     31  O   UNL     1      -4.358   7.244   3.523  0.00  0.00    -0.466 OA
ENDBRANCH  26  27
ENDBRANCH   9  26
TORSDOF 5
