REMARK  Name = ZINC39715474
REMARK  11 active torsions:
REMARK  status: ('A' for Active; 'I' for Inactive)
REMARK    1  A    between atoms: C_1  and  C_2
REMARK    2  A    between atoms: C_7  and  C_12
REMARK    3  A    between atoms: C_12  and  C_28
REMARK    4  A    between atoms: C_13  and  C_14
REMARK    5  A    between atoms: C_16  and  O_26
REMARK    6  A    between atoms: C_17  and  O_22
REMARK    7  A    between atoms: C_18  and  O_20
REMARK    8  A    between atoms: O_20  and  C_21
REMARK    9  A    between atoms: O_22  and  C_23
REMARK   10  A    between atoms: C_23  and  C_25
REMARK   11  A    between atoms: O_26  and  C_27
REMARK                            x       y       z     vdW  Elec       q    Type
REMARK                         _______ _______ _______ _____ _____    ______ ____
ROOT
ATOM      1  C   UNL     1      -1.045  -4.944   2.581  0.00  0.00    +0.072 C 
ATOM      2  C   UNL     1      -1.020  -6.293   2.595  0.00  0.00    +0.026 C 
ENDROOT
BRANCH   1   9
ATOM      3  C   UNL     1       1.113   1.698   2.815  0.00  0.00    +0.044 C 
ATOM      4  C   UNL     1       0.674   0.366   2.264  0.00  0.00    -0.048 A 
ATOM      5  C   UNL     1      -0.039   0.338   1.052  0.00  0.00    +0.005 A 
ATOM      6  C   UNL     1      -0.471  -0.808   0.489  0.00  0.00    +0.027 A 
ATOM      7  C   UNL     1      -0.195  -2.090   1.152  0.00  0.00    +0.060 A 
ATOM      8  N   UNL     1      -0.482  -3.323   0.849  0.00  0.00    -0.359 N 
ATOM      9  C   UNL     1       0.065  -4.177   1.911  0.00  0.00    +0.216 C 
ATOM     10  N   UNL     1       0.711  -3.277   2.874  0.00  0.00    -0.359 N 
ATOM     11  C   UNL     1       0.560  -2.061   2.435  0.00  0.00    +0.061 A 
ATOM     12  C   UNL     1       0.984  -0.752   2.951  0.00  0.00    +0.030 A 
ATOM     13  H   UNL     1      -0.969  -3.623   0.065  0.00  0.00    +0.162 HD
ATOM     14  H   UNL     1       1.165  -3.540   3.690  0.00  0.00    +0.162 HD
ENDBRANCH   1   9
BRANCH   2  15
ATOM     15  C   UNL     1      -2.176  -7.045   3.106  0.00  0.00    -0.017 A 
ATOM     16  C   UNL     1      -3.475  -6.595   2.847  0.00  0.00    +0.057 A 
ATOM     17  C   UNL     1      -4.559  -7.304   3.329  0.00  0.00    +0.166 A 
ATOM     18  C   UNL     1      -4.360  -8.466   4.070  0.00  0.00    +0.214 A 
ATOM     19  C   UNL     1      -3.068  -8.917   4.330  0.00  0.00    +0.166 A 
ATOM     20  C   UNL     1      -1.979  -8.216   3.846  0.00  0.00    +0.057 A 
BRANCH  19  21
ATOM     21  O   UNL     1      -2.878 -10.052   5.054  0.00  0.00    -0.491 OA
ATOM     22  C   UNL     1      -1.527 -10.457   5.283  0.00  0.00    +0.277 C 
ENDBRANCH  19  21
BRANCH  17  23
ATOM     23  O   UNL     1      -5.822  -6.867   3.078  0.00  0.00    -0.491 OA
ATOM     24  C   UNL     1      -5.953  -5.668   2.311  0.00  0.00    +0.277 C 
ENDBRANCH  17  23
BRANCH  18  25
ATOM     25  O   UNL     1      -5.428  -9.161   4.543  0.00  0.00    -0.419 OA
BRANCH  25  26
ATOM     26  C   UNL     1      -5.948 -10.123   3.765  0.00  0.00    +0.309 C 
ATOM     27  O   UNL     1      -5.466 -10.350   2.680  0.00  0.00    -0.251 OA
ATOM     28  C   UNL     1      -7.133 -10.922   4.244  0.00  0.00    +0.136 C 
ENDBRANCH  25  26
ENDBRANCH  18  25
ENDBRANCH   2  15
BRANCH   1  29
ATOM     29  C   UNL     1      -2.127  -4.242   3.203  0.00  0.00    +0.099 C 
ATOM     30  N   UNL     1      -2.985  -3.685   3.696  0.00  0.00    -0.191 NA
ENDBRANCH   1  29
TORSDOF 7
