REMARK  Name = ZINC38685617
REMARK  11 active torsions:
REMARK  status: ('A' for Active; 'I' for Inactive)
REMARK    1  A    between atoms: C_1  and  C_2
REMARK    2  A    between atoms: C_2  and  O_3
REMARK    3  A    between atoms: O_3  and  C_4
REMARK    4  A    between atoms: C_9  and  C_31
REMARK    5  A    between atoms: C_11  and  N_14
REMARK    6  A    between atoms: C_15  and  C_17
REMARK    7  A    between atoms: C_17  and  N_18
REMARK    8  A    between atoms: N_21  and  C_24
REMARK    9  A    between atoms: C_31  and  O_33
REMARK   10  A    between atoms: O_33  and  C_34
REMARK   11  A    between atoms: C_34  and  C_35
REMARK                            x       y       z     vdW  Elec       q    Type
REMARK                         _______ _______ _______ _____ _____    ______ ____
ROOT
ATOM      1  N   UNL     1      -5.093  -5.316  -0.259  0.00  0.00    -0.288 N 
ATOM      2  C   UNL     1      -5.941  -4.268  -0.246  0.00  0.00    +0.200 C 
ATOM      3  O   UNL     1      -5.506  -3.136  -0.262  0.00  0.00    -0.278 OA
ATOM      4  H   UNL     1      -5.439  -6.219  -0.326  0.00  0.00    +0.155 HD
ENDROOT
BRANCH   1  11
ATOM      5  C   UNL     1      -1.651  -8.179   0.195  0.00  0.00    +0.121 A 
ATOM      6  C   UNL     1      -0.405  -7.540   0.237  0.00  0.00    +0.047 A 
ATOM      7  C   UNL     1      -0.288  -6.194   0.147  0.00  0.00    +0.029 A 
ATOM      8  C   UNL     1      -1.450  -5.391   0.006  0.00  0.00    +0.045 A 
ATOM      9  N   UNL     1      -1.600  -4.085  -0.100  0.00  0.00    -0.367 N 
ATOM     10  C   UNL     1      -3.027  -3.776  -0.224  0.00  0.00    +0.234 C 
ATOM     11  C   UNL     1      -3.748  -5.105  -0.179  0.00  0.00    +0.053 C 
ATOM     12  C   UNL     1      -2.760  -6.063  -0.038  0.00  0.00    +0.021 A 
ATOM     13  C   UNL     1      -2.806  -7.476   0.056  0.00  0.00    +0.057 A 
ATOM     14  H   UNL     1      -0.881  -3.434  -0.095  0.00  0.00    +0.161 HD
BRANCH  10  15
ATOM     15  C   UNL     1      -3.296  -3.083  -1.535  0.00  0.00    +0.336 C 
ATOM     16  O   UNL     1      -2.737  -3.454  -2.540  0.00  0.00    -0.248 OA
BRANCH  15  17
ATOM     17  O   UNL     1      -4.156  -2.054  -1.587  0.00  0.00    -0.463 OA
BRANCH  17  18
ATOM     18  C   UNL     1      -4.363  -1.444  -2.862  0.00  0.00    +0.229 C 
ATOM     19  C   UNL     1      -5.368  -0.299  -2.723  0.00  0.00    +0.048 C 
ENDBRANCH  17  18
ENDBRANCH  15  17
ENDBRANCH  10  15
BRANCH   5  20
ATOM     20  O   UNL     1      -1.706  -9.535   0.291  0.00  0.00    -0.492 OA
BRANCH  20  22
ATOM     21  C   UNL     1      -0.725 -11.731   0.526  0.00  0.00    +0.048 C 
ATOM     22  C   UNL     1      -0.464 -10.226   0.436  0.00  0.00    +0.225 C 
ENDBRANCH  20  22
ENDBRANCH   5  20
ENDBRANCH   1  11
BRANCH   2  23
ATOM     23  C   UNL     1      -7.429  -4.504  -0.211  0.00  0.00    +0.019 C 
BRANCH  23  24
ATOM     24  N   UNL     1      -8.129  -3.213  -0.203  0.00  0.00    +0.387 N 
ATOM     25  C   UNL     1      -7.810  -2.493   1.037  0.00  0.00    -0.059 C 
ATOM     26  C   UNL     1      -8.447  -1.100   0.996  0.00  0.00    +0.086 C 
ATOM     27  N   UNL     1      -9.887  -1.253   0.735  0.00  0.00    -0.331 N 
ATOM     28  C   UNL     1     -10.301  -2.096  -0.397  0.00  0.00    +0.086 C 
ATOM     29  C   UNL     1      -9.577  -3.442  -0.290  0.00  0.00    -0.059 C 
ATOM     30  H   UNL     1      -7.828  -2.663  -0.994  0.00  0.00    -0.081 HD
BRANCH  27  31
ATOM     31  C   UNL     1     -10.835  -0.615   1.541  0.00  0.00    +0.065 A 
ATOM     32  C   UNL     1     -11.282   0.659   1.215  0.00  0.00    +0.026 A 
ATOM     33  C   UNL     1     -12.219   1.286   2.013  0.00  0.00    +0.002 A 
ATOM     34  C   UNL     1     -12.713   0.648   3.136  0.00  0.00    +0.003 A 
ATOM     35  C   UNL     1     -12.271  -0.620   3.465  0.00  0.00    +0.040 A 
ATOM     36  C   UNL     1     -11.337  -1.257   2.668  0.00  0.00    +0.144 A 
ATOM     37  F   UNL     1     -10.910  -2.498   2.986  0.00  0.00    -0.204 F 
ENDBRANCH  27  31
ENDBRANCH  23  24
ENDBRANCH   2  23
TORSDOF 9
