REMARK  Name = ZINC40223437
REMARK  5 active torsions:
REMARK  status: ('A' for Active; 'I' for Inactive)
REMARK    1  A    between atoms: C_10  and  C_12
REMARK    2  A    between atoms: N_14  and  C_15
REMARK    3  A    between atoms: C_15  and  C_16
REMARK    4  A    between atoms: C_16  and  S_17
REMARK    5  A    between atoms: S_17  and  N_20
REMARK                            x       y       z     vdW  Elec       q    Type
REMARK                         _______ _______ _______ _____ _____    ______ ____
ROOT
ATOM      1  C   UNL     1       5.033  -2.487   0.527  0.00  0.00    +0.280 C 
ATOM      2  O   UNL     1       5.143  -3.668   0.791  0.00  0.00    -0.267 OA
ATOM      3  N   UNL     1       6.125  -1.699   0.499  0.00  0.00    -0.307 N 
ATOM      4  H   UNL     1       6.038  -0.756   0.288  0.00  0.00    +0.149 HD
ENDROOT
BRANCH   1  14
ATOM      5  C   UNL     1      -0.017   1.363   0.009  0.00  0.00    +0.001 A 
ATOM      6  C   UNL     1       1.171   2.081   0.002  0.00  0.00    +0.004 A 
ATOM      7  C   UNL     1       2.388   1.433  -0.017  0.00  0.00    +0.047 A 
ATOM      8  C   UNL     1       2.431   0.043  -0.027  0.00  0.00    +0.139 A 
ATOM      9  C   UNL     1       1.223  -0.676  -0.013  0.00  0.00    +0.064 A 
ATOM     10  C   UNL     1       0.002  -0.004   0.002  0.00  0.00    +0.015 A 
ATOM     11  C   UNL     1       1.293  -2.151  -0.006  0.00  0.00    +0.193 A 
ATOM     12  O   UNL     1       0.314  -2.845  -0.216  0.00  0.00    -0.287 OA
ATOM     13  C   UNL     1       2.618  -2.733   0.270  0.00  0.00    +0.103 A 
ATOM     14  C   UNL     1       3.698  -1.914   0.234  0.00  0.00    +0.193 A 
ATOM     15  O   UNL     1       3.609  -0.609  -0.054  0.00  0.00    -0.450 OA
ENDBRANCH   1  14
BRANCH   3  16
ATOM     16  C   UNL     1       7.445  -2.265   0.788  0.00  0.00    +0.129 C 
BRANCH  16  17
ATOM     17  C   UNL     1       8.505  -1.166   0.691  0.00  0.00    +0.203 C 
BRANCH  17  18
ATOM     18  S   UNL     1      10.139  -1.867   1.049  0.00  0.00    +0.028 S 
ATOM     19  O   UNL     1      10.216  -2.257   2.413  0.00  0.00    -0.158 OA
ATOM     20  O   UNL     1      10.523  -2.765   0.016  0.00  0.00    -0.158 OA
BRANCH  18  21
ATOM     21  N   UNL     1      11.188  -0.593   0.913  0.00  0.00    -0.208 NA
ATOM     22  H   UNL     1      10.854   0.288   0.683  0.00  0.00    +0.144 HD
ATOM     23  H   UNL     1      12.137  -0.728   1.063  0.00  0.00    +0.144 HD
ENDBRANCH  18  21
ENDBRANCH  17  18
ENDBRANCH  16  17
ENDBRANCH   3  16
TORSDOF 5
