REMARK  Name = ZINC01263484
REMARK  6 active torsions:
REMARK  status: ('A' for Active; 'I' for Inactive)
REMARK    1  A    between atoms: C_4  and  O_30
REMARK    2  A    between atoms: C_5  and  C_7
REMARK    3  A    between atoms: N_9  and  N_10
REMARK    4  A    between atoms: C_11  and  C_12
REMARK    5  A    between atoms: C_13  and  S_23
REMARK    6  A    between atoms: S_23  and  C_24
REMARK                            x       y       z     vdW  Elec       q    Type
REMARK                         _______ _______ _______ _____ _____    ______ ____
ROOT
ATOM      1  C   UNL     1      -3.632   1.701   0.029  0.00  0.00    +0.092 A 
ATOM      2  C   UNL     1      -3.671   3.110   0.042  0.00  0.00    +0.120 A 
ATOM      3  N   UNL     1      -4.842   3.734   0.047  0.00  0.00    -0.222 NA
ATOM      4  C   UNL     1      -5.991   3.060   0.049  0.00  0.00    +0.141 A 
ATOM      5  C   UNL     1      -7.205   3.772   0.058  0.00  0.00    +0.047 A 
ATOM      6  C   UNL     1      -8.384   3.089   0.059  0.00  0.00    +0.005 A 
ATOM      7  C   UNL     1      -8.371   1.687   0.051  0.00  0.00    +0.018 A 
ATOM      8  C   UNL     1      -7.196   1.019   0.042  0.00  0.00    +0.096 A 
ATOM      9  N   UNL     1      -6.011   1.692   0.040  0.00  0.00    -0.268 N 
ATOM     10  C   UNL     1      -4.854   0.996   0.030  0.00  0.00    +0.268 A 
ATOM     11  O   UNL     1      -4.865  -0.224   0.024  0.00  0.00    -0.267 OA
ENDROOT
BRANCH   1  13
ATOM     12  N   UNL     1      -1.234   1.650   0.017  0.00  0.00    -0.187 NA
ATOM     13  C   UNL     1      -2.351   0.984   0.019  0.00  0.00    +0.146 C 
BRANCH  12  16
ATOM     14  C   UNL     1       1.147   1.655   0.000  0.00  0.00    +0.267 C 
ATOM     15  O   UNL     1       1.130   2.872   0.007  0.00  0.00    -0.268 OA
ATOM     16  N   UNL     1      -0.011   0.966   0.007  0.00  0.00    -0.203 N 
ATOM     17  H   UNL     1       0.002  -0.004   0.002  0.00  0.00    +0.178 HD
BRANCH  14  22
ATOM     18  C   UNL     1       3.663  -1.128  -0.039  0.00  0.00    +0.001 A 
ATOM     19  C   UNL     1       4.854  -0.419  -0.047  0.00  0.00    +0.004 A 
ATOM     20  C   UNL     1       4.845   0.961  -0.039  0.00  0.00    +0.046 A 
ATOM     21  C   UNL     1       3.641   1.649  -0.024  0.00  0.00    +0.129 A 
ATOM     22  C   UNL     1       2.434   0.935  -0.016  0.00  0.00    +0.080 A 
ATOM     23  C   UNL     1       2.458  -0.462  -0.018  0.00  0.00    +0.017 A 
BRANCH  21  24
ATOM     24  O   UNL     1       3.630   3.005  -0.016  0.00  0.00    -0.506 OA
ATOM     25  H   UNL     1       3.636   3.393   0.870  0.00  0.00    +0.292 HD
ENDBRANCH  21  24
ENDBRANCH  14  22
ENDBRANCH  12  16
ENDBRANCH   1  13
BRANCH   2  26
ATOM     26  S   UNL     1      -2.172   4.037   0.047  0.00  0.00    -0.029 S 
BRANCH  26  27
ATOM     27  C   UNL     1      -2.825   5.673   0.065  0.00  0.00    +0.194 A 
ATOM     28  N   UNL     1      -4.139   5.845   0.065  0.00  0.00    -0.230 NA
ATOM     29  C   UNL     1      -4.662   7.060   0.082  0.00  0.00    +0.115 A 
ATOM     30  C   UNL     1      -3.817   8.160   0.091  0.00  0.00    +0.039 A 
ATOM     31  C   UNL     1      -2.448   7.943   0.085  0.00  0.00    +0.115 A 
ATOM     32  N   UNL     1      -1.991   6.702   0.073  0.00  0.00    -0.230 NA
ENDBRANCH  26  27
ENDBRANCH   2  26
TORSDOF 6
