REMARK  Name = ZINC16461641
REMARK  9 active torsions:
REMARK  status: ('A' for Active; 'I' for Inactive)
REMARK    1  A    between atoms: C_1  and  C_2
REMARK    2  A    between atoms: C_7  and  N_8
REMARK    3  A    between atoms: C_9  and  C_32
REMARK    4  A    between atoms: C_12  and  S_13
REMARK    5  A    between atoms: S_13  and  C_14
REMARK    6  A    between atoms: C_14  and  C_15
REMARK    7  A    between atoms: C_17  and  C_20
REMARK    8  A    between atoms: C_24  and  C_31
REMARK    9  A    between atoms: C_27  and  C_30
REMARK                            x       y       z     vdW  Elec       q    Type
REMARK                         _______ _______ _______ _____ _____    ______ ____
ROOT
ATOM      1  N   UNL     1      -0.063   0.563   3.227  0.00  0.00    -0.270 N 
ATOM      2  C   UNL     1      -1.048   1.015   4.078  0.00  0.00    +0.171 A 
ATOM      3  N   UNL     1      -0.446   1.576   5.101  0.00  0.00    -0.128 NA
ATOM      4  N   UNL     1       0.829   1.508   4.952  0.00  0.00    -0.122 NA
ATOM      5  C   UNL     1       1.121   0.895   3.827  0.00  0.00    +0.197 A 
ENDROOT
BRANCH   1  12
ATOM      6  C   UNL     1      -0.241   2.127   0.856  0.00  0.00    +0.046 C 
ATOM      7  C   UNL     1      -0.330   0.623   0.826  0.00  0.00    -0.026 A 
ATOM      8  C   UNL     1      -0.496  -0.036  -0.377  0.00  0.00    +0.005 A 
ATOM      9  C   UNL     1      -0.577  -1.416  -0.405  0.00  0.00    +0.000 A 
ATOM     10  C   UNL     1      -0.492  -2.141   0.769  0.00  0.00    +0.002 A 
ATOM     11  C   UNL     1      -0.325  -1.488   1.975  0.00  0.00    +0.026 A 
ATOM     12  C   UNL     1      -0.238  -0.102   2.006  0.00  0.00    +0.053 A 
ENDBRANCH   1  12
BRANCH   2  13
ATOM     13  C   UNL     1      -2.507   0.892   3.877  0.00  0.00    +0.038 A 
ATOM     14  C   UNL     1      -3.398   1.658   4.639  0.00  0.00    +0.014 A 
ATOM     15  C   UNL     1      -4.754   1.506   4.412  0.00  0.00    +0.020 A 
ATOM     16  C   UNL     1      -5.183   0.610   3.448  0.00  0.00    +0.111 A 
ATOM     17  N   UNL     1      -4.321  -0.099   2.745  0.00  0.00    -0.263 NA
ATOM     18  C   UNL     1      -3.021   0.015   2.921  0.00  0.00    +0.122 A 
ENDBRANCH   2  13
BRANCH   5  19
ATOM     19  S   UNL     1       2.736   0.564   3.205  0.00  0.00    -0.079 S 
BRANCH  19  20
ATOM     20  C   UNL     1       3.842   1.255   4.467  0.00  0.00    +0.140 C 
BRANCH  20  21
ATOM     21  C   UNL     1       5.274   1.037   4.053  0.00  0.00    +0.089 A 
ATOM     22  N   UNL     1       6.037   1.825   3.346  0.00  0.00    -0.239 NA
ATOM     23  C   UNL     1       7.290   1.435   3.092  0.00  0.00    +0.133 A 
ATOM     24  C   UNL     1       7.660   0.222   3.608  0.00  0.00    +0.080 A 
ATOM     25  S   UNL     1       6.264  -0.274   4.401  0.00  0.00    -0.079 S 
BRANCH  23  26
ATOM     26  C   UNL     1       8.219   2.262   2.302  0.00  0.00    +0.266 C 
ATOM     27  O   UNL     1       9.393   1.954   2.226  0.00  0.00    -0.268 OA
ATOM     28  N   UNL     1       7.767   3.359   1.663  0.00  0.00    -0.291 N 
ATOM     29  C   UNL     1       6.355   3.762   1.755  0.00  0.00    +0.139 C 
ATOM     30  C   UNL     1       5.826   3.998   0.336  0.00  0.00    +0.133 C 
ATOM     31  O   UNL     1       6.700   4.899  -0.348  0.00  0.00    -0.371 OA
ATOM     32  C   UNL     1       8.030   4.406  -0.522  0.00  0.00    +0.133 C 
ATOM     33  C   UNL     1       8.673   4.194   0.858  0.00  0.00    +0.139 C 
ATOM     34  C   UNL     1       8.852   5.422  -1.317  0.00  0.00    +0.039 C 
ATOM     35  C   UNL     1       4.422   4.602   0.408  0.00  0.00    +0.039 C 
ENDBRANCH  23  26
ENDBRANCH  20  21
ENDBRANCH  19  20
ENDBRANCH   5  19
TORSDOF 6
