REMARK  Name = ZINC39593024
REMARK  9 active torsions:
REMARK  status: ('A' for Active; 'I' for Inactive)
REMARK    1  A    between atoms: C_1  and  C_2
REMARK    2  A    between atoms: C_5  and  N_9
REMARK    3  A    between atoms: C_6  and  C_8
REMARK    4  A    between atoms: C_10  and  C_23
REMARK    5  A    between atoms: C_13  and  S_14
REMARK    6  A    between atoms: S_14  and  C_15
REMARK    7  A    between atoms: C_15  and  C_16
REMARK    8  A    between atoms: N_21  and  C_22
REMARK    9  A    between atoms: C_23  and  C_24
REMARK                            x       y       z     vdW  Elec       q    Type
REMARK                         _______ _______ _______ _____ _____    ______ ____
ROOT
ATOM      1  N   UNL     1       0.057  -4.173  -0.021  0.00  0.00    -0.274 N 
ATOM      2  C   UNL     1      -1.023  -5.014  -0.025  0.00  0.00    +0.143 A 
ATOM      3  N   UNL     1      -0.564  -6.234  -0.032  0.00  0.00    -0.133 NA
ATOM      4  N   UNL     1       0.721  -6.223  -0.032  0.00  0.00    -0.122 NA
ATOM      5  C   UNL     1       1.158  -4.985  -0.032  0.00  0.00    +0.197 A 
ENDROOT
BRANCH   1  10
ATOM      6  C   UNL     1      -0.018   1.503   0.010  0.00  0.00    +0.044 C 
ATOM      7  C   UNL     1       0.002  -0.004   0.002  0.00  0.00    -0.050 A 
ATOM      8  C   UNL     1       0.006  -0.688  -1.200  0.00  0.00    +0.005 A 
ATOM      9  C   UNL     1       0.024  -2.068  -1.211  0.00  0.00    +0.027 A 
ATOM     10  C   UNL     1       0.039  -2.771  -0.013  0.00  0.00    +0.053 A 
ATOM     11  C   UNL     1       0.036  -2.082   1.192  0.00  0.00    -0.026 A 
ATOM     12  C   UNL     1       0.023  -0.700   1.196  0.00  0.00    +0.008 A 
ATOM     13  C   UNL     1       0.052  -2.840   2.494  0.00  0.00    +0.046 C 
ENDBRANCH   1  10
BRANCH   5  14
ATOM     14  S   UNL     1       2.842  -4.468  -0.039  0.00  0.00    -0.076 S 
BRANCH  14  15
ATOM     15  C   UNL     1       3.778  -6.022  -0.052  0.00  0.00    +0.173 C 
BRANCH  15  16
ATOM     16  C   UNL     1       5.254  -5.720  -0.059  0.00  0.00    +0.231 C 
ATOM     17  O   UNL     1       5.637  -4.569  -0.055  0.00  0.00    -0.274 OA
ATOM     18  N   UNL     1       6.149  -6.728  -0.069  0.00  0.00    -0.240 N 
ATOM     19  C   UNL     1       7.469  -6.457  -0.076  0.00  0.00    +0.306 C 
ATOM     20  O   UNL     1       7.853  -5.304  -0.072  0.00  0.00    -0.252 OA
ATOM     21  N   UNL     1       8.364  -7.465  -0.086  0.00  0.00    -0.302 N 
ATOM     22  C   UNL     1       9.799  -7.170  -0.093  0.00  0.00    +0.129 C 
ATOM     23  H   UNL     1       5.843  -7.648  -0.072  0.00  0.00    +0.159 HD
ATOM     24  H   UNL     1       8.057  -8.385  -0.089  0.00  0.00    +0.150 HD
ENDBRANCH  15  16
ENDBRANCH  14  15
ENDBRANCH   5  14
BRANCH   2  25
ATOM     25  C   UNL     1      -2.474  -4.606  -0.022  0.00  0.00    +0.111 C 
BRANCH  25  26
ATOM     26  C   UNL     1      -2.958  -4.461  -1.442  0.00  0.00    -0.040 A 
ATOM     27  C   UNL     1      -2.850  -3.244  -2.088  0.00  0.00    +0.004 A 
ATOM     28  C   UNL     1      -3.295  -3.111  -3.391  0.00  0.00    +0.000 A 
ATOM     29  C   UNL     1      -3.846  -4.196  -4.047  0.00  0.00    +0.000 A 
ATOM     30  C   UNL     1      -3.953  -5.413  -3.401  0.00  0.00    +0.000 A 
ATOM     31  C   UNL     1      -3.505  -5.547  -2.100  0.00  0.00    +0.004 A 
ENDBRANCH  25  26
ENDBRANCH   2  25
TORSDOF 6
