REMARK  Name = ZINC60359984
REMARK  8 active torsions:
REMARK  status: ('A' for Active; 'I' for Inactive)
REMARK    1  A    between atoms: C_1  and  C_2
REMARK    2  A    between atoms: C_7  and  N_8
REMARK    3  A    between atoms: C_11  and  C_13
REMARK    4  A    between atoms: N_15  and  C_16
REMARK    5  A    between atoms: C_16  and  C_18
REMARK    6  A    between atoms: C_16  and  C_27
REMARK    7  A    between atoms: C_27  and  C_28
REMARK    8  A    between atoms: C_27  and  C_29
REMARK                            x       y       z     vdW  Elec       q    Type
REMARK                         _______ _______ _______ _____ _____    ______ ____
ROOT
ATOM      1  C   UNL     1       0.085   3.194   4.128  0.00  0.00    +0.265 C 
ATOM      2  O   UNL     1       0.211   3.437   5.312  0.00  0.00    -0.268 OA
ATOM      3  N   UNL     1      -0.129   4.198   3.254  0.00  0.00    -0.300 N 
ATOM      4  H   UNL     1      -0.230   4.005   2.309  0.00  0.00    +0.150 HD
ENDROOT
BRANCH   1   8
ATOM      5  N   UNL     1       0.168   0.117   2.335  0.00  0.00    -0.235 N 
ATOM      6  C   UNL     1       0.380  -0.393   3.579  0.00  0.00    +0.049 A 
ATOM      7  C   UNL     1       0.384   0.649   4.437  0.00  0.00    +0.006 A 
ATOM      8  C   UNL     1       0.165   1.801   3.646  0.00  0.00    +0.151 A 
ATOM      9  N   UNL     1       0.052   1.395   2.397  0.00  0.00    -0.161 NA
ATOM     10  C   UNL     1       0.614   0.169   5.850  0.00  0.00    +0.040 C 
ATOM     11  C   UNL     1       0.327  -1.348   5.808  0.00  0.00    +0.011 C 
ATOM     12  C   UNL     1       0.609  -1.687   4.328  0.00  0.00    +0.056 C 
BRANCH   5  19
ATOM     13  C   UNL     1      -1.984   0.623   0.543  0.00  0.00    +0.046 C 
ATOM     14  C   UNL     1      -0.940  -0.426   0.257  0.00  0.00    -0.025 A 
ATOM     15  C   UNL     1      -1.007  -1.170  -0.905  0.00  0.00    +0.005 A 
ATOM     16  C   UNL     1      -0.049  -2.132  -1.167  0.00  0.00    +0.000 A 
ATOM     17  C   UNL     1       0.979  -2.353  -0.268  0.00  0.00    +0.002 A 
ATOM     18  C   UNL     1       1.051  -1.611   0.894  0.00  0.00    +0.028 A 
ATOM     19  C   UNL     1       0.094  -0.640   1.159  0.00  0.00    +0.069 A 
ENDBRANCH   5  19
ENDBRANCH   1   8
BRANCH   3  20
ATOM     20  C   UNL     1      -0.209   5.580   3.732  0.00  0.00    +0.144 C 
BRANCH  20  21
ATOM     21  C   UNL     1       0.160   6.521   2.613  0.00  0.00    +0.158 A 
ATOM     22  N   UNL     1      -0.262   6.455   1.377  0.00  0.00    -0.132 NA
ATOM     23  N   UNL     1       0.246   7.411   0.681  0.00  0.00    -0.129 NA
ATOM     24  C   UNL     1       1.032   8.148   1.450  0.00  0.00    +0.161 A 
ATOM     25  N   UNL     1       0.989   7.596   2.707  0.00  0.00    -0.285 N 
ATOM     26  C   UNL     1       1.704   8.148   3.729  0.00  0.00    +0.094 A 
ATOM     27  C   UNL     1       2.460   9.245   3.521  0.00  0.00    +0.018 A 
ATOM     28  C   UNL     1       2.522   9.835   2.247  0.00  0.00    +0.005 A 
ATOM     29  C   UNL     1       1.821   9.290   1.216  0.00  0.00    +0.048 A 
ENDBRANCH  20  21
BRANCH  20  30
ATOM     30  C   UNL     1      -1.636   5.878   4.197  0.00  0.00    +0.011 C 
ATOM     31  C   UNL     1      -2.012   4.923   5.332  0.00  0.00    +0.009 C 
ATOM     32  C   UNL     1      -1.720   7.322   4.696  0.00  0.00    +0.009 C 
ENDBRANCH  20  30
ENDBRANCH   3  20
TORSDOF 5
