REMARK  Name = ZINC05145038
REMARK  9 active torsions:
REMARK  status: ('A' for Active; 'I' for Inactive)
REMARK    1  A    between atoms: C_1  and  C_2
REMARK    2  A    between atoms: C_3  and  C_28
REMARK    3  A    between atoms: C_5  and  N_14
REMARK    4  A    between atoms: C_6  and  C_7
REMARK    5  A    between atoms: C_10  and  O_12
REMARK    6  A    between atoms: O_12  and  C_13
REMARK    7  A    between atoms: C_15  and  C_17
REMARK    8  A    between atoms: C_18  and  C_19
REMARK    9  A    between atoms: C_23  and  N_25
REMARK                            x       y       z     vdW  Elec       q    Type
REMARK                         _______ _______ _______ _____ _____    ______ ____
ROOT
ATOM      1  C   UNL     1      -1.273  -0.807   0.010  0.00  0.00    +0.045 C 
ATOM      2  C   UNL     1       0.002  -0.004   0.002  0.00  0.00    -0.027 A 
ATOM      3  C   UNL     1       1.207  -0.602  -0.013  0.00  0.00    -0.008 A 
ATOM      4  S   UNL     1       2.345   0.767  -0.016  0.00  0.00    -0.078 S 
ATOM      5  C   UNL     1       1.217   2.081   0.002  0.00  0.00    +0.085 A 
ATOM      6  C   UNL     1      -0.018   1.440   0.010  0.00  0.00    +0.069 A 
ATOM      7  C   UNL     1       1.518  -2.076  -0.024  0.00  0.00    +0.052 C 
ENDROOT
BRANCH   6   8
ATOM      8  C   UNL     1      -1.274   2.191   0.020  0.00  0.00    +0.255 C 
ATOM      9  O   UNL     1      -1.792   2.498   1.078  0.00  0.00    -0.270 OA
ATOM     10  N   UNL     1      -1.859   2.543  -1.142  0.00  0.00    -0.217 N 
ATOM     11  C   UNL     1      -3.015   3.235  -1.133  0.00  0.00    +0.407 C 
ATOM     12  O   UNL     1      -3.531   3.541  -0.077  0.00  0.00    -0.226 OA
ATOM     13  H   UNL     1      -1.446   2.299  -1.986  0.00  0.00    +0.161 HD
BRANCH  11  14
ATOM     14  O   UNL     1      -3.598   3.587  -2.294  0.00  0.00    -0.453 OA
ATOM     15  C   UNL     1      -4.843   4.331  -2.208  0.00  0.00    +0.282 C 
ENDBRANCH  11  14
ENDBRANCH   6   8
BRANCH   5  16
ATOM     16  N   UNL     1       1.480   3.440   0.006  0.00  0.00    -0.276 N 
ATOM     17  C   UNL     1       2.754   3.881  -0.004  0.00  0.00    +0.241 C 
ATOM     18  O   UNL     1       3.673   3.083  -0.016  0.00  0.00    -0.270 OA
ATOM     19  H   UNL     1       0.747   4.076   0.016  0.00  0.00    +0.156 HD
BRANCH  17  20
ATOM     20  C   UNL     1       3.032   5.317   0.001  0.00  0.00    +0.068 C 
ATOM     21  C   UNL     1       4.306   5.758  -0.009  0.00  0.00    +0.013 C 
BRANCH  21  22
ATOM     22  C   UNL     1       4.586   7.203  -0.004  0.00  0.00    -0.023 A 
ATOM     23  C   UNL     1       3.532   8.122   0.010  0.00  0.00    +0.008 A 
ATOM     24  C   UNL     1       3.802   9.474   0.015  0.00  0.00    +0.003 A 
ATOM     25  C   UNL     1       5.112   9.922   0.005  0.00  0.00    +0.033 A 
ATOM     26  C   UNL     1       6.160   9.019  -0.009  0.00  0.00    +0.127 A 
ATOM     27  C   UNL     1       5.906   7.663  -0.008  0.00  0.00    +0.040 A 
BRANCH  26  28
ATOM     28  N   UNL     1       7.557   9.508  -0.019  0.00  0.00    +0.056 N 
ATOM     29  O   UNL     1       7.783  10.705  -0.015  0.00  0.00    -0.126 OA
ATOM     30  O   UNL     1       8.480   8.714  -0.031  0.00  0.00    -0.126 OA
ENDBRANCH  26  28
ENDBRANCH  21  22
ENDBRANCH  17  20
ENDBRANCH   5  16
TORSDOF 6
