REMARK  Name = ZINC10062835
REMARK  5 active torsions:
REMARK  status: ('A' for Active; 'I' for Inactive)
REMARK    1  A    between atoms: C_4  and  C_7
REMARK    2  A    between atoms: C_7  and  N_8
REMARK    3  A    between atoms: N_13  and  C_33
REMARK    4  A    between atoms: C_16  and  C_18
REMARK    5  A    between atoms: N_23  and  C_26
REMARK                            x       y       z     vdW  Elec       q    Type
REMARK                         _______ _______ _______ _____ _____    ______ ____
ROOT
ATOM      1  N   UNL     1       2.969   0.839  -1.233  0.00  0.00    -0.347 N 
ATOM      2  C   UNL     1       2.529  -0.300  -1.799  0.00  0.00    +0.101 A 
ATOM      3  C   UNL     1       2.823  -0.593  -3.106  0.00  0.00    +0.085 A 
ATOM      4  C   UNL     1       2.532  -1.684  -4.030  0.00  0.00    +0.283 A 
ATOM      5  O   UNL     1       1.878  -2.688  -3.797  0.00  0.00    -0.265 OA
ATOM      6  N   UNL     1       3.132  -1.360  -5.196  0.00  0.00    -0.196 N 
ATOM      7  N   UNL     1       3.789  -0.132  -5.079  0.00  0.00    -0.162 NA
ATOM      8  C   UNL     1       3.644   0.364  -3.883  0.00  0.00    +0.112 A 
ATOM      9  C   UNL     1       4.093   1.587  -3.190  0.00  0.00    +0.081 A 
ATOM     10  C   UNL     1       3.724   1.756  -1.887  0.00  0.00    +0.101 A 
ENDROOT
BRANCH   9  11
ATOM     11  C   UNL     1       4.912   2.594  -3.882  0.00  0.00    +0.250 C 
ATOM     12  O   UNL     1       4.546   3.046  -4.950  0.00  0.00    -0.270 OA
ATOM     13  N   UNL     1       6.068   3.016  -3.333  0.00  0.00    -0.294 N 
ATOM     14  C   UNL     1       6.580   2.410  -2.094  0.00  0.00    +0.127 C 
ATOM     15  C   UNL     1       8.043   2.000  -2.327  0.00  0.00    +0.124 C 
ATOM     16  N   UNL     1       8.801   3.162  -2.809  0.00  0.00    -0.326 N 
ATOM     17  C   UNL     1       8.297   3.625  -4.109  0.00  0.00    +0.124 C 
ATOM     18  C   UNL     1       6.848   4.098  -3.953  0.00  0.00    +0.127 C 
BRANCH  16  19
ATOM     19  C   UNL     1      10.168   2.877  -2.875  0.00  0.00    +0.048 A 
ATOM     20  C   UNL     1      10.612   1.567  -2.747  0.00  0.00    +0.024 A 
ATOM     21  C   UNL     1      11.963   1.287  -2.818  0.00  0.00    +0.002 A 
ATOM     22  C   UNL     1      12.874   2.311  -3.004  0.00  0.00    +0.002 A 
ATOM     23  C   UNL     1      12.436   3.617  -3.127  0.00  0.00    +0.022 A 
ATOM     24  C   UNL     1      11.086   3.903  -3.063  0.00  0.00    +0.062 A 
ATOM     25 CL   UNL     1      10.537   5.543  -3.215  0.00  0.00    -0.082 Cl
ENDBRANCH  16  19
ENDBRANCH   9  11
BRANCH   6  26
ATOM     26  C   UNL     1       3.100  -2.142  -6.356  0.00  0.00    +0.069 A 
ATOM     27  C   UNL     1       3.114  -3.527  -6.263  0.00  0.00    +0.028 A 
ATOM     28  C   UNL     1       3.078  -4.296  -7.409  0.00  0.00    +0.002 A 
ATOM     29  C   UNL     1       3.039  -3.688  -8.650  0.00  0.00    +0.000 A 
ATOM     30  C   UNL     1       3.030  -2.308  -8.748  0.00  0.00    +0.002 A 
ATOM     31  C   UNL     1       3.061  -1.534  -7.605  0.00  0.00    +0.028 A 
ENDBRANCH   6  26
BRANCH   1  32
ATOM     32  C   UNL     1       2.619   1.099   0.166  0.00  0.00    +0.156 C 
BRANCH  32  36
ATOM     33  C   UNL     1      -1.065   3.255   0.333  0.00  0.00    +0.000 A 
ATOM     34  C   UNL     1      -1.072   1.873   0.342  0.00  0.00    +0.000 A 
ATOM     35  C   UNL     1       0.121   1.175   0.293  0.00  0.00    +0.005 A 
ATOM     36  C   UNL     1       1.319   1.860   0.225  0.00  0.00    -0.028 A 
ATOM     37  C   UNL     1       1.326   3.242   0.210  0.00  0.00    +0.005 A 
ATOM     38  C   UNL     1       0.134   3.940   0.264  0.00  0.00    +0.000 A 
ENDBRANCH  32  36
ENDBRANCH   1  32
TORSDOF 5
