REMARK  Name = ZINC09357230
REMARK  4 active torsions:
REMARK  status: ('A' for Active; 'I' for Inactive)
REMARK    1  A    between atoms: C_1  and  O_2
REMARK    2  A    between atoms: O_2  and  C_3
REMARK    3  A    between atoms: N_21  and  C_24
REMARK    4  A    between atoms: C_27  and  N_30
REMARK                            x       y       z     vdW  Elec       q    Type
REMARK                         _______ _______ _______ _____ _____    ______ ____
ROOT
ATOM      1  C   UNL     1      -1.259   3.263  -2.925  0.00  0.00    +0.120 A 
ATOM      2  C   UNL     1      -2.111   4.126  -2.250  0.00  0.00    +0.047 A 
ATOM      3  C   UNL     1      -2.142   4.136  -0.872  0.00  0.00    +0.027 A 
ATOM      4  C   UNL     1      -1.318   3.280  -0.145  0.00  0.00    +0.036 A 
ATOM      5  C   UNL     1      -0.467   2.417  -0.830  0.00  0.00    -0.024 A 
ATOM      6  C   UNL     1      -0.436   2.407  -2.206  0.00  0.00    +0.050 A 
ATOM      7  C   UNL     1       0.271   1.642   0.226  0.00  0.00    +0.053 C 
ATOM      8  C   UNL     1       0.025   0.136   0.087  0.00  0.00    +0.089 C 
ATOM      9  C   UNL     1       1.379  -0.522   0.472  0.00  0.00    +0.074 C 
ATOM     10  C   UNL     1       2.315   0.652   0.812  0.00  0.00    -0.054 C 
ATOM     11  C   UNL     1       2.149   1.688  -1.298  0.00  0.00    -0.076 C 
ATOM     12  C   UNL     1       3.581   1.120  -1.235  0.00  0.00    -0.020 C 
ATOM     13  C   UNL     1       3.680   0.427   0.138  0.00  0.00    -0.016 C 
ATOM     14  C   UNL     1       1.050  -1.284   1.736  0.00  0.00    +0.228 C 
ATOM     15  O   UNL     1       1.835  -1.951   2.376  0.00  0.00    -0.275 OA
ATOM     16  N   UNL     1      -0.242  -1.109   2.037  0.00  0.00    -0.210 N 
ATOM     17  C   UNL     1      -0.911  -0.331   1.179  0.00  0.00    +0.229 C 
ATOM     18  O   UNL     1      -2.086  -0.043   1.265  0.00  0.00    -0.275 OA
ATOM     19  C   UNL     1      -0.256   2.165   1.534  0.00  0.00    +0.212 C 
ATOM     20  O   UNL     1       0.079   1.808   2.644  0.00  0.00    -0.277 OA
ATOM     21  N   UNL     1      -1.171   3.107   1.236  0.00  0.00    -0.286 N 
ATOM     22  H   UNL     1      -1.669   3.608   1.900  0.00  0.00    +0.155 HD
ATOM     23  N   UNL     1       1.732   1.774   0.112  0.00  0.00    +0.395 N 
ATOM     24  H   UNL     1       2.043   2.663   0.521  0.00  0.00    -0.079 HD
ENDROOT
BRANCH  16  25
ATOM     25  C   UNL     1      -0.845  -1.695   3.159  0.00  0.00    +0.044 A 
ATOM     26  C   UNL     1      -1.815  -2.675   2.995  0.00  0.00    +0.026 A 
ATOM     27  C   UNL     1      -2.404  -3.253   4.103  0.00  0.00    +0.034 A 
ATOM     28  C   UNL     1      -2.036  -2.850   5.373  0.00  0.00    +0.126 A 
ATOM     29  C   UNL     1      -1.073  -1.871   5.539  0.00  0.00    +0.034 A 
ATOM     30  C   UNL     1      -0.477  -1.292   4.436  0.00  0.00    +0.026 A 
BRANCH  28  31
ATOM     31  N   UNL     1      -2.673  -3.468   6.558  0.00  0.00    +0.056 N 
ATOM     32  O   UNL     1      -2.349  -3.114   7.677  0.00  0.00    -0.126 OA
ATOM     33  O   UNL     1      -3.521  -4.330   6.413  0.00  0.00    -0.126 OA
ENDBRANCH  28  31
ENDBRANCH  16  25
BRANCH   1  35
ATOM     34  C   UNL     1      -2.107   4.164  -4.956  0.00  0.00    +0.277 C 
ATOM     35  O   UNL     1      -1.231   3.256  -4.284  0.00  0.00    -0.495 OA
ENDBRANCH   1  35
TORSDOF 3
