REMARK  Name = ZINC04209408
REMARK  11 active torsions:
REMARK  status: ('A' for Active; 'I' for Inactive)
REMARK    1  A    between atoms: C_1  and  O_2
REMARK    2  A    between atoms: O_2  and  C_3
REMARK    3  A    between atoms: C_5  and  C_13
REMARK    4  A    between atoms: C_7  and  O_11
REMARK    5  A    between atoms: C_8  and  O_9
REMARK    6  A    between atoms: O_9  and  C_10
REMARK    7  A    between atoms: O_11  and  C_12
REMARK    8  A    between atoms: N_14  and  N_15
REMARK    9  A    between atoms: C_16  and  C_18
REMARK   10  A    between atoms: N_20  and  C_21
REMARK   11  A    between atoms: C_22  and  C_30
REMARK                            x       y       z     vdW  Elec       q    Type
REMARK                         _______ _______ _______ _____ _____    ______ ____
ROOT
ATOM      1  N   UNL     1      -2.984   8.956  -4.521  0.00  0.00    -0.199 N 
ATOM      2  C   UNL     1      -2.665   8.664  -3.244  0.00  0.00    +0.318 C 
ATOM      3  O   UNL     1      -2.680   9.537  -2.400  0.00  0.00    -0.263 OA
ATOM      4  H   UNL     1      -2.972   8.258  -5.195  0.00  0.00    +0.178 HD
ENDROOT
BRANCH   2   5
ATOM      5  C   UNL     1      -2.295   7.271  -2.868  0.00  0.00    +0.305 C 
ATOM      6  O   UNL     1      -2.280   6.398  -3.712  0.00  0.00    -0.265 OA
ATOM      7  N   UNL     1      -1.976   6.979  -1.591  0.00  0.00    -0.271 N 
ATOM      8  H   UNL     1      -1.988   7.676  -0.917  0.00  0.00    +0.156 HD
BRANCH   7   9
ATOM      9  C   UNL     1      -1.632   5.684  -1.242  0.00  0.00    +0.090 A 
ATOM     10  C   UNL     1      -1.275   5.182   0.004  0.00  0.00    +0.084 A 
ATOM     11  C   UNL     1      -0.956   3.769   0.100  0.00  0.00    -0.018 A 
ATOM     12  C   UNL     1      -1.036   3.058  -1.048  0.00  0.00    -0.004 A 
ATOM     13  S   UNL     1      -1.532   4.234  -2.277  0.00  0.00    -0.077 S 
ATOM     14  C   UNL     1      -0.762   1.598  -1.231  0.00  0.00    +0.043 C 
ATOM     15  C   UNL     1      -0.013   1.086   0.008  0.00  0.00    +0.005 C 
ATOM     16  C   UNL     1      -0.736   1.583   1.263  0.00  0.00    +0.005 C 
ATOM     17  C   UNL     1      -0.551   3.093   1.407  0.00  0.00    +0.037 C 
BRANCH  10  18
ATOM     18  C   UNL     1      -1.224   6.032   1.156  0.00  0.00    +0.102 C 
ATOM     19  N   UNL     1      -1.184   6.706   2.070  0.00  0.00    -0.191 NA
ENDBRANCH  10  18
ENDBRANCH   7   9
ENDBRANCH   2   5
BRANCH   1  21
ATOM     20  C   UNL     1      -3.639  10.547  -6.105  0.00  0.00    +0.138 C 
ATOM     21  N   UNL     1      -3.332  10.266  -4.874  0.00  0.00    -0.187 NA
BRANCH  20  24
ATOM     22  C   UNL     1      -4.680  13.523  -8.146  0.00  0.00    +0.166 A 
ATOM     23  C   UNL     1      -4.336  12.229  -7.800  0.00  0.00    +0.059 A 
ATOM     24  C   UNL     1      -4.005  11.925  -6.476  0.00  0.00    +0.002 A 
ATOM     25  C   UNL     1      -4.029  12.929  -5.505  0.00  0.00    +0.059 A 
ATOM     26  C   UNL     1      -4.369  14.223  -5.858  0.00  0.00    +0.166 A 
ATOM     27  C   UNL     1      -4.697  14.522  -7.177  0.00  0.00    +0.204 A 
BRANCH  22  29
ATOM     28  C   UNL     1      -4.964  12.745 -10.375  0.00  0.00    +0.277 C 
ATOM     29  O   UNL     1      -5.002  13.819  -9.433  0.00  0.00    -0.491 OA
ENDBRANCH  22  29
BRANCH  27  30
ATOM     30  O   UNL     1      -5.036  15.794  -7.520  0.00  0.00    -0.488 OA
ATOM     31  C   UNL     1      -6.420  16.141  -7.437  0.00  0.00    +0.277 C 
ENDBRANCH  27  30
BRANCH  26  32
ATOM     32  O   UNL     1      -4.387  15.202  -4.914  0.00  0.00    -0.491 OA
ATOM     33  C   UNL     1      -4.039  14.824  -3.581  0.00  0.00    +0.277 C 
ENDBRANCH  26  32
ENDBRANCH  20  24
ENDBRANCH   1  21
TORSDOF 8
