REMARK  Name = ZINC64410886
REMARK  5 active torsions:
REMARK  status: ('A' for Active; 'I' for Inactive)
REMARK    1  A    between atoms: C_1  and  C_2
REMARK    2  A    between atoms: C_8  and  C_10
REMARK    3  A    between atoms: C_10  and  N_11
REMARK    4  A    between atoms: N_14  and  C_17
REMARK    5  A    between atoms: C_17  and  C_18
REMARK                            x       y       z     vdW  Elec       q    Type
REMARK                         _______ _______ _______ _____ _____    ______ ____
ROOT
ATOM      1  N   UNL     1       0.140  -6.582   2.755  0.00  0.00    -0.292 NA
ATOM      2  C   UNL     1      -1.083  -6.878   1.996  0.00  0.00    +0.100 C 
ATOM      3  C   UNL     1      -0.990  -8.290   1.414  0.00  0.00    +0.100 C 
ATOM      4  N   UNL     1      -0.804  -9.256   2.505  0.00  0.00    -0.296 NA
ATOM      5  C   UNL     1       0.419  -8.960   3.264  0.00  0.00    +0.100 C 
ATOM      6  C   UNL     1       0.326  -7.548   3.846  0.00  0.00    +0.100 C 
ENDROOT
BRANCH   1   7
ATOM      7  C   UNL     1       0.122  -5.205   3.267  0.00  0.00    +0.181 C 
BRANCH   7  15
ATOM      8  C   UNL     1       0.280   1.515   0.233  0.00  0.00    +0.066 C 
ATOM      9  C   UNL     1       0.276   0.008   0.203  0.00  0.00    +0.047 A 
ATOM     10  C   UNL     1       0.326  -0.677  -0.965  0.00  0.00    +0.071 A 
ATOM     11  S   UNL     1       0.294  -2.359  -0.367  0.00  0.00    -0.060 S 
ATOM     12  C   UNL     1       0.221  -2.019   1.280  0.00  0.00    +0.165 A 
ATOM     13  N   UNL     1       0.229  -0.704   1.315  0.00  0.00    -0.230 NA
ATOM     14  N   UNL     1       0.171  -2.910   2.345  0.00  0.00    -0.264 N 
ATOM     15  C   UNL     1       0.177  -4.238   2.113  0.00  0.00    +0.233 C 
ATOM     16  O   UNL     1       0.226  -4.655   0.975  0.00  0.00    -0.274 OA
ATOM     17  H   UNL     1       0.131  -2.577   3.255  0.00  0.00    +0.157 HD
ENDBRANCH   7  15
ENDBRANCH   1   7
BRANCH   4  18
ATOM     18  C   UNL     1      -0.785 -10.632   1.993  0.00  0.00    +0.131 C 
BRANCH  18  19
ATOM     19  C   UNL     1      -2.218 -11.090   1.710  0.00  0.00    +0.188 C 
ATOM     20  N   UNL     1      -2.817 -10.254   0.663  0.00  0.00    -0.362 N 
ATOM     21  C   UNL     1      -3.858  -9.668   1.179  0.00  0.00    +0.060 A 
ATOM     22  C   UNL     1      -4.847  -8.726   0.636  0.00  0.00    +0.027 A 
ATOM     23  C   UNL     1      -5.842  -8.277   1.427  0.00  0.00    +0.002 A 
ATOM     24  C   UNL     1      -5.981  -8.672   2.769  0.00  0.00    +0.002 A 
ATOM     25  C   UNL     1      -5.129  -9.529   3.366  0.00  0.00    +0.027 A 
ATOM     26  C   UNL     1      -4.005 -10.086   2.600  0.00  0.00    +0.060 A 
ATOM     27  N   UNL     1      -3.049 -10.914   2.907  0.00  0.00    -0.362 N 
ATOM     28  H   UNL     1      -2.496 -10.155  -0.247  0.00  0.00    +0.162 HD
ATOM     29  H   UNL     1      -2.911 -11.338   3.769  0.00  0.00    +0.162 HD
ENDBRANCH  18  19
ENDBRANCH   4  18
TORSDOF 4
