REMARK  Name = ZINC40365074
REMARK  6 active torsions:
REMARK  status: ('A' for Active; 'I' for Inactive)
REMARK    1  A    between atoms: C_1  and  C_2
REMARK    2  A    between atoms: C_4  and  C_7
REMARK    3  A    between atoms: C_7  and  S_8
REMARK    4  A    between atoms: S_8  and  N_11
REMARK    5  A    between atoms: N_11  and  C_12
REMARK    6  A    between atoms: C_12  and  C_19
REMARK                            x       y       z     vdW  Elec       q    Type
REMARK                         _______ _______ _______ _____ _____    ______ ____
ROOT
ATOM      1  N   UNL     1      -2.691  -5.136  -1.606  0.00  0.00    -0.174 NA
ATOM      2  H   UNL     1      -1.903  -4.700  -1.246  0.00  0.00    +0.149 HD
ENDROOT
BRANCH   1   3
ATOM      3  C   UNL     1      -3.967  -5.049  -0.892  0.00  0.00    +0.125 C 
ATOM      4  C   UNL     1      -3.747  -4.291   0.433  0.00  0.00    +0.039 C 
ATOM      5  C   UNL     1      -5.072  -3.759   0.906  0.00  0.00    +0.003 C 
ATOM      6  C   UNL     1      -5.769  -4.710   1.898  0.00  0.00    +0.000 C 
ATOM      7  C   UNL     1      -5.658  -6.190   1.485  0.00  0.00    +0.000 C 
ATOM      8  C   UNL     1      -5.862  -6.393   0.008  0.00  0.00    +0.003 C 
ATOM      9  C   UNL     1      -4.483  -6.394  -0.682  0.00  0.00    +0.039 C 
BRANCH   3  10
ATOM     10  C   UNL     1      -4.924  -4.294  -1.717  0.00  0.00    +0.086 C 
ATOM     11  N   UNL     1      -5.663  -3.712  -2.354  0.00  0.00    -0.195 NA
ENDBRANCH   3  10
ENDBRANCH   1   3
BRANCH   1  12
ATOM     12  S   UNL     1      -2.595  -5.979  -3.029  0.00  0.00    +0.036 S 
ATOM     13  O   UNL     1      -3.054  -7.285  -2.708  0.00  0.00    -0.158 OA
ATOM     14  O   UNL     1      -1.265  -5.771  -3.484  0.00  0.00    -0.158 OA
BRANCH  12  15
ATOM     15  C   UNL     1      -3.771  -5.157  -4.138  0.00  0.00    +0.243 C 
BRANCH  15  19
ATOM     16  C   UNL     1      -4.638  -8.217  -8.118  0.00  0.00    +0.089 C 
ATOM     17  C   UNL     1      -4.080  -7.127  -7.240  0.00  0.00    +0.135 A 
ATOM     18  C   UNL     1      -4.442  -6.872  -5.968  0.00  0.00    +0.072 A 
ATOM     19  C   UNL     1      -3.687  -5.778  -5.509  0.00  0.00    +0.106 A 
ATOM     20  N   UNL     1      -2.901  -5.395  -6.475  0.00  0.00    -0.081 NA
ATOM     21  O   UNL     1      -3.131  -6.244  -7.586  0.00  0.00    -0.360 OA
ENDBRANCH  15  19
ENDBRANCH  12  15
ENDBRANCH   1  12
TORSDOF 5
