REMARK  Name = ZINC10233924
REMARK  8 active torsions:
REMARK  status: ('A' for Active; 'I' for Inactive)
REMARK    1  A    between atoms: C_1  and  S_2
REMARK    2  A    between atoms: S_2  and  N_5
REMARK    3  A    between atoms: N_5  and  C_6
REMARK    4  A    between atoms: C_11  and  C_12
REMARK    5  A    between atoms: C_15  and  C_18
REMARK    6  A    between atoms: C_25  and  C_27
REMARK    7  A    between atoms: C_27  and  C_28
REMARK    8  A    between atoms: C_28  and  C_29
REMARK                            x       y       z     vdW  Elec       q    Type
REMARK                         _______ _______ _______ _____ _____    ______ ____
ROOT
ATOM      1  C   UNL     1       1.127  -2.354  -0.207  0.00  0.00    +0.071 C 
ATOM      2  N   UNL     1       0.043  -3.031  -0.040  0.00  0.00    -0.181 NA
ATOM      3  N   UNL     1       0.235  -4.411  -0.001  0.00  0.00    -0.185 N 
ATOM      4  C   UNL     1       1.669  -4.697  -0.168  0.00  0.00    +0.138 C 
ATOM      5  C   UNL     1       2.302  -3.299  -0.317  0.00  0.00    +0.087 C 
ATOM      6  C   UNL     1      -0.734  -5.333   0.162  0.00  0.00    +0.236 C 
ATOM      7  O   UNL     1      -0.453  -6.513   0.180  0.00  0.00    -0.274 OA
ENDROOT
BRANCH   4   8
ATOM      8  C   UNL     1       2.213  -5.404   1.046  0.00  0.00    -0.006 A 
ATOM      9  C   UNL     1       1.521  -5.356   2.242  0.00  0.00    +0.007 A 
ATOM     10  C   UNL     1       2.020  -6.005   3.356  0.00  0.00    +0.000 A 
ATOM     11  C   UNL     1       3.212  -6.702   3.275  0.00  0.00    +0.001 A 
ATOM     12  C   UNL     1       3.905  -6.749   2.080  0.00  0.00    +0.020 A 
ATOM     13  C   UNL     1       3.403  -6.105   0.963  0.00  0.00    +0.046 A 
ATOM     14 CL   UNL     1       4.269  -6.171  -0.540  0.00  0.00    -0.083 Cl
ENDBRANCH   4   8
BRANCH   1  20
ATOM     15  C   UNL     1       0.044  -0.107  -0.174  0.00  0.00    +0.057 A 
ATOM     16  C   UNL     1       0.133   1.276  -0.250  0.00  0.00    +0.025 A 
ATOM     17  C   UNL     1       1.361   1.882  -0.432  0.00  0.00    +0.002 A 
ATOM     18  C   UNL     1       2.510   1.118  -0.541  0.00  0.00    +0.001 A 
ATOM     19  C   UNL     1       2.442  -0.258  -0.469  0.00  0.00    +0.011 A 
ATOM     20  C   UNL     1       1.208  -0.885  -0.285  0.00  0.00    +0.020 A 
BRANCH  15  21
ATOM     21  N   UNL     1      -1.193  -0.720   0.009  0.00  0.00    -0.220 N 
ATOM     22  H   UNL     1      -1.261  -1.524   0.548  0.00  0.00    +0.173 HD
BRANCH  21  24
ATOM     23  C   UNL     1      -2.209  -0.104  -2.474  0.00  0.00    +0.218 C 
ATOM     24  S   UNL     1      -2.548  -0.077  -0.692  0.00  0.00    +0.040 S 
ATOM     25  O   UNL     1      -3.588  -0.993  -0.378  0.00  0.00    -0.155 OA
ATOM     26  O   UNL     1      -2.597   1.264  -0.224  0.00  0.00    -0.155 OA
ENDBRANCH  21  24
ENDBRANCH  15  21
ENDBRANCH   1  20
BRANCH   6  27
ATOM     27  C   UNL     1      -2.168  -4.898   0.323  0.00  0.00    +0.109 C 
BRANCH  27  28
ATOM     28  C   UNL     1      -3.059  -6.130   0.490  0.00  0.00    +0.134 C 
BRANCH  28  29
ATOM     29  C   UNL     1      -4.493  -5.695   0.651  0.00  0.00    +0.356 C 
ATOM     30  O   UNL     1      -4.774  -4.520   0.633  0.00  0.00    -0.246 OA
ATOM     31  O   UNL     1      -5.459  -6.614   0.814  0.00  0.00    -0.246 OA
ENDBRANCH  28  29
ENDBRANCH  27  28
ENDBRANCH   6  27
TORSDOF 7
