REMARK  Name = ZINC48959405
REMARK  8 active torsions:
REMARK  status: ('A' for Active; 'I' for Inactive)
REMARK    1  A    between atoms: C_1  and  C_2
REMARK    2  A    between atoms: C_4  and  N_24
REMARK    3  A    between atoms: C_7  and  N_8
REMARK    4  A    between atoms: C_9  and  C_11
REMARK    5  A    between atoms: N_13  and  C_14
REMARK    6  A    between atoms: C_14  and  C_15
REMARK    7  A    between atoms: N_24  and  C_25
REMARK    8  A    between atoms: N_24  and  C_26
REMARK                            x       y       z     vdW  Elec       q    Type
REMARK                         _______ _______ _______ _____ _____    ______ ____
ROOT
ATOM      1  N   UNL     1       0.025  -0.012   2.416  0.00  0.00    -0.278 N 
ATOM      2  C   UNL     1      -0.057  -0.690   3.579  0.00  0.00    +0.303 C 
ATOM      3  O   UNL     1      -0.040  -1.904   3.576  0.00  0.00    -0.265 OA
ATOM      4  H   UNL     1       0.078   0.956   2.422  0.00  0.00    +0.155 HD
ENDROOT
BRANCH   1  11
ATOM      5  C   UNL     1      -1.267   1.183   0.183  0.00  0.00    +0.046 C 
ATOM      6  C   UNL     1      -0.586  -0.158   0.085  0.00  0.00    -0.027 A 
ATOM      7  C   UNL     1      -0.573  -0.840  -1.115  0.00  0.00    +0.028 A 
ATOM      8  C   UNL     1       0.054  -2.076  -1.205  0.00  0.00    +0.030 A 
ATOM      9  C   UNL     1       0.669  -2.626  -0.087  0.00  0.00    +0.025 A 
ATOM     10  C   UNL     1       0.656  -1.945   1.113  0.00  0.00    +0.025 A 
ATOM     11  C   UNL     1       0.033  -0.706   1.202  0.00  0.00    +0.037 A 
BRANCH   8  12
ATOM     12  N   UNL     1       0.067  -2.767  -2.421  0.00  0.00    -0.336 N 
ATOM     13  C   UNL     1      -0.581  -2.187  -3.600  0.00  0.00    +0.129 C 
ATOM     14  C   UNL     1       0.729  -4.070  -2.516  0.00  0.00    +0.129 C 
ENDBRANCH   8  12
ENDBRANCH   1  11
BRANCH   2  15
ATOM     15  C   UNL     1      -0.167   0.052   4.870  0.00  0.00    +0.300 C 
ATOM     16  O   UNL     1      -0.183   1.266   4.872  0.00  0.00    -0.265 OA
ATOM     17  N   UNL     1      -0.248  -0.625   6.032  0.00  0.00    -0.300 N 
ATOM     18  H   UNL     1      -0.235  -1.595   6.029  0.00  0.00    +0.150 HD
BRANCH  17  19
ATOM     19  C   UNL     1      -0.357   0.103   7.298  0.00  0.00    +0.181 C 
BRANCH  19  20
ATOM     20  C   UNL     1      -0.433  -0.880   8.438  0.00  0.00    +0.155 A 
ATOM     21  N   UNL     1      -1.523  -1.403   8.937  0.00  0.00    -0.132 NA
ATOM     22  N   UNL     1      -1.232  -2.204   9.901  0.00  0.00    -0.129 NA
ATOM     23  C   UNL     1       0.080  -2.234  10.070  0.00  0.00    +0.161 A 
ATOM     24  N   UNL     1       0.621  -1.390   9.132  0.00  0.00    -0.285 N 
ATOM     25  C   UNL     1       1.972  -1.216   9.056  0.00  0.00    +0.094 A 
ATOM     26  C   UNL     1       2.796  -1.873   9.899  0.00  0.00    +0.018 A 
ATOM     27  C   UNL     1       2.272  -2.746  10.868  0.00  0.00    +0.005 A 
ATOM     28  C   UNL     1       0.926  -2.923  10.960  0.00  0.00    +0.048 A 
ENDBRANCH  19  20
ENDBRANCH  17  19
ENDBRANCH   2  15
TORSDOF 5
