REMARK  Name = ZINC38742312
REMARK  8 active torsions:
REMARK  status: ('A' for Active; 'I' for Inactive)
REMARK    1  A    between atoms: C_1  and  C_2
REMARK    2  A    between atoms: C_4  and  C_8
REMARK    3  A    between atoms: C_16  and  C_18
REMARK    4  A    between atoms: C_18  and  C_19
REMARK    5  A    between atoms: C_19  and  C_20
REMARK    6  A    between atoms: C_20  and  C_21
REMARK    7  A    between atoms: C_21  and  C_22
REMARK    8  A    between atoms: C_22  and  N_23
REMARK                            x       y       z     vdW  Elec       q    Type
REMARK                         _______ _______ _______ _____ _____    ______ ____
ROOT
ATOM      1  C   UNL     1      -0.976  -2.937  -1.266  0.00  0.00    +0.206 C 
ATOM      2  N   UNL     1      -0.341  -2.342  -2.467  0.00  0.00    -0.231 NA
ATOM      3  N   UNL     1       0.382  -3.433  -3.143  0.00  0.00    -0.224 NA
ATOM      4  C   UNL     1      -0.335  -4.638  -2.683  0.00  0.00    +0.240 C 
ATOM      5  N   UNL     1      -0.505  -4.340  -1.223  0.00  0.00    -0.206 N 
ATOM      6  N   UNL     1      -0.105  -5.369  -0.397  0.00  0.00    -0.178 NA
ATOM      7  C   UNL     1       0.601  -6.371  -0.804  0.00  0.00    +0.095 C 
ATOM      8  S   UNL     1       0.774  -6.092  -2.595  0.00  0.00    -0.068 S 
ATOM      9  H   UNL     1      -1.034  -1.934  -3.077  0.00  0.00    +0.143 HD
ATOM     10  H   UNL     1       1.349  -3.456  -2.858  0.00  0.00    +0.144 HD
ENDROOT
BRANCH   1  14
ATOM     11  C   UNL     1      -0.018   1.503   0.010  0.00  0.00    +0.067 C 
ATOM     12  C   UNL     1       0.002  -0.004   0.002  0.00  0.00    +0.058 C 
ATOM     13  C   UNL     1      -1.086  -0.777   0.003  0.00  0.00    +0.029 C 
ATOM     14  C   UNL     1      -0.531  -2.190  -0.007  0.00  0.00    +0.190 C 
ATOM     15  N   UNL     1       0.926  -1.973  -0.013  0.00  0.00    -0.177 NA
ATOM     16  N   UNL     1       1.125  -0.756  -0.013  0.00  0.00    -0.159 NA
ENDBRANCH   1  14
BRANCH   7  17
ATOM     17  C   UNL     1       1.148  -7.514   0.012  0.00  0.00    +0.064 C 
BRANCH  17  18
ATOM     18  C   UNL     1       0.741  -7.336   1.476  0.00  0.00    +0.007 C 
BRANCH  18  19
ATOM     19  C   UNL     1       1.296  -8.496   2.304  0.00  0.00    +0.002 C 
BRANCH  19  20
ATOM     20  C   UNL     1       0.889  -8.318   3.768  0.00  0.00    +0.019 C 
BRANCH  20  21
ATOM     21  C   UNL     1       1.444  -9.478   4.597  0.00  0.00    +0.117 C 
BRANCH  21  22
ATOM     22  N   UNL     1       1.055  -9.308   5.998  0.00  0.00    -0.234 N 
ATOM     23  C   UNL     1       1.777  -8.636   6.913  0.00  0.00    +0.254 C 
ATOM     24  O   UNL     1       2.840  -8.084   6.711  0.00  0.00    -0.270 OA
ATOM     25  C   UNL     1       1.061  -8.682   8.206  0.00  0.00    +0.049 A 
ATOM     26  C   UNL     1       1.316  -8.180   9.472  0.00  0.00    +0.014 A 
ATOM     27  C   UNL     1       0.412  -8.410  10.497  0.00  0.00    +0.001 A 
ATOM     28  C   UNL     1      -0.742  -9.136  10.264  0.00  0.00    +0.001 A 
ATOM     29  C   UNL     1      -1.010  -9.644   9.003  0.00  0.00    +0.014 A 
ATOM     30  C   UNL     1      -0.115  -9.423   7.969  0.00  0.00    +0.049 A 
ATOM     31  C   UNL     1      -0.076  -9.797   6.539  0.00  0.00    +0.254 C 
ATOM     32  O   UNL     1      -0.922 -10.441   5.952  0.00  0.00    -0.270 OA
ENDBRANCH  21  22
ENDBRANCH  20  21
ENDBRANCH  19  20
ENDBRANCH  18  19
ENDBRANCH  17  18
ENDBRANCH   7  17
TORSDOF 7
