REMARK  Name = ZINC26570476
REMARK  13 active torsions:
REMARK  status: ('A' for Active; 'I' for Inactive)
REMARK    1  A    between atoms: C_1  and  C_2
REMARK    2  A    between atoms: C_3  and  C_33
REMARK    3  A    between atoms: C_6  and  N_11
REMARK    4  A    between atoms: N_11  and  S_24
REMARK    5  A    between atoms: C_12  and  C_14
REMARK    6  A    between atoms: C_15  and  O_22
REMARK    7  A    between atoms: C_19  and  O_20
REMARK    8  A    between atoms: O_20  and  C_21
REMARK    9  A    between atoms: O_22  and  C_23
REMARK   10  A    between atoms: S_24  and  C_27
REMARK   11  A    between atoms: C_33  and  C_35
REMARK   12  A    between atoms: C_35  and  O_36
REMARK   13  A    between atoms: O_36  and  C_37
REMARK                            x       y       z     vdW  Elec       q    Type
REMARK                         _______ _______ _______ _____ _____    ______ ____
ROOT
ATOM      1  N   UNL     1      -1.550   4.559   0.321  0.00  0.00    -0.135 N 
ATOM      2  C   UNL     1      -2.841   4.395  -0.030  0.00  0.00    +0.277 C 
ATOM      3  O   UNL     1      -3.275   3.280  -0.250  0.00  0.00    -0.268 OA
ENDROOT
BRANCH   1   9
ATOM      4  C   UNL     1       1.094  -2.356   0.764  0.00  0.00    +0.087 C 
ATOM      5  C   UNL     1       0.765  -0.890   0.639  0.00  0.00    +0.114 A 
ATOM      6  C   UNL     1      -0.486  -0.355   0.744  0.00  0.00    +0.068 A 
ATOM      7  C   UNL     1      -0.314   1.101   0.554  0.00  0.00    +0.033 A 
ATOM      8  C   UNL     1      -1.182   2.187   0.549  0.00  0.00    +0.037 A 
ATOM      9  C   UNL     1      -0.683   3.460   0.332  0.00  0.00    +0.061 A 
ATOM     10  C   UNL     1       0.682   3.648   0.130  0.00  0.00    +0.029 A 
ATOM     11  C   UNL     1       1.546   2.575   0.137  0.00  0.00    +0.049 A 
ATOM     12  C   UNL     1       1.060   1.291   0.349  0.00  0.00    +0.136 A 
ATOM     13  O   UNL     1       1.655   0.080   0.410  0.00  0.00    -0.459 OA
BRANCH   6  14
ATOM     14  C   UNL     1      -1.736  -1.071   0.992  0.00  0.00    +0.192 C 
ATOM     15  O   UNL     1      -2.073  -1.329   2.129  0.00  0.00    -0.289 OA
BRANCH  14  16
ATOM     16  C   UNL     1      -2.607  -1.491  -0.165  0.00  0.00    +0.239 C 
BRANCH  16  17
ATOM     17  O   UNL     1      -3.817  -2.064   0.334  0.00  0.00    -0.375 OA
ATOM     18  C   UNL     1      -4.718  -2.498  -0.688  0.00  0.00    +0.194 C 
ENDBRANCH  16  17
ENDBRANCH  14  16
ENDBRANCH   6  14
ENDBRANCH   1   9
BRANCH   2  19
ATOM     19  C   UNL     1      -3.726   5.566  -0.146  0.00  0.00    +0.122 A 
ATOM     20  C   UNL     1      -3.926   6.179  -1.392  0.00  0.00    +0.136 A 
ATOM     21  C   UNL     1      -4.766   7.277  -1.491  0.00  0.00    +0.046 A 
ATOM     22  C   UNL     1      -5.397   7.774  -0.366  0.00  0.00    +0.007 A 
ATOM     23  C   UNL     1      -5.203   7.181   0.867  0.00  0.00    +0.046 A 
ATOM     24  C   UNL     1      -4.372   6.079   0.988  0.00  0.00    +0.136 A 
BRANCH  24  25
ATOM     25  O   UNL     1      -4.183   5.498   2.200  0.00  0.00    -0.494 OA
ATOM     26  C   UNL     1      -4.872   6.076   3.310  0.00  0.00    +0.277 C 
ENDBRANCH  24  25
BRANCH  20  27
ATOM     27  O   UNL     1      -3.304   5.696  -2.496  0.00  0.00    -0.494 OA
ATOM     28  C   UNL     1      -3.515   6.401  -3.721  0.00  0.00    +0.277 C 
ENDBRANCH  20  27
ENDBRANCH   2  19
BRANCH   1  29
ATOM     29  S   UNL     1      -0.990   6.060   0.738  0.00  0.00    +0.081 S 
ATOM     30  O   UNL     1      -2.087   6.760   1.308  0.00  0.00    -0.149 OA
ATOM     31  O   UNL     1       0.231   5.859   1.437  0.00  0.00    -0.149 OA
BRANCH  29  32
ATOM     32  C   UNL     1      -0.580   6.898  -0.758  0.00  0.00    +0.109 A 
ATOM     33  C   UNL     1       0.647   6.683  -1.357  0.00  0.00    +0.029 A 
ATOM     34  C   UNL     1       0.966   7.336  -2.533  0.00  0.00    +0.002 A 
ATOM     35  C   UNL     1       0.062   8.212  -3.104  0.00  0.00    +0.000 A 
ATOM     36  C   UNL     1      -1.163   8.431  -2.502  0.00  0.00    +0.002 A 
ATOM     37  C   UNL     1      -1.484   7.774  -1.329  0.00  0.00    +0.029 A 
ENDBRANCH  29  32
ENDBRANCH   1  29
TORSDOF 9
