REMARK  Name = ZINC10434525
REMARK  8 active torsions:
REMARK  status: ('A' for Active; 'I' for Inactive)
REMARK    1  A    between atoms: C_1  and  O_2
REMARK    2  A    between atoms: O_2  and  C_3
REMARK    3  A    between atoms: C_7  and  C_9
REMARK    4  A    between atoms: N_11  and  S_32
REMARK    5  A    between atoms: C_12  and  C_15
REMARK    6  A    between atoms: N_17  and  C_26
REMARK    7  A    between atoms: C_19  and  C_20
REMARK    8  A    between atoms: S_32  and  C_35
REMARK                            x       y       z     vdW  Elec       q    Type
REMARK                         _______ _______ _______ _____ _____    ______ ____
ROOT
ATOM      1  C   UNL     1       2.227   1.488  -0.874  0.00  0.00    +0.070 C 
ATOM      2  N   UNL     1       3.388   1.874  -0.472  0.00  0.00    -0.167 NA
ATOM      3  N   UNL     1       4.220   0.838  -0.054  0.00  0.00    -0.120 N 
ATOM      4  C   UNL     1       3.500  -0.438  -0.200  0.00  0.00    +0.157 C 
ATOM      5  C   UNL     1       2.126  -0.016  -0.756  0.00  0.00    +0.088 C 
ENDROOT
BRANCH   1  10
ATOM      6  C   UNL     1       0.357   4.584  -1.889  0.00  0.00    +0.121 A 
ATOM      7  C   UNL     1      -0.856   4.042  -2.294  0.00  0.00    +0.045 A 
ATOM      8  C   UNL     1      -1.061   2.676  -2.242  0.00  0.00    +0.004 A 
ATOM      9  C   UNL     1      -0.065   1.841  -1.777  0.00  0.00    +0.010 A 
ATOM     10  C   UNL     1       1.158   2.377  -1.367  0.00  0.00    +0.001 A 
ATOM     11  C   UNL     1       1.365   3.756  -1.426  0.00  0.00    +0.055 A 
BRANCH   6  13
ATOM     12  C   UNL     1      -0.529   6.721  -2.437  0.00  0.00    +0.277 C 
ATOM     13  O   UNL     1       0.554   5.927  -1.948  0.00  0.00    -0.495 OA
ENDBRANCH   6  13
ENDBRANCH   1  10
BRANCH   4  14
ATOM     14  C   UNL     1       4.218  -1.344  -1.167  0.00  0.00    +0.022 A 
ATOM     15  C   UNL     1       4.925  -0.952  -2.249  0.00  0.00    +0.120 A 
ATOM     16  N   UNL     1       5.412  -2.066  -2.854  0.00  0.00    -0.239 N 
ATOM     17  N   UNL     1       4.989  -3.180  -2.118  0.00  0.00    -0.166 NA
ATOM     18  C   UNL     1       4.275  -2.750  -1.099  0.00  0.00    +0.098 A 
BRANCH  18  19
ATOM     19  C   UNL     1       3.638  -3.599  -0.062  0.00  0.00    +0.002 A 
ATOM     20  C   UNL     1       3.713  -3.236   1.282  0.00  0.00    +0.010 A 
ATOM     21  C   UNL     1       3.114  -4.026   2.242  0.00  0.00    +0.001 A 
ATOM     22  C   UNL     1       2.450  -5.183   1.874  0.00  0.00    +0.000 A 
ATOM     23  C   UNL     1       2.378  -5.551   0.542  0.00  0.00    +0.001 A 
ATOM     24  C   UNL     1       2.968  -4.765  -0.427  0.00  0.00    +0.010 A 
ENDBRANCH  18  19
BRANCH  16  25
ATOM     25  C   UNL     1       6.200  -2.095  -4.013  0.00  0.00    +0.065 A 
ATOM     26  C   UNL     1       6.544  -0.911  -4.651  0.00  0.00    +0.028 A 
ATOM     27  C   UNL     1       7.325  -0.943  -5.790  0.00  0.00    +0.002 A 
ATOM     28  C   UNL     1       7.754  -2.154  -6.301  0.00  0.00    +0.000 A 
ATOM     29  C   UNL     1       7.409  -3.336  -5.671  0.00  0.00    +0.002 A 
ATOM     30  C   UNL     1       6.633  -3.310  -4.529  0.00  0.00    +0.028 A 
ENDBRANCH  16  25
ENDBRANCH   4  14
BRANCH   3  31
ATOM     31  S   UNL     1       5.766   1.012   0.514  0.00  0.00    +0.057 S 
ATOM     32  O   UNL     1       5.759   2.252   1.208  0.00  0.00    -0.154 OA
ATOM     33  O   UNL     1       6.039  -0.201   1.201  0.00  0.00    -0.154 OA
ATOM     34  C   UNL     1       6.798   1.134  -0.973  0.00  0.00    +0.220 C 
ENDBRANCH   3  31
TORSDOF 6
