REMARK  Name = ZINC24875698
REMARK  11 active torsions:
REMARK  status: ('A' for Active; 'I' for Inactive)
REMARK    1  A    between atoms: C_1  and  C_2
REMARK    2  A    between atoms: C_7  and  S_15
REMARK    3  A    between atoms: S_15  and  C_16
REMARK    4  A    between atoms: C_16  and  C_17
REMARK    5  A    between atoms: N_19  and  C_20
REMARK    6  A    between atoms: C_21  and  C_35
REMARK    7  A    between atoms: C_22  and  C_34
REMARK    8  A    between atoms: C_23  and  C_33
REMARK    9  A    between atoms: N_24  and  C_25
REMARK   10  A    between atoms: C_28  and  O_31
REMARK   11  A    between atoms: O_31  and  C_32
REMARK                            x       y       z     vdW  Elec       q    Type
REMARK                         _______ _______ _______ _____ _____    ______ ____
ROOT
ATOM      1  C   UNL     1      -3.623   3.188   4.455  0.00  0.00    +0.229 C 
ATOM      2  O   UNL     1      -2.599   3.372   5.079  0.00  0.00    -0.275 OA
ATOM      3  N   UNL     1      -3.569   2.693   3.203  0.00  0.00    -0.270 N 
ATOM      4  H   UNL     1      -4.486   2.620   2.601  0.00  0.00    +0.156 HD
ENDROOT
BRANCH   3   5
ATOM      5  C   UNL     1      -2.356   2.277   2.674  0.00  0.00    +0.128 A 
ATOM      6  C   UNL     1      -2.110   1.058   2.055  0.00  0.00    +0.095 A 
ATOM      7  C   UNL     1      -0.694   1.079   1.669  0.00  0.00    -0.010 A 
ATOM      8  C   UNL     1      -0.204   2.268   2.058  0.00  0.00    +0.027 A 
ATOM      9  N   UNL     1      -1.199   2.992   2.662  0.00  0.00    -0.300 N 
ATOM     10  C   UNL     1       1.216   2.733   1.861  0.00  0.00    +0.064 C 
ATOM     11  C   UNL     1       0.063  -0.018   0.967  0.00  0.00    +0.047 C 
BRANCH   9  12
ATOM     12  C   UNL     1      -1.047   4.282   3.192  0.00  0.00    +0.048 A 
ATOM     13  C   UNL     1      -0.258   4.482   4.317  0.00  0.00    +0.030 A 
ATOM     14  C   UNL     1      -0.103   5.753   4.835  0.00  0.00    +0.047 A 
ATOM     15  C   UNL     1      -0.746   6.828   4.238  0.00  0.00    +0.120 A 
ATOM     16  C   UNL     1      -1.539   6.628   3.118  0.00  0.00    +0.047 A 
ATOM     17  C   UNL     1      -1.689   5.358   2.595  0.00  0.00    +0.030 A 
BRANCH  15  18
ATOM     18  O   UNL     1      -0.598   8.078   4.752  0.00  0.00    -0.495 OA
ATOM     19  C   UNL     1       0.233   8.211   5.906  0.00  0.00    +0.277 C 
ENDBRANCH  15  18
ENDBRANCH   9  12
BRANCH   6  20
ATOM     20  C   UNL     1      -3.046  -0.004   1.840  0.00  0.00    +0.103 C 
ATOM     21  N   UNL     1      -3.789  -0.846   1.670  0.00  0.00    -0.191 NA
ENDBRANCH   6  20
ENDBRANCH   3   5
BRANCH   1  22
ATOM     22  C   UNL     1      -4.955   3.513   5.081  0.00  0.00    +0.173 C 
BRANCH  22  23
ATOM     23  S   UNL     1      -4.696   4.154   6.753  0.00  0.00    -0.076 S 
BRANCH  23  30
ATOM     24  C   UNL     1      -9.154   6.358  11.746  0.00  0.00    +0.044 C 
ATOM     25  C   UNL     1      -8.334   5.859  10.585  0.00  0.00    -0.038 A 
ATOM     26  C   UNL     1      -8.936   5.461   9.442  0.00  0.00    +0.052 A 
ATOM     27  C   UNL     1      -8.165   4.988   8.354  0.00  0.00    +0.162 A 
ATOM     28  N   UNL     1      -8.497   4.538   7.157  0.00  0.00    -0.129 NA
ATOM     29  N   UNL     1      -7.438   4.218   6.503  0.00  0.00    -0.122 NA
ATOM     30  C   UNL     1      -6.367   4.442   7.233  0.00  0.00    +0.197 A 
ATOM     31  N   UNL     1      -6.792   4.932   8.433  0.00  0.00    -0.270 N 
ATOM     32  C   UNL     1      -6.130   5.336   9.579  0.00  0.00    +0.058 A 
ATOM     33  C   UNL     1      -6.871   5.806  10.678  0.00  0.00    +0.002 A 
ATOM     34  C   UNL     1      -6.209   6.214  11.840  0.00  0.00    +0.010 A 
ATOM     35  C   UNL     1      -4.835   6.153  11.898  0.00  0.00    +0.001 A 
ATOM     36  C   UNL     1      -4.106   5.689  10.813  0.00  0.00    +0.002 A 
ATOM     37  C   UNL     1      -4.745   5.282   9.660  0.00  0.00    +0.027 A 
ENDBRANCH  23  30
ENDBRANCH  22  23
ENDBRANCH   1  22
TORSDOF 7
