REMARK  Name = ZINC05049952
REMARK  6 active torsions:
REMARK  status: ('A' for Active; 'I' for Inactive)
REMARK    1  A    between atoms: C_1  and  C_2
REMARK    2  A    between atoms: C_11  and  C_13
REMARK    3  A    between atoms: N_15  and  C_16
REMARK    4  A    between atoms: C_20  and  C_21
REMARK    5  A    between atoms: C_21  and  O_23
REMARK    6  A    between atoms: O_23  and  C_24
REMARK                            x       y       z     vdW  Elec       q    Type
REMARK                         _______ _______ _______ _____ _____    ______ ____
ROOT
ATOM      1  C   UNL     1      -2.458   5.569   1.083  0.00  0.00    +0.044 C 
ATOM      2  C   UNL     1      -1.943   4.866  -0.147  0.00  0.00    -0.039 A 
ATOM      3  C   UNL     1      -1.938   5.516  -1.367  0.00  0.00    +0.004 A 
ATOM      4  C   UNL     1      -1.466   4.870  -2.496  0.00  0.00    +0.004 A 
ATOM      5  C   UNL     1      -1.003   3.569  -2.423  0.00  0.00    +0.046 A 
ATOM      6  C   UNL     1      -1.007   2.897  -1.215  0.00  0.00    +0.129 A 
ATOM      7  C   UNL     1      -1.473   3.566  -0.061  0.00  0.00    +0.034 A 
ATOM      8  C   UNL     1      -1.390   2.806   1.181  0.00  0.00    +0.030 A 
ATOM      9  C   UNL     1      -0.645   1.622   1.289  0.00  0.00    +0.005 A 
ATOM     10  C   UNL     1      -0.660   1.008   2.513  0.00  0.00    +0.028 A 
ATOM     11  C   UNL     1      -1.385   1.572   3.554  0.00  0.00    +0.075 A 
ATOM     12  S   UNL     1      -2.081   3.030   2.785  0.00  0.00    -0.083 S 
ATOM     13  C   UNL     1       0.097   1.145   0.046  0.00  0.00    +0.265 C 
ATOM     14  O   UNL     1      -0.579   1.617  -1.119  0.00  0.00    -0.487 OA
ENDROOT
BRANCH  11  15
ATOM     15  C   UNL     1      -1.542   1.095   4.929  0.00  0.00    +0.255 C 
ATOM     16  O   UNL     1      -0.990   0.070   5.285  0.00  0.00    -0.269 OA
ATOM     17  N   UNL     1      -2.296   1.792   5.802  0.00  0.00    -0.280 N 
ATOM     18  H   UNL     1      -2.688   2.638   5.537  0.00  0.00    +0.155 HD
BRANCH  17  19
ATOM     19  C   UNL     1      -2.514   1.295   7.086  0.00  0.00    +0.055 A 
ATOM     20  C   UNL     1      -1.552   0.564   7.752  0.00  0.00    +0.032 A 
ATOM     21  C   UNL     1      -1.814   0.107   9.002  0.00  0.00    +0.048 A 
ATOM     22  S   UNL     1      -3.425   0.668   9.306  0.00  0.00    -0.088 S 
ATOM     23  C   UNL     1      -3.717   1.508   7.760  0.00  0.00    +0.117 A 
BRANCH  23  24
ATOM     24  C   UNL     1      -4.868   2.208   7.328  0.00  0.00    +0.347 C 
ATOM     25  O   UNL     1      -4.889   2.724   6.226  0.00  0.00    -0.244 OA
BRANCH  24  26
ATOM     26  O   UNL     1      -5.944   2.302   8.138  0.00  0.00    -0.464 OA
ATOM     27  C   UNL     1      -7.071   3.023   7.638  0.00  0.00    +0.280 C 
ENDBRANCH  24  26
ENDBRANCH  23  24
ENDBRANCH  17  19
ENDBRANCH  11  15
TORSDOF 4
