REMARK  Name = ZINC21760633
REMARK  8 active torsions:
REMARK  status: ('A' for Active; 'I' for Inactive)
REMARK    1  A    between atoms: C_6  and  N_7
REMARK    2  A    between atoms: N_7  and  C_8
REMARK    3  A    between atoms: C_8  and  C_9
REMARK    4  A    between atoms: C_9  and  C_10
REMARK    5  A    between atoms: C_13  and  C_15
REMARK    6  A    between atoms: C_15  and  O_16
REMARK    7  A    between atoms: O_16  and  C_17
REMARK    8  A    between atoms: C_17  and  C_19
REMARK                            x       y       z     vdW  Elec       q    Type
REMARK                         _______ _______ _______ _____ _____    ______ ____
ROOT
ATOM      1  O   UNL     1       2.465  -2.836   0.532  0.00  0.00    -0.452 OA
ENDROOT
BRANCH   1   2
ATOM      2  C   UNL     1       1.296  -2.170   0.588  0.00  0.00    +0.340 C 
ATOM      3  O   UNL     1       0.252  -2.758   0.387  0.00  0.00    -0.245 OA
BRANCH   2   4
ATOM      4  C   UNL     1       1.283  -0.722   0.893  0.00  0.00    +0.061 A 
ATOM      5  C   UNL     1       2.489  -0.049   1.122  0.00  0.00    +0.016 A 
ATOM      6  C   UNL     1       2.496   1.287   1.405  0.00  0.00    +0.016 A 
ATOM      7  C   UNL     1       1.294   1.989   1.467  0.00  0.00    +0.065 A 
ATOM      8  C   UNL     1       0.068   1.326   1.239  0.00  0.00    +0.079 A 
ATOM      9  C   UNL     1       0.073  -0.040   0.949  0.00  0.00    +0.043 A 
ATOM     10  N   UNL     1      -1.088   2.031   1.312  0.00  0.00    -0.233 NA
ATOM     11  C   UNL     1      -1.105   3.298   1.596  0.00  0.00    +0.113 A 
ATOM     12  N   UNL     1       0.036   4.015   1.827  0.00  0.00    -0.296 N 
ATOM     13  C   UNL     1       1.250   3.429   1.773  0.00  0.00    +0.262 A 
ATOM     14  O   UNL     1       2.268   4.066   1.968  0.00  0.00    -0.267 OA
ATOM     15  C   UNL     1      -0.088   5.444   2.140  0.00  0.00    +0.126 C 
ATOM     16  C   UNL     1      -0.604   5.601   3.568  0.00  0.00    +0.022 C 
ATOM     17  C   UNL     1      -2.122   5.633   3.601  0.00  0.00    +0.002 C 
ATOM     18  C   UNL     1      -2.733   4.314   3.159  0.00  0.00    +0.008 C 
ATOM     19  C   UNL     1      -2.426   4.028   1.691  0.00  0.00    +0.074 C 
ENDBRANCH   2   4
ENDBRANCH   1   2
BRANCH   1  20
ATOM     20  C   UNL     1       2.402  -4.254   0.228  0.00  0.00    +0.328 C 
BRANCH  20  22
ATOM     21  N   UNL     1       3.985  -6.134  -0.054  0.00  0.00    -0.268 N 
ATOM     22  C   UNL     1       3.797  -4.826   0.208  0.00  0.00    +0.258 C 
ATOM     23  O   UNL     1       4.750  -4.109   0.430  0.00  0.00    -0.272 OA
BRANCH  21  29
ATOM     24  C   UNL     1       6.083  -6.270  -1.243  0.00  0.00    +0.026 A 
ATOM     25  C   UNL     1       7.366  -6.771  -1.355  0.00  0.00    +0.040 A 
ATOM     26  C   UNL     1       7.850  -7.655  -0.405  0.00  0.00    +0.124 A 
ATOM     27  C   UNL     1       7.051  -8.035   0.661  0.00  0.00    +0.040 A 
ATOM     28  C   UNL     1       5.770  -7.532   0.779  0.00  0.00    +0.026 A 
ATOM     29  C   UNL     1       5.283  -6.645  -0.172  0.00  0.00    +0.037 A 
ATOM     30  F   UNL     1       9.102  -8.148  -0.519  0.00  0.00    -0.205 F 
ENDBRANCH  21  29
BRANCH  21  31
ATOM     31  C   UNL     1       2.831  -7.022  -0.217  0.00  0.00    +0.123 C 
BRANCH  31  32
ATOM     32  C   UNL     1       2.411  -7.050  -1.688  0.00  0.00    +0.115 C 
BRANCH  32  33
ATOM     33  C   UNL     1       1.224  -7.963  -1.855  0.00  0.00    +0.212 C 
ATOM     34  O   UNL     1       0.759  -8.535  -0.892  0.00  0.00    -0.276 OA
ATOM     35  N   UNL     1       0.679  -8.143  -3.074  0.00  0.00    -0.329 N 
ATOM     36  H   UNL     1      -0.187  -8.810  -3.196  0.00  0.00    +0.145 HD
ATOM     37  H   UNL     1       1.101  -7.624  -3.947  0.00  0.00    +0.145 HD
ENDBRANCH  32  33
ENDBRANCH  31  32
ENDBRANCH  21  31
ENDBRANCH  20  22
ENDBRANCH   1  20
TORSDOF 8
