REMARK  Name = ZINC49064587
REMARK  5 active torsions:
REMARK  status: ('A' for Active; 'I' for Inactive)
REMARK    1  A    between atoms: C_4  and  S_10
REMARK    2  A    between atoms: C_5  and  N_7
REMARK    3  A    between atoms: S_10  and  N_13
REMARK    4  A    between atoms: N_13  and  C_14
REMARK    5  A    between atoms: C_14  and  C_15
REMARK                            x       y       z     vdW  Elec       q    Type
REMARK                         _______ _______ _______ _____ _____    ______ ____
ROOT
ATOM      1  S   UNL     1       4.308  -0.268  -0.044  0.00  0.00    +0.061 S 
ATOM      2  O   UNL     1       4.530  -0.992  -1.246  0.00  0.00    -0.153 OA
ATOM      3  O   UNL     1       5.036   0.908   0.283  0.00  0.00    -0.153 OA
ENDROOT
BRANCH   1   7
ATOM      4  C   UNL     1      -0.073   0.870  -0.011  0.00  0.00    +0.002 A 
ATOM      5  C   UNL     1       0.466   0.229  -1.111  0.00  0.00    +0.002 A 
ATOM      6  C   UNL     1       1.804  -0.118  -1.121  0.00  0.00    +0.031 A 
ATOM      7  C   UNL     1       2.603   0.176  -0.032  0.00  0.00    +0.135 A 
ATOM      8  C   UNL     1       2.063   0.817   1.068  0.00  0.00    +0.152 A 
ATOM      9  C   UNL     1       0.725   1.163   1.078  0.00  0.00    +0.035 A 
BRANCH   8  10
ATOM     10  N   UNL     1       2.918   1.131   2.235  0.00  0.00    +0.058 N 
ATOM     11  O   UNL     1       2.481   1.799   3.143  0.00  0.00    -0.126 OA
ATOM     12  O   UNL     1       4.054   0.719   2.280  0.00  0.00    -0.126 OA
ENDBRANCH   8  10
ENDBRANCH   1   7
BRANCH   1  13
ATOM     13  N   UNL     1       4.546  -1.333   1.201  0.00  0.00    -0.187 NA
ATOM     14  H   UNL     1       5.141  -1.101   1.931  0.00  0.00    +0.148 HD
BRANCH  13  15
ATOM     15  C   UNL     1       3.857  -2.626   1.201  0.00  0.00    +0.137 C 
BRANCH  15  16
ATOM     16  C   UNL     1       4.503  -3.549   2.236  0.00  0.00    +0.134 C 
ATOM     17  C   UNL     1       3.784  -4.900   2.236  0.00  0.00    +0.033 C 
ATOM     18  C   UNL     1       4.474  -5.838   3.231  0.00  0.00    +0.005 C 
ATOM     19  C   UNL     1       5.953  -5.966   2.853  0.00  0.00    +0.028 C 
ATOM     20  C   UNL     1       6.589  -4.574   2.829  0.00  0.00    +0.160 C 
ATOM     21  O   UNL     1       5.880  -3.743   1.907  0.00  0.00    -0.375 OA
ENDBRANCH  15  16
ENDBRANCH  13  15
ENDBRANCH   1  13
TORSDOF 5
