REMARK  Name = ZINC03596935
REMARK  10 active torsions:
REMARK  status: ('A' for Active; 'I' for Inactive)
REMARK    1  A    between atoms: C_1  and  C_2
REMARK    2  A    between atoms: C_2  and  C_3
REMARK    3  A    between atoms: C_2  and  C_4
REMARK    4  A    between atoms: C_4  and  C_5
REMARK    5  A    between atoms: N_9  and  C_13
REMARK    6  A    between atoms: C_13  and  C_14
REMARK    7  A    between atoms: N_19  and  C_20
REMARK    8  A    between atoms: C_20  and  C_21
REMARK    9  A    between atoms: C_20  and  C_22
REMARK   10  A    between atoms: C_20  and  C_23
REMARK                            x       y       z     vdW  Elec       q    Type
REMARK                         _______ _______ _______ _____ _____    ______ ____
ROOT
ATOM      1  C   UNL     1      -4.296  -4.022   1.288  0.00  0.00    +0.214 C 
ENDROOT
BRANCH   1   5
ATOM      2  C   UNL     1      -1.420  -2.055   0.003  0.00  0.00    +0.161 C 
ATOM      3  C   UNL     1      -2.829  -2.598  -0.126  0.00  0.00    +0.244 C 
ATOM      4  O   UNL     1      -3.600  -2.422  -1.045  0.00  0.00    -0.273 OA
ATOM      5  N   UNL     1      -3.047  -3.314   0.994  0.00  0.00    -0.216 N 
ATOM      6  C   UNL     1      -1.983  -3.300   1.804  0.00  0.00    +0.310 C 
ATOM      7  O   UNL     1      -1.941  -3.876   2.874  0.00  0.00    -0.252 OA
ATOM      8  N   UNL     1      -0.965  -2.578   1.303  0.00  0.00    -0.288 N 
ATOM      9  H   UNL     1      -0.100  -2.430   1.717  0.00  0.00    +0.151 HD
BRANCH   2  10
ATOM     10  C   UNL     1      -1.431  -0.525   0.013  0.00  0.00    +0.034 C 
BRANCH  10  12
ATOM     11  C   UNL     1       0.811  -0.380  -1.079  0.00  0.00    +0.007 C 
ATOM     12  C   UNL     1       0.000  -0.005   0.163  0.00  0.00    -0.015 C 
ATOM     13  C   UNL     1      -0.024   1.517   0.316  0.00  0.00    +0.007 C 
ENDBRANCH  10  12
ENDBRANCH   2  10
ENDBRANCH   1   5
BRANCH   1  14
ATOM     14  C   UNL     1      -5.230  -3.103   2.033  0.00  0.00    +0.238 C 
ATOM     15  O   UNL     1      -4.886  -1.970   2.293  0.00  0.00    -0.274 OA
ATOM     16  N   UNL     1      -6.447  -3.541   2.411  0.00  0.00    -0.239 N 
ATOM     17  C   UNL     1      -7.283  -2.720   3.078  0.00  0.00    +0.306 C 
ATOM     18  O   UNL     1      -6.938  -1.584   3.338  0.00  0.00    -0.252 OA
ATOM     19  N   UNL     1      -8.500  -3.158   3.455  0.00  0.00    -0.294 N 
ATOM     20  H   UNL     1      -6.723  -4.448   2.203  0.00  0.00    +0.159 HD
ATOM     21  H   UNL     1      -8.775  -4.065   3.248  0.00  0.00    +0.151 HD
BRANCH  19  22
ATOM     22  C   UNL     1      -9.408  -2.265   4.180  0.00  0.00    +0.028 C 
ATOM     23  C   UNL     1      -9.708  -1.036   3.319  0.00  0.00    +0.031 C 
ATOM     24  C   UNL     1     -10.712  -3.003   4.487  0.00  0.00    +0.031 C 
ATOM     25  C   UNL     1      -8.751  -1.823   5.489  0.00  0.00    +0.031 C 
ENDBRANCH  19  22
ENDBRANCH   1  14
TORSDOF 5
