REMARK  Name = ZINC32957987
REMARK  9 active torsions:
REMARK  status: ('A' for Active; 'I' for Inactive)
REMARK    1  A    between atoms: C_1  and  C_2
REMARK    2  A    between atoms: C_5  and  N_8
REMARK    3  A    between atoms: C_9  and  C_11
REMARK    4  A    between atoms: C_11  and  O_12
REMARK    5  A    between atoms: O_12  and  C_13
REMARK    6  A    between atoms: C_18  and  C_19
REMARK    7  A    between atoms: C_19  and  C_21
REMARK    8  A    between atoms: C_23  and  C_34
REMARK    9  A    between atoms: N_26  and  C_28
REMARK                            x       y       z     vdW  Elec       q    Type
REMARK                         _______ _______ _______ _____ _____    ______ ____
ROOT
ATOM      1  C   UNL     1       3.750  -1.031   0.154  0.00  0.00    +0.132 A 
ATOM      2  C   UNL     1       3.771  -2.410   0.297  0.00  0.00    +0.049 A 
ATOM      3  C   UNL     1       2.588  -3.122   0.318  0.00  0.00    +0.042 A 
ATOM      4  C   UNL     1       1.371  -2.465   0.202  0.00  0.00    +0.124 A 
ATOM      5  C   UNL     1       1.333  -1.093   0.064  0.00  0.00    +0.053 A 
ATOM      6  C   UNL     1       2.523  -0.362   0.041  0.00  0.00    +0.067 A 
ATOM      7  F   UNL     1       0.220  -3.172   0.223  0.00  0.00    -0.205 F 
ENDROOT
BRANCH   6   8
ATOM      8  C   UNL     1       2.490   1.105  -0.106  0.00  0.00    +0.198 C 
ATOM      9  O   UNL     1       3.528   1.729  -0.222  0.00  0.00    -0.286 OA
BRANCH   8  10
ATOM     10  C   UNL     1       1.198   1.816  -0.114  0.00  0.00    +0.040 A 
ATOM     11  C   UNL     1       0.302   1.657   0.963  0.00  0.00    +0.037 A 
ATOM     12  C   UNL     1      -0.910   2.333   0.928  0.00  0.00    +0.117 A 
ATOM     13  C   UNL     1      -1.199   3.192  -0.223  0.00  0.00    +0.269 A 
ATOM     14  O   UNL     1      -2.251   3.803  -0.282  0.00  0.00    -0.266 OA
ATOM     15  N   UNL     1      -0.298   3.300  -1.217  0.00  0.00    -0.310 N 
ATOM     16  C   UNL     1       0.869   2.637  -1.176  0.00  0.00    +0.101 A 
BRANCH  15  17
ATOM     17  C   UNL     1      -0.597   4.157  -2.368  0.00  0.00    +0.090 C 
ATOM     18  C   UNL     1      -0.807   5.595  -1.891  0.00  0.00    +0.025 C 
ATOM     19  C   UNL     1      -1.120   6.490  -3.092  0.00  0.00    +0.002 C 
ATOM     20  C   UNL     1      -2.390   5.990  -3.784  0.00  0.00    +0.000 C 
ATOM     21  C   UNL     1      -2.179   4.552  -4.260  0.00  0.00    +0.002 C 
ATOM     22  C   UNL     1      -1.867   3.657  -3.059  0.00  0.00    +0.025 C 
ENDBRANCH  15  17
BRANCH  12  23
ATOM     23  C   UNL     1      -1.855   2.198   1.996  0.00  0.00    +0.105 C 
ATOM     24  N   UNL     1      -2.604   2.091   2.843  0.00  0.00    -0.191 NA
ENDBRANCH  12  23
ENDBRANCH   8  10
ENDBRANCH   6   8
BRANCH   1  25
ATOM     25  O   UNL     1       4.913  -0.332   0.128  0.00  0.00    -0.482 OA
BRANCH  25  26
ATOM     26  C   UNL     1       6.123  -1.081   0.247  0.00  0.00    +0.324 C 
BRANCH  26  28
ATOM     27  N   UNL     1       8.555  -0.630   0.293  0.00  0.00    -0.283 N 
ATOM     28  C   UNL     1       7.302  -0.143   0.198  0.00  0.00    +0.255 C 
ATOM     29  O   UNL     1       7.122   1.050   0.072  0.00  0.00    -0.272 OA
ATOM     30  H   UNL     1       8.723  -1.717   0.309  0.00  0.00    +0.155 HD
BRANCH  27  35
ATOM     31  C   UNL     1      12.963   2.928   0.613  0.00  0.00    +0.044 C 
ATOM     32  C   UNL     1      11.792   1.983   0.528  0.00  0.00    -0.050 A 
ATOM     33  C   UNL     1      10.544   2.390   0.962  0.00  0.00    +0.005 A 
ATOM     34  C   UNL     1       9.469   1.526   0.886  0.00  0.00    +0.023 A 
ATOM     35  C   UNL     1       9.642   0.248   0.372  0.00  0.00    +0.034 A 
ATOM     36  C   UNL     1      10.898  -0.160  -0.058  0.00  0.00    +0.023 A 
ATOM     37  C   UNL     1      11.968   0.711   0.016  0.00  0.00    +0.005 A 
ENDBRANCH  27  35
ENDBRANCH  26  28
ENDBRANCH  25  26
ENDBRANCH   1  25
TORSDOF 8
