REMARK  Name = ZINC09184180
REMARK  4 active torsions:
REMARK  status: ('A' for Active; 'I' for Inactive)
REMARK    1  A    between atoms: C_1  and  C_2
REMARK    2  A    between atoms: C_2  and  N_17
REMARK    3  A    between atoms: N_15  and  C_16
REMARK    4  A    between atoms: C_18  and  C_20
REMARK                            x       y       z     vdW  Elec       q    Type
REMARK                         _______ _______ _______ _____ _____    ______ ____
ROOT
ATOM      1  C   UNL     1       1.155   6.168  -1.520  0.00  0.00    +0.063 C 
ATOM      2  C   UNL     1      -0.017   5.484  -0.865  0.00  0.00    +0.034 C 
ATOM      3  C   UNL     1       0.166   4.326  -0.189  0.00  0.00    +0.115 C 
ATOM      4  C   UNL     1       1.488   3.703  -0.070  0.00  0.00    +0.212 C 
ATOM      5  O   UNL     1       2.472   4.398   0.110  0.00  0.00    -0.285 OA
ATOM      6  C   UNL     1       1.631   2.234  -0.165  0.00  0.00    +0.050 A 
ATOM      7  C   UNL     1       2.911   1.686  -0.306  0.00  0.00    +0.014 A 
ATOM      8  C   UNL     1       3.073   0.318  -0.363  0.00  0.00    +0.001 A 
ATOM      9  C   UNL     1       1.973  -0.517  -0.281  0.00  0.00    +0.002 A 
ATOM     10  C   UNL     1       0.704   0.018  -0.149  0.00  0.00    +0.029 A 
ATOM     11  C   UNL     1       0.528   1.386  -0.099  0.00  0.00    +0.120 A 
ATOM     12  S   UNL     1      -1.104   2.047   0.033  0.00  0.00    +0.075 S 
ATOM     13  O   UNL     1      -1.665   2.020  -1.273  0.00  0.00    -0.150 OA
ATOM     14  O   UNL     1      -1.718   1.408   1.144  0.00  0.00    -0.150 OA
ATOM     15  N   UNL     1      -0.914   3.649   0.443  0.00  0.00    -0.201 N 
ATOM     16  C   UNL     1      -1.803   4.320   1.395  0.00  0.00    +0.158 C 
ENDROOT
BRANCH   2  17
ATOM     17  N   UNL     1      -1.274   6.037  -0.955  0.00  0.00    -0.281 N 
ATOM     18  C   UNL     1      -1.837   6.238  -2.163  0.00  0.00    +0.283 C 
ATOM     19  O   UNL     1      -1.275   5.847  -3.169  0.00  0.00    -0.266 OA
ATOM     20  H   UNL     1      -1.755   6.281  -0.149  0.00  0.00    +0.155 HD
BRANCH  18  21
ATOM     21  C   UNL     1      -3.126   6.928  -2.264  0.00  0.00    +0.189 A 
ATOM     22  C   UNL     1      -3.801   7.202  -3.420  0.00  0.00    +0.054 A 
ATOM     23  C   UNL     1      -4.980   7.867  -3.050  0.00  0.00    +0.042 A 
ATOM     24  C   UNL     1      -4.970   7.977  -1.703  0.00  0.00    +0.196 A 
ATOM     25  O   UNL     1      -3.851   7.410  -1.234  0.00  0.00    -0.458 OA
ENDBRANCH  18  21
ENDBRANCH   2  17
TORSDOF 2
