REMARK  Name = ZINC39711372
REMARK  11 active torsions:
REMARK  status: ('A' for Active; 'I' for Inactive)
REMARK    1  A    between atoms: C_1  and  C_2
REMARK    2  A    between atoms: C_7  and  N_8
REMARK    3  A    between atoms: N_11  and  C_14
REMARK    4  A    between atoms: C_14  and  C_16
REMARK    5  A    between atoms: C_14  and  C_30
REMARK    6  A    between atoms: C_22  and  O_28
REMARK    7  A    between atoms: O_28  and  C_29
REMARK    8  A    between atoms: N_35  and  C_36
REMARK    9  A    between atoms: C_36  and  C_37
REMARK   10  A    between atoms: C_36  and  C_38
REMARK   11  A    between atoms: C_36  and  C_39
REMARK                            x       y       z     vdW  Elec       q    Type
REMARK                         _______ _______ _______ _____ _____    ______ ____
ROOT
ATOM      1  C   UNL     1      -0.002   3.397   4.785  0.00  0.00    -0.009 C 
ENDROOT
BRANCH   1   2
ATOM      2  C   UNL     1       1.175   3.798   5.676  0.00  0.00    +0.088 C 
ATOM      3  C   UNL     1       1.281   2.780   6.794  0.00  0.00    -0.006 C 
ATOM      4  C   UNL     1       1.198   3.242   8.071  0.00  0.00    -0.007 A 
ATOM      5  C   UNL     1       1.291   2.322   9.207  0.00  0.00    +0.013 A 
ATOM      6  C   UNL     1       1.205   2.818  10.464  0.00  0.00    +0.046 A 
ATOM      7  C   UNL     1       1.028   4.190  10.696  0.00  0.00    +0.122 A 
ATOM      8  C   UNL     1       0.934   5.103   9.668  0.00  0.00    +0.069 A 
ATOM      9  C   UNL     1       1.012   4.681   8.335  0.00  0.00    +0.044 A 
ATOM     10  N   UNL     1       0.919   5.574   7.347  0.00  0.00    -0.284 N 
ATOM     11  C   UNL     1       0.986   5.246   6.070  0.00  0.00    +0.223 C 
ATOM     12  O   UNL     1       0.895   6.105   5.213  0.00  0.00    -0.275 OA
ATOM     13  H   UNL     1       0.797   6.508   7.579  0.00  0.00    +0.155 HD
BRANCH   7  14
ATOM     14  O   UNL     1       0.948   4.633  11.973  0.00  0.00    -0.495 OA
ATOM     15  C   UNL     1       1.051   3.652  13.007  0.00  0.00    +0.277 C 
ENDBRANCH   7  14
ENDBRANCH   1   2
BRANCH   1  19
ATOM     16  N   UNL     1       0.604  -0.111   2.586  0.00  0.00    -0.333 N 
ATOM     17  C   UNL     1      -0.774   0.183   3.009  0.00  0.00    +0.086 C 
ATOM     18  C   UNL     1      -0.866   1.670   3.364  0.00  0.00    -0.059 C 
ATOM     19  N   UNL     1       0.158   1.998   4.364  0.00  0.00    +0.387 N 
ATOM     20  C   UNL     1       1.496   1.812   3.789  0.00  0.00    -0.059 C 
ATOM     21  C   UNL     1       1.705   0.326   3.458  0.00  0.00    +0.086 C 
ATOM     22  H   UNL     1       0.049   1.394   5.165  0.00  0.00    -0.081 HD
BRANCH  16  29
ATOM     23  C   UNL     1       0.951   1.423   0.216  0.00  0.00    +0.045 C 
ATOM     24  C   UNL     1       1.036  -0.082   0.212  0.00  0.00    -0.029 A 
ATOM     25  C   UNL     1       1.294  -0.756  -0.966  0.00  0.00    +0.006 A 
ATOM     26  C   UNL     1       1.373  -2.136  -0.971  0.00  0.00    +0.020 A 
ATOM     27  C   UNL     1       1.192  -2.847   0.203  0.00  0.00    +0.043 A 
ATOM     28  C   UNL     1       0.933  -2.178   1.384  0.00  0.00    +0.043 A 
ATOM     29  C   UNL     1       0.860  -0.791   1.393  0.00  0.00    +0.034 A 
ATOM     30 CL   UNL     1       1.291  -4.580   0.192  0.00  0.00    -0.083 Cl
ENDBRANCH  16  29
ENDBRANCH   1  19
BRANCH   1  31
ATOM     31  C   UNL     1      -1.308   3.548   5.567  0.00  0.00    +0.205 C 
ATOM     32  N   UNL     1      -1.428   2.486   6.575  0.00  0.00    -0.152 NA
ATOM     33  N   UNL     1      -2.432   1.814   6.330  0.00  0.00    -0.070 NA
ATOM     34  N   UNL     1      -3.121   2.260   5.202  0.00  0.00    -0.179 N 
ATOM     35  N   UNL     1      -2.470   3.348   4.675  0.00  0.00    -0.183 NA
ATOM     36  H   UNL     1      -3.932   1.865   4.846  0.00  0.00    +0.191 HD
BRANCH  35  37
ATOM     37  C   UNL     1      -3.339   4.532   4.668  0.00  0.00    +0.035 C 
ATOM     38  C   UNL     1      -2.550   5.740   4.159  0.00  0.00    +0.029 C 
ATOM     39  C   UNL     1      -4.536   4.281   3.749  0.00  0.00    +0.029 C 
ATOM     40  C   UNL     1      -3.835   4.809   6.089  0.00  0.00    +0.029 C 
ENDBRANCH  35  37
ENDBRANCH   1  31
TORSDOF 6
