REMARK  Name = ZINC53220379
REMARK  8 active torsions:
REMARK  status: ('A' for Active; 'I' for Inactive)
REMARK    1  A    between atoms: C_1  and  C_2
REMARK    2  A    between atoms: C_2  and  C_3
REMARK    3  A    between atoms: C_2  and  C_4
REMARK    4  A    between atoms: C_2  and  N_21
REMARK    5  A    between atoms: N_6  and  C_7
REMARK    6  A    between atoms: C_11  and  N_13
REMARK    7  A    between atoms: C_14  and  C_16
REMARK    8  A    between atoms: N_24  and  C_25
REMARK                            x       y       z     vdW  Elec       q    Type
REMARK                         _______ _______ _______ _____ _____    ______ ____
ROOT
ATOM      1  C   UNL     1      -3.373  -1.236  -1.155  0.00  0.00    +0.035 A 
ATOM      2  C   UNL     1      -4.285  -0.921  -2.155  0.00  0.00    +0.023 A 
ATOM      3  C   UNL     1      -5.545  -1.487  -2.147  0.00  0.00    +0.004 A 
ATOM      4  C   UNL     1      -5.903  -2.368  -1.145  0.00  0.00    +0.023 A 
ATOM      5  C   UNL     1      -4.997  -2.688  -0.142  0.00  0.00    +0.035 A 
ATOM      6  C   UNL     1      -3.728  -2.125  -0.150  0.00  0.00    +0.046 A 
ENDROOT
BRANCH   1   9
ATOM      7  C   UNL     1      -1.474  -0.387  -0.000  0.00  0.00    +0.240 C 
ATOM      8  O   UNL     1      -2.055  -0.549   1.052  0.00  0.00    -0.273 OA
ATOM      9  N   UNL     1      -2.097  -0.663  -1.163  0.00  0.00    -0.284 N 
ATOM     10  H   UNL     1      -1.661  -0.464  -2.006  0.00  0.00    +0.155 HD
BRANCH   7  12
ATOM     11  C   UNL     1      -0.062   1.642  -0.196  0.00  0.00    +0.041 C 
ATOM     12  C   UNL     1      -0.057   0.124  -0.007  0.00  0.00    +0.107 C 
ATOM     13  C   UNL     1       0.617  -0.223   1.322  0.00  0.00    +0.041 C 
BRANCH  12  14
ATOM     14  N   UNL     1       0.682  -0.502  -1.107  0.00  0.00    -0.286 N 
ATOM     15  C   UNL     1       1.979  -0.194  -1.309  0.00  0.00    +0.300 C 
ATOM     16  O   UNL     1       2.535   0.603  -0.579  0.00  0.00    -0.253 OA
ATOM     17  N   UNL     1       2.658  -0.770  -2.321  0.00  0.00    -0.302 N 
ATOM     18  C   UNL     1       4.068  -0.435  -2.540  0.00  0.00    +0.129 C 
ATOM     19  H   UNL     1       0.238  -1.138  -1.690  0.00  0.00    +0.151 HD
ATOM     20  H   UNL     1       2.214  -1.406  -2.903  0.00  0.00    +0.150 HD
ENDBRANCH  12  14
ENDBRANCH   7  12
ENDBRANCH   1   9
BRANCH   5  21
ATOM     21  N   UNL     1      -5.361  -3.579   0.873  0.00  0.00    -0.281 N 
ATOM     22  C   UNL     1      -6.164  -4.625   0.594  0.00  0.00    +0.255 C 
ATOM     23  O   UNL     1      -6.641  -4.747  -0.519  0.00  0.00    -0.269 OA
ATOM     24  H   UNL     1      -5.035  -3.445   1.776  0.00  0.00    +0.155 HD
BRANCH  22  25
ATOM     25  C   UNL     1      -6.464  -5.615   1.633  0.00  0.00    +0.074 A 
ATOM     26  C   UNL     1      -7.252  -6.753   1.553  0.00  0.00    +0.021 A 
ATOM     27  C   UNL     1      -7.346  -7.495   2.706  0.00  0.00    +0.008 A 
ATOM     28  C   UNL     1      -6.682  -7.080   3.813  0.00  0.00    +0.046 A 
ATOM     29  S   UNL     1      -5.904  -5.674   3.324  0.00  0.00    -0.092 S 
ENDBRANCH  22  25
ENDBRANCH   5  21
TORSDOF 5
