REMARK  Name = ZINC05903639
REMARK  5 active torsions:
REMARK  status: ('A' for Active; 'I' for Inactive)
REMARK    1  A    between atoms: C_1  and  C_2
REMARK    2  A    between atoms: C_2  and  C_3
REMARK    3  A    between atoms: C_9  and  C_11
REMARK    4  A    between atoms: C_11  and  S_12
REMARK    5  A    between atoms: S_12  and  C_13
REMARK                            x       y       z     vdW  Elec       q    Type
REMARK                         _______ _______ _______ _____ _____    ______ ____
ROOT
ATOM      1  C   UNL     1       5.191  -3.409  -8.529  0.00  0.00    +0.212 A 
ATOM      2  N   UNL     1       6.382  -3.753  -9.001  0.00  0.00    -0.201 NA
ATOM      3  C   UNL     1       6.490  -4.148 -10.266  0.00  0.00    +0.162 A 
ATOM      4  N   UNL     1       7.552  -4.559 -11.034  0.00  0.00    -0.338 N 
ATOM      5  C   UNL     1       7.128  -4.870 -12.316  0.00  0.00    +0.050 A 
ATOM      6  C   UNL     1       7.808  -5.322 -13.443  0.00  0.00    +0.026 A 
ATOM      7  C   UNL     1       7.122  -5.555 -14.616  0.00  0.00    +0.002 A 
ATOM      8  C   UNL     1       5.754  -5.343 -14.687  0.00  0.00    +0.001 A 
ATOM      9  C   UNL     1       5.063  -4.894 -13.582  0.00  0.00    +0.012 A 
ATOM     10  C   UNL     1       5.744  -4.655 -12.390  0.00  0.00    +0.029 A 
ATOM     11  C   UNL     1       5.324  -4.186 -11.058  0.00  0.00    +0.137 A 
ATOM     12  N   UNL     1       4.164  -3.830 -10.527  0.00  0.00    -0.143 NA
ATOM     13  N   UNL     1       4.105  -3.458  -9.294  0.00  0.00    -0.122 NA
ATOM     14  H   UNL     1       8.469  -4.622 -10.723  0.00  0.00    +0.167 HD
ENDROOT
BRANCH   1  15
ATOM     15  S   UNL     1       5.044  -2.884  -6.854  0.00  0.00    -0.075 S 
BRANCH  15  16
ATOM     16  C   UNL     1       3.275  -2.533  -6.657  0.00  0.00    +0.173 C 
BRANCH  16  23
ATOM     17  C   UNL     1       0.707  -0.490  -1.238  0.00  0.00    +0.103 A 
ATOM     18  N   UNL     1       1.983  -0.759  -1.434  0.00  0.00    -0.145 NA
ATOM     19  N   UNL     1       2.358  -1.161  -2.572  0.00  0.00    -0.126 NA
ATOM     20  C   UNL     1       1.510  -1.319  -3.570  0.00  0.00    +0.188 A 
ATOM     21  S   UNL     1       0.050  -0.872  -2.855  0.00  0.00    -0.035 S 
ATOM     22  N   UNL     1       1.756  -1.748  -4.870  0.00  0.00    -0.263 N 
ATOM     23  C   UNL     1       3.009  -2.068  -5.248  0.00  0.00    +0.229 C 
ATOM     24  O   UNL     1       3.923  -1.982  -4.455  0.00  0.00    -0.275 OA
ATOM     25  H   UNL     1       1.025  -1.817  -5.504  0.00  0.00    +0.157 HD
BRANCH  17  27
ATOM     26  C   UNL     1      -0.019   1.526   0.010  0.00  0.00    +0.011 C 
ATOM     27  C   UNL     1       0.002  -0.004   0.002  0.00  0.00    +0.061 C 
ENDBRANCH  17  27
ENDBRANCH  16  23
ENDBRANCH  15  16
ENDBRANCH   1  15
TORSDOF 4
