REMARK  Name = ZINC47230080
REMARK  3 active torsions:
REMARK  status: ('A' for Active; 'I' for Inactive)
REMARK    1  A    between atoms: C_8  and  C_11
REMARK    2  A    between atoms: N_13  and  C_14
REMARK    3  A    between atoms: C_16  and  N_21
REMARK                            x       y       z     vdW  Elec       q    Type
REMARK                         _______ _______ _______ _____ _____    ______ ____
ROOT
ATOM      1  C   UNL     1       3.713  -3.383  -0.047  0.00  0.00    +0.265 C 
ATOM      2  O   UNL     1       3.142  -4.457  -0.053  0.00  0.00    -0.268 OA
ATOM      3  N   UNL     1       5.060  -3.335  -0.063  0.00  0.00    -0.278 N 
ATOM      4  H   UNL     1       5.514  -2.482  -0.139  0.00  0.00    +0.155 HD
ENDROOT
BRANCH   1  12
ATOM      5  C   UNL     1      -0.015   1.361   0.060  0.00  0.00    +0.001 A 
ATOM      6  C   UNL     1       1.171   2.084   0.055  0.00  0.00    +0.002 A 
ATOM      7  C   UNL     1       2.387   1.439   0.031  0.00  0.00    +0.026 A 
ATOM      8  C   UNL     1       2.432   0.047   0.013  0.00  0.00    +0.047 A 
ATOM      9  C   UNL     1       1.228  -0.684   0.018  0.00  0.00    +0.000 A 
ATOM     10  C   UNL     1       0.003  -0.003   0.042  0.00  0.00    +0.010 A 
ATOM     11  C   UNL     1       1.577  -2.055  -0.004  0.00  0.00    +0.040 A 
ATOM     12  C   UNL     1       2.934  -2.136  -0.022  0.00  0.00    +0.103 A 
ATOM     13  N   UNL     1       3.464  -0.861  -0.012  0.00  0.00    -0.351 N 
ATOM     14  H   UNL     1       4.409  -0.641  -0.021  0.00  0.00    +0.166 HD
ENDBRANCH   1  12
BRANCH   3  15
ATOM     15  C   UNL     1       5.803  -4.518   0.030  0.00  0.00    +0.071 A 
ATOM     16  C   UNL     1       5.253  -5.638   0.636  0.00  0.00    +0.054 A 
ATOM     17  C   UNL     1       5.992  -6.808   0.726  0.00  0.00    +0.071 A 
ATOM     18  C   UNL     1       7.280  -6.857   0.210  0.00  0.00    +0.031 A 
ATOM     19  C   UNL     1       7.828  -5.740  -0.393  0.00  0.00    +0.042 A 
ATOM     20  C   UNL     1       7.092  -4.573  -0.490  0.00  0.00    +0.145 A 
ATOM     21  F   UNL     1       7.628  -3.484  -1.084  0.00  0.00    -0.204 F 
BRANCH  17  22
ATOM     22  N   UNL     1       5.438  -7.943   1.338  0.00  0.00    -0.200 N 
ATOM     23  C   UNL     1       6.022  -9.148   1.511  0.00  0.00    +0.250 A 
ATOM     24  N   UNL     1       5.157  -9.914   2.124  0.00  0.00    -0.116 NA
ATOM     25  N   UNL     1       4.067  -9.274   2.351  0.00  0.00    -0.023 NA
ATOM     26  N   UNL     1       4.159  -8.066   1.909  0.00  0.00    -0.039 NA
ENDBRANCH  17  22
ENDBRANCH   3  15
TORSDOF 3
