REMARK  Name = ZINC40337443
REMARK  3 active torsions:
REMARK  status: ('A' for Active; 'I' for Inactive)
REMARK    1  A    between atoms: C_1  and  C_2
REMARK    2  A    between atoms: C_12  and  C_14
REMARK    3  A    between atoms: C_16  and  N_20
REMARK                            x       y       z     vdW  Elec       q    Type
REMARK                         _______ _______ _______ _____ _____    ______ ____
ROOT
ATOM      1  C   UNL     1      -0.012   0.259  -0.925  0.00  0.00    +0.033 C 
ATOM      2  C   UNL     1       0.032  -1.110  -0.243  0.00  0.00    +0.104 C 
ATOM      3  C   UNL     1       0.796  -2.100  -1.120  0.00  0.00    -0.017 A 
ATOM      4  C   UNL     1       0.276  -2.640  -2.295  0.00  0.00    +0.013 A 
ATOM      5  C   UNL     1       1.012  -3.510  -3.024  0.00  0.00    +0.046 A 
ATOM      6  S   UNL     1       2.515  -3.614  -2.065  0.00  0.00    -0.101 S 
ATOM      7  C   UNL     1       2.050  -2.497  -0.768  0.00  0.00    -0.004 A 
ATOM      8  C   UNL     1       2.840  -2.088   0.432  0.00  0.00    +0.062 C 
ATOM      9  C   UNL     1       2.201  -0.827   1.036  0.00  0.00    +0.114 C 
ATOM     10  N   UNL     1       0.740  -1.005   1.040  0.00  0.00    -0.289 N 
ATOM     11  C   UNL     1       0.062  -1.070   2.203  0.00  0.00    +0.263 C 
ATOM     12  O   UNL     1       0.666  -1.101   3.259  0.00  0.00    -0.268 OA
ENDROOT
BRANCH  11  13
ATOM     13  C   UNL     1      -1.404  -1.105   2.195  0.00  0.00    +0.104 A 
ATOM     14  C   UNL     1      -2.213  -1.561   3.215  0.00  0.00    +0.055 A 
ATOM     15  C   UNL     1      -3.540  -1.412   2.788  0.00  0.00    +0.043 A 
ATOM     16  C   UNL     1      -3.516  -0.876   1.540  0.00  0.00    +0.106 A 
ATOM     17  N   UNL     1      -2.221  -0.681   1.172  0.00  0.00    -0.355 N 
ATOM     18  H   UNL     1      -1.923  -0.307   0.328  0.00  0.00    +0.166 HD
BRANCH  15  19
ATOM     19  N   UNL     1      -4.691  -1.755   3.522  0.00  0.00    -0.357 N 
ATOM     20  H   UNL     1      -4.604  -2.133   4.411  0.00  0.00    +0.142 HD
ATOM     21  H   UNL     1      -5.570  -1.612   3.139  0.00  0.00    +0.142 HD
ENDBRANCH  15  19
ENDBRANCH  11  13
TORSDOF 2
