REMARK  Name = ZINC63303037
REMARK  11 active torsions:
REMARK  status: ('A' for Active; 'I' for Inactive)
REMARK    1  A    between atoms: C_1  and  O_2
REMARK    2  A    between atoms: O_2  and  C_3
REMARK    3  A    between atoms: C_6  and  C_9
REMARK    4  A    between atoms: C_13  and  C_35
REMARK    5  A    between atoms: N_21  and  C_22
REMARK    6  A    between atoms: C_22  and  C_23
REMARK    7  A    between atoms: C_23  and  C_24
REMARK    8  A    between atoms: C_27  and  O_33
REMARK    9  A    between atoms: O_33  and  C_34
REMARK   10  A    between atoms: C_39  and  O_41
REMARK   11  A    between atoms: O_41  and  C_42
REMARK                            x       y       z     vdW  Elec       q    Type
REMARK                         _______ _______ _______ _____ _____    ______ ____
ROOT
ATOM      1  C   UNL     1       2.505  -2.503  -4.381  0.00  0.00    +0.114 C 
ATOM      2  C   UNL     1       3.888  -2.913  -4.043  0.00  0.00    +0.077 C 
ATOM      3  C   UNL     1       4.973  -2.393  -3.173  0.00  0.00    +0.136 C 
ATOM      4  N   UNL     1       5.668  -3.683  -2.854  0.00  0.00    -0.305 N 
ATOM      5  N   UNL     1       4.857  -4.649  -2.875  0.00  0.00    -0.203 NA
ATOM      6  C   UNL     1       3.509  -4.135  -3.088  0.00  0.00    +0.218 C 
ATOM      7  C   UNL     1       2.561  -4.822  -4.028  0.00  0.00    +0.243 C 
ATOM      8  O   UNL     1       2.430  -6.017  -4.181  0.00  0.00    -0.273 OA
ATOM      9  N   UNL     1       1.871  -3.829  -4.680  0.00  0.00    -0.292 N 
ATOM     10  H   UNL     1       6.615  -3.764  -2.658  0.00  0.00    +0.183 HD
ENDROOT
BRANCH   1  14
ATOM     11  C   UNL     1       0.607  -0.607  -1.055  0.00  0.00    +0.120 A 
ATOM     12  C   UNL     1       0.570  -1.988  -1.182  0.00  0.00    +0.046 A 
ATOM     13  C   UNL     1       1.184  -2.599  -2.258  0.00  0.00    +0.009 A 
ATOM     14  C   UNL     1       1.835  -1.835  -3.209  0.00  0.00    -0.026 A 
ATOM     15  C   UNL     1       1.874  -0.458  -3.085  0.00  0.00    +0.009 A 
ATOM     16  C   UNL     1       1.256   0.158  -2.013  0.00  0.00    +0.046 A 
BRANCH  11  18
ATOM     17  C   UNL     1      -0.647  -0.854   0.950  0.00  0.00    +0.277 C 
ATOM     18  O   UNL     1       0.003  -0.004   0.003  0.00  0.00    -0.495 OA
ENDBRANCH  11  18
ENDBRANCH   1  14
BRANCH   3  19
ATOM     19  C   UNL     1       5.877  -1.450  -3.925  0.00  0.00    -0.020 A 
ATOM     20  C   UNL     1       6.859  -1.953  -4.758  0.00  0.00    +0.006 A 
ATOM     21  C   UNL     1       7.690  -1.091  -5.449  0.00  0.00    +0.004 A 
ATOM     22  C   UNL     1       7.542   0.276  -5.308  0.00  0.00    +0.045 A 
ATOM     23  C   UNL     1       6.557   0.782  -4.473  0.00  0.00    +0.120 A 
ATOM     24  C   UNL     1       5.720  -0.085  -3.785  0.00  0.00    +0.051 A 
BRANCH  23  25
ATOM     25  O   UNL     1       6.409   2.126  -4.332  0.00  0.00    -0.495 OA
ATOM     26  C   UNL     1       7.301   2.958  -5.075  0.00  0.00    +0.277 C 
ENDBRANCH  23  25
ENDBRANCH   3  19
BRANCH   9  27
ATOM     27  C   UNL     1       0.699  -4.033  -5.535  0.00  0.00    +0.113 C 
BRANCH  27  28
ATOM     28  C   UNL     1       1.154  -4.258  -6.978  0.00  0.00    +0.052 C 
BRANCH  28  29
ATOM     29  C   UNL     1      -0.052  -4.468  -7.857  0.00  0.00    -0.040 C 
ATOM     30  C   UNL     1      -0.695  -3.533  -8.592  0.00  0.00    +0.002 A 
ATOM     31  C   UNL     1      -0.475  -2.095  -8.787  0.00  0.00    +0.055 A 
ATOM     32  C   UNL     1      -1.302  -1.398  -9.602  0.00  0.00    +0.121 A 
ATOM     33  C   UNL     1      -2.375  -2.004 -10.279  0.00  0.00    +0.047 A 
ATOM     34  C   UNL     1      -2.658  -3.320 -10.163  0.00  0.00    +0.029 A 
ATOM     35  C   UNL     1      -1.826  -4.170  -9.305  0.00  0.00    +0.043 A 
ATOM     36  N   UNL     1      -1.880  -5.447  -9.022  0.00  0.00    -0.380 N 
ATOM     37  C   UNL     1      -0.784  -5.769  -8.101  0.00  0.00    +0.144 C 
ATOM     38  H   UNL     1      -2.533  -6.077  -9.367  0.00  0.00    +0.160 HD
BRANCH  32  39
ATOM     39  O   UNL     1      -1.087  -0.067  -9.773  0.00  0.00    -0.495 OA
ATOM     40  C   UNL     1      -1.982   0.629 -10.642  0.00  0.00    +0.277 C 
ENDBRANCH  32  39
ENDBRANCH  28  29
ENDBRANCH  27  28
ENDBRANCH   9  27
TORSDOF 8
