REMARK  Name = ZINC39154576
REMARK  7 active torsions:
REMARK  status: ('A' for Active; 'I' for Inactive)
REMARK    1  A    between atoms: C_1  and  C_2
REMARK    2  A    between atoms: C_4  and  O_27
REMARK    3  A    between atoms: C_7  and  N_8
REMARK    4  A    between atoms: C_9  and  C_11
REMARK    5  A    between atoms: C_11  and  S_12
REMARK    6  A    between atoms: S_12  and  C_13
REMARK    7  A    between atoms: O_27  and  C_28
REMARK                            x       y       z     vdW  Elec       q    Type
REMARK                         _______ _______ _______ _____ _____    ______ ____
ROOT
ATOM      1  S   UNL     1      -0.258  -1.124   6.254  0.00  0.00    -0.075 S 
ENDROOT
BRANCH   1   2
ATOM      2  C   UNL     1      -0.383  -0.107   7.688  0.00  0.00    +0.208 C 
ATOM      3  N   UNL     1      -0.392   1.194   7.523  0.00  0.00    -0.227 NA
ATOM      4  C   UNL     1      -0.576   2.028   8.709  0.00  0.00    +0.252 C 
ATOM      5  C   UNL     1      -0.016   1.235   9.881  0.00  0.00    +0.117 C 
ATOM      6  C   UNL     1       0.802   2.095  10.547  0.00  0.00    +0.025 A 
ATOM      7  C   UNL     1       1.516   1.979  11.766  0.00  0.00    +0.012 A 
ATOM      8  C   UNL     1       2.271   3.042  12.152  0.00  0.00    +0.001 A 
ATOM      9  C   UNL     1       2.385   4.231  11.426  0.00  0.00    +0.002 A 
ATOM     10  C   UNL     1       1.741   4.456  10.250  0.00  0.00    +0.026 A 
ATOM     11  C   UNL     1       0.892   3.360   9.754  0.00  0.00    +0.046 A 
ATOM     12  N   UNL     1       0.152   3.289   8.690  0.00  0.00    -0.358 N 
ATOM     13  N   UNL     1      -0.252  -0.075  10.007  0.00  0.00    -0.147 NA
ATOM     14  N   UNL     1      -0.469  -0.714   8.897  0.00  0.00    -0.122 NA
ATOM     15  H   UNL     1       0.094   3.965   7.997  0.00  0.00    +0.162 HD
ENDBRANCH   1   2
BRANCH   1  16
ATOM     16  C   UNL     1      -0.167   0.059   4.883  0.00  0.00    +0.173 C 
BRANCH  16  18
ATOM     17  N   UNL     1       0.025  -0.011   2.418  0.00  0.00    -0.285 N 
ATOM     18  C   UNL     1      -0.056  -0.689   3.580  0.00  0.00    +0.227 C 
ATOM     19  O   UNL     1      -0.040  -1.902   3.577  0.00  0.00    -0.275 OA
ATOM     20  H   UNL     1       0.079   0.957   2.424  0.00  0.00    +0.155 HD
BRANCH  17  27
ATOM     21  C   UNL     1      -1.264   1.184   0.182  0.00  0.00    +0.046 C 
ATOM     22  C   UNL     1      -0.584  -0.158   0.085  0.00  0.00    -0.026 A 
ATOM     23  C   UNL     1      -0.571  -0.840  -1.116  0.00  0.00    +0.050 A 
ATOM     24  C   UNL     1       0.055  -2.074  -1.206  0.00  0.00    +0.120 A 
ATOM     25  C   UNL     1       0.668  -2.625  -0.089  0.00  0.00    +0.047 A 
ATOM     26  C   UNL     1       0.655  -1.944   1.111  0.00  0.00    +0.027 A 
ATOM     27  C   UNL     1       0.034  -0.705   1.201  0.00  0.00    +0.037 A 
BRANCH  24  28
ATOM     28  O   UNL     1       0.067  -2.745  -2.388  0.00  0.00    -0.495 OA
ATOM     29  C   UNL     1       0.729  -4.012  -2.409  0.00  0.00    +0.277 C 
ENDBRANCH  24  28
ENDBRANCH  17  27
ENDBRANCH  16  18
ENDBRANCH   1  16
TORSDOF 5
