REMARK  Name = ZINC44645934
REMARK  4 active torsions:
REMARK  status: ('A' for Active; 'I' for Inactive)
REMARK    1  A    between atoms: C_1  and  N_2
REMARK    2  A    between atoms: C_11  and  S_12
REMARK    3  A    between atoms: S_12  and  C_13
REMARK    4  A    between atoms: C_13  and  C_14
REMARK                            x       y       z     vdW  Elec       q    Type
REMARK                         _______ _______ _______ _____ _____    ______ ____
ROOT
ATOM      1  S   UNL     1       2.932   0.773   0.308  0.00  0.00    -0.078 S 
ENDROOT
BRANCH   1  12
ATOM      2  C   UNL     1       0.419   2.317   0.590  0.00  0.00    +0.154 C 
ATOM      3  N   UNL     1       0.231   0.868   0.489  0.00  0.00    -0.290 N 
ATOM      4  C   UNL     1      -1.015   0.360   0.524  0.00  0.00    +0.263 A 
ATOM      5  O   UNL     1      -1.980   1.095   0.639  0.00  0.00    -0.267 OA
ATOM      6  C   UNL     1      -1.188  -1.056   0.424  0.00  0.00    +0.076 A 
ATOM      7  C   UNL     1      -2.448  -1.819   0.440  0.00  0.00    -0.023 A 
ATOM      8  C   UNL     1      -2.352  -3.153   0.331  0.00  0.00    -0.004 A 
ATOM      9  S   UNL     1      -0.609  -3.480   0.198  0.00  0.00    -0.073 S 
ATOM     10  C   UNL     1      -0.014  -1.812   0.294  0.00  0.00    +0.117 A 
ATOM     11  N   UNL     1       1.189  -1.249   0.267  0.00  0.00    -0.216 NA
ATOM     12  C   UNL     1       1.322   0.059   0.355  0.00  0.00    +0.173 A 
ATOM     13  C   UNL     1      -3.698  -3.825   0.364  0.00  0.00    +0.043 C 
ATOM     14  C   UNL     1      -4.650  -2.756   0.945  0.00  0.00    +0.010 C 
ATOM     15  C   UNL     1      -3.930  -1.451   0.554  0.00  0.00    +0.037 C 
ENDBRANCH   1  12
BRANCH   1  16
ATOM     16  C   UNL     1       4.039  -0.653   0.125  0.00  0.00    +0.173 C 
BRANCH  16  17
ATOM     17  C   UNL     1       5.468  -0.176   0.071  0.00  0.00    +0.227 C 
ATOM     18  O   UNL     1       5.715   1.009   0.148  0.00  0.00    -0.275 OA
ATOM     19  N   UNL     1       6.471  -1.066  -0.064  0.00  0.00    -0.285 N 
ATOM     20  C   UNL     1       7.327  -0.949  -1.060  0.00  0.00    +0.036 C 
ATOM     21  C   UNL     1       7.117   0.073  -2.092  0.00  0.00    +0.025 C 
ATOM     22  C   UNL     1       7.988   0.199  -3.113  0.00  0.00    +0.032 C 
ATOM     23  C   UNL     1       9.153  -0.687  -3.199  0.00  0.00    +0.095 C 
ATOM     24  N   UNL     1      10.154  -0.810  -4.049  0.00  0.00    -0.190 NA
ATOM     25  C   UNL     1      10.960  -1.806  -3.643  0.00  0.00    +0.369 C 
ATOM     26  O   UNL     1      12.082  -2.192  -4.295  0.00  0.00    -0.243 OA
ATOM     27  N   UNL     1      10.522  -2.358  -2.536  0.00  0.00    -0.190 NA
ATOM     28  C   UNL     1       9.374  -1.719  -2.167  0.00  0.00    +0.097 C 
ATOM     29  C   UNL     1       8.502  -1.844  -1.135  0.00  0.00    +0.053 C 
ATOM     30  H   UNL     1       6.563  -1.792   0.572  0.00  0.00    +0.155 HD
ENDBRANCH  16  17
ENDBRANCH   1  16
TORSDOF 3
