REMARK  Name = ZINC08762150
REMARK  11 active torsions:
REMARK  status: ('A' for Active; 'I' for Inactive)
REMARK    1  A    between atoms: C_6  and  C_7
REMARK    2  A    between atoms: C_7  and  C_9
REMARK    3  A    between atoms: C_7  and  C_29
REMARK    4  A    between atoms: N_10  and  O_11
REMARK    5  A    between atoms: O_11  and  C_12
REMARK    6  A    between atoms: C_12  and  C_13
REMARK    7  A    between atoms: N_15  and  C_16
REMARK    8  A    between atoms: C_16  and  C_17
REMARK    9  A    between atoms: C_17  and  N_18
REMARK   10  A    between atoms: N_18  and  C_19
REMARK   11  A    between atoms: C_22  and  C_24
REMARK                            x       y       z     vdW  Elec       q    Type
REMARK                         _______ _______ _______ _____ _____    ______ ____
ROOT
ATOM      1  C   UNL     1       4.720   1.058  -0.037  0.00  0.00    +0.253 C 
ATOM      2  O   UNL     1       4.641  -0.152  -0.043  0.00  0.00    -0.272 OA
ATOM      3  N   UNL     1       5.929   1.654  -0.046  0.00  0.00    -0.311 N 
ATOM      4  H   UNL     1       5.992   2.622  -0.041  0.00  0.00    +0.149 HD
ENDROOT
BRANCH   1   5
ATOM      5  C   UNL     1       3.467   1.895  -0.021  0.00  0.00    +0.358 C 
BRANCH   5   6
ATOM      6  O   UNL     1       2.322   1.039  -0.015  0.00  0.00    -0.385 OA
BRANCH   6   8
ATOM      7  C   UNL     1      -0.013   1.076   0.008  0.00  0.00    +0.148 C 
ATOM      8  N   UNL     1       1.087   1.731   0.001  0.00  0.00    -0.095 NA
BRANCH   7   9
ATOM      9  C   UNL     1      -1.328   1.812   0.018  0.00  0.00    +0.165 C 
BRANCH   9  15
ATOM     10  C   UNL     1      -2.466   0.112   1.460  0.00  0.00    +0.007 A 
ATOM     11  C   UNL     1      -3.176  -0.240   2.593  0.00  0.00    +0.020 A 
ATOM     12  C   UNL     1      -3.538   0.730   3.510  0.00  0.00    +0.041 A 
ATOM     13  C   UNL     1      -3.184   2.050   3.297  0.00  0.00    +0.020 A 
ATOM     14  C   UNL     1      -2.468   2.400   2.167  0.00  0.00    +0.007 A 
ATOM     15  C   UNL     1      -2.107   1.430   1.250  0.00  0.00    -0.025 A 
ATOM     16 CL   UNL     1      -4.438   0.291   4.929  0.00  0.00    -0.084 Cl
ENDBRANCH   9  15
BRANCH   9  17
ATOM     17  C   UNL     1      -2.100   1.452  -1.182  0.00  0.00    +0.076 C 
ATOM     18  N   UNL     1      -2.697   1.175  -2.108  0.00  0.00    -0.196 NA
ENDBRANCH   9  17
ENDBRANCH   7   9
ENDBRANCH   6   8
ENDBRANCH   5   6
ENDBRANCH   1   5
BRANCH   3  19
ATOM     19  C   UNL     1       7.147   0.840  -0.062  0.00  0.00    +0.123 C 
BRANCH  19  20
ATOM     20  C   UNL     1       8.372   1.756  -0.068  0.00  0.00    +0.121 C 
BRANCH  20  21
ATOM     21  N   UNL     1       9.590   0.942  -0.085  0.00  0.00    -0.328 N 
ATOM     22  H   UNL     1       9.527  -0.026  -0.089  0.00  0.00    +0.147 HD
BRANCH  21  23
ATOM     23  C   UNL     1      10.837   1.557  -0.093  0.00  0.00    +0.115 A 
ATOM     24  C   UNL     1      11.991   0.778  -0.102  0.00  0.00    +0.079 A 
ATOM     25  C   UNL     1      13.225   1.404  -0.117  0.00  0.00    +0.037 A 
ATOM     26  C   UNL     1      13.264   2.792  -0.110  0.00  0.00    +0.072 A 
ATOM     27  C   UNL     1      12.081   3.502  -0.095  0.00  0.00    +0.096 A 
ATOM     28 CL   UNL     1      11.883  -0.955  -0.103  0.00  0.00    -0.080 Cl
ATOM     29  N   UNL     1      10.851   2.921  -0.086  0.00  0.00    -0.348 N 
ATOM     30  H   UNL     1       9.986   3.475  -0.074  0.00  0.00    +0.167 HD
BRANCH  26  31
ATOM     31  C   UNL     1      14.586   3.516  -0.119  0.00  0.00    +0.419 C 
ATOM     32  F   UNL     1      14.361   4.897  -0.110  0.00  0.00    -0.166 F 
ATOM     33  F   UNL     1      15.323   3.156   1.014  0.00  0.00    -0.166 F 
ATOM     34  F   UNL     1      15.301   3.168  -1.270  0.00  0.00    -0.166 F 
ENDBRANCH  26  31
ENDBRANCH  21  23
ENDBRANCH  20  21
ENDBRANCH  19  20
ENDBRANCH   3  19
TORSDOF 11
