REMARK  Name = ZINC15496932
REMARK  6 active torsions:
REMARK  status: ('A' for Active; 'I' for Inactive)
REMARK    1  A    between atoms: C_1  and  C_2
REMARK    2  A    between atoms: C_5  and  N_9
REMARK    3  A    between atoms: C_6  and  O_8
REMARK    4  A    between atoms: C_10  and  C_12
REMARK    5  A    between atoms: C_12  and  N_13
REMARK    6  A    between atoms: C_21  and  C_23
REMARK                            x       y       z     vdW  Elec       q    Type
REMARK                         _______ _______ _______ _____ _____    ______ ____
ROOT
ATOM      1  C   UNL     1       2.449   1.611  -0.013  0.00  0.00    +0.214 C 
ENDROOT
BRANCH   1   2
ATOM      2  N   UNL     1       1.056   2.064   0.002  0.00  0.00    -0.215 N 
ATOM      3  C   UNL     1      -0.011   1.238   0.015  0.00  0.00    +0.247 C 
ATOM      4  O   UNL     1       0.001   0.026   0.017  0.00  0.00    -0.273 OA
ATOM      5  C   UNL     1      -1.222   2.142   0.021  0.00  0.00    +0.115 C 
ATOM      6  C   UNL     1      -2.050   1.913   1.281  0.00  0.00    +0.035 C 
ATOM      7  C   UNL     1      -3.255   2.857   1.281  0.00  0.00    +0.003 C 
ATOM      8  C   UNL     1      -4.107   2.594   0.037  0.00  0.00    +0.000 C 
ATOM      9  C   UNL     1      -3.270   2.851  -1.218  0.00  0.00    +0.006 C 
ATOM     10  C   UNL     1      -2.065   1.908  -1.229  0.00  0.00    +0.018 C 
ATOM     11  C   UNL     1      -1.217   2.179  -2.473  0.00  0.00    +0.010 C 
ATOM     12  N   UNL     1      -0.656   3.497   0.018  0.00  0.00    -0.285 N 
ATOM     13  C   UNL     1       0.682   3.350   0.003  0.00  0.00    +0.310 C 
ATOM     14  O   UNL     1       1.464   4.281  -0.008  0.00  0.00    -0.252 OA
ATOM     15  H   UNL     1      -1.149   4.332   0.021  0.00  0.00    +0.151 HD
ENDBRANCH   1   2
BRANCH   1  17
ATOM     16  N   UNL     1       4.168   1.043  -1.699  0.00  0.00    -0.281 N 
ATOM     17  C   UNL     1       2.910   1.454  -1.439  0.00  0.00    +0.235 C 
ATOM     18  O   UNL     1       2.150   1.696  -2.353  0.00  0.00    -0.274 OA
ATOM     19  H   UNL     1       4.795   0.912  -0.971  0.00  0.00    +0.155 HD
BRANCH  16  24
ATOM     20  C   UNL     1       5.788   0.088  -7.057  0.00  0.00    +0.044 C 
ATOM     21  C   UNL     1       5.360   0.340  -5.634  0.00  0.00    -0.047 A 
ATOM     22  C   UNL     1       4.468   1.359  -5.352  0.00  0.00    +0.005 A 
ATOM     23  C   UNL     1       4.067   1.590  -4.050  0.00  0.00    +0.027 A 
ATOM     24  C   UNL     1       4.568   0.807  -3.021  0.00  0.00    +0.075 A 
ATOM     25  C   UNL     1       5.467  -0.219  -3.305  0.00  0.00    +0.138 A 
ATOM     26  C   UNL     1       5.859  -0.448  -4.614  0.00  0.00    +0.050 A 
BRANCH  25  27
ATOM     27  O   UNL     1       5.957  -0.993  -2.301  0.00  0.00    -0.505 OA
ATOM     28  H   UNL     1       5.425  -1.779  -2.114  0.00  0.00    +0.292 HD
ENDBRANCH  25  27
ENDBRANCH  16  24
ENDBRANCH   1  17
TORSDOF 4
