REMARK  Name = ZINC00052385
REMARK  3 active torsions:
REMARK  status: ('A' for Active; 'I' for Inactive)
REMARK    1  A    between atoms: C_12  and  S_15
REMARK    2  A    between atoms: S_15  and  C_16
REMARK    3  A    between atoms: C_16  and  C_17
REMARK                            x       y       z     vdW  Elec       q    Type
REMARK                         _______ _______ _______ _____ _____    ______ ____
ROOT
ATOM      1  C   UNL     1       8.068   3.374  -0.058  0.00  0.00    +0.001 A 
ATOM      2  C   UNL     1       7.916   4.752  -0.049  0.00  0.00    +0.002 A 
ATOM      3  C   UNL     1       6.660   5.319  -0.034  0.00  0.00    +0.026 A 
ATOM      4  C   UNL     1       5.529   4.508  -0.026  0.00  0.00    +0.050 A 
ATOM      5  C   UNL     1       5.685   3.113  -0.035  0.00  0.00    +0.029 A 
ATOM      6  C   UNL     1       6.960   2.554  -0.051  0.00  0.00    +0.012 A 
ATOM      7  C   UNL     1       4.326   2.544  -0.026  0.00  0.00    +0.137 A 
ATOM      8  C   UNL     1       3.438   3.639  -0.011  0.00  0.00    +0.162 A 
ATOM      9  N   UNL     1       4.175   4.798  -0.012  0.00  0.00    -0.338 N 
ATOM     10  H   UNL     1       3.800   5.692  -0.004  0.00  0.00    +0.167 HD
ATOM     11  N   UNL     1       2.131   3.393  -0.005  0.00  0.00    -0.201 NA
ATOM     12  C   UNL     1       1.708   2.135  -0.003  0.00  0.00    +0.212 A 
ATOM     13  N   UNL     1       2.565   1.119  -0.016  0.00  0.00    -0.122 NA
ATOM     14  N   UNL     1       3.840   1.312  -0.028  0.00  0.00    -0.143 NA
ENDROOT
BRANCH  12  15
ATOM     15  S   UNL     1      -0.022   1.806   0.012  0.00  0.00    -0.075 S 
BRANCH  15  16
ATOM     16  C   UNL     1       0.002  -0.004   0.002  0.00  0.00    +0.173 C 
BRANCH  16  17
ATOM     17  C   UNL     1      -1.412  -0.526   0.013  0.00  0.00    +0.229 C 
ATOM     18  O   UNL     1      -2.344   0.250   0.026  0.00  0.00    -0.275 OA
ATOM     19  N   UNL     1      -1.640  -1.854   0.008  0.00  0.00    -0.264 N 
ATOM     20  C   UNL     1      -2.944  -2.335   0.018  0.00  0.00    +0.164 A 
ATOM     21  N   UNL     1      -4.076  -1.659   0.038  0.00  0.00    -0.233 NA
ATOM     22  C   UNL     1      -5.241  -2.278   0.040  0.00  0.00    +0.120 A 
ATOM     23  C   UNL     1      -5.253  -3.633   0.033  0.00  0.00    +0.068 A 
ATOM     24  S   UNL     1      -3.500  -3.980   0.014  0.00  0.00    -0.061 S 
ATOM     25  H   UNL     1      -0.894  -2.474  -0.003  0.00  0.00    +0.157 HD
ENDBRANCH  16  17
ENDBRANCH  15  16
ENDBRANCH  12  15
TORSDOF 3
