REMARK  Name = ZINC13123142
REMARK  4 active torsions:
REMARK  status: ('A' for Active; 'I' for Inactive)
REMARK    1  A    between atoms: C_1  and  C_2
REMARK    2  A    between atoms: C_3  and  C_19
REMARK    3  A    between atoms: C_4  and  C_12
REMARK    4  A    between atoms: C_19  and  C_21
REMARK                            x       y       z     vdW  Elec       q    Type
REMARK                         _______ _______ _______ _____ _____    ______ ____
ROOT
ATOM      1  C   UNL     1       0.103   1.495  -0.063  0.00  0.00    +0.066 C 
ATOM      2  C   UNL     1       0.060  -0.011  -0.017  0.00  0.00    +0.050 C 
ATOM      3  C   UNL     1      -1.166  -0.651  -0.027  0.00  0.00    +0.042 C 
ATOM      4  C   UNL     1      -1.152  -2.169   0.020  0.00  0.00    +0.162 C 
ATOM      5  N   UNL     1       0.171  -2.800   0.070  0.00  0.00    -0.209 N 
ATOM      6  C   UNL     1       1.290  -2.006   0.073  0.00  0.00    +0.214 C 
ATOM      7  N   UNL     1       1.196  -0.686   0.025  0.00  0.00    -0.220 NA
ATOM      8  N   UNL     1       2.355  -2.827   0.123  0.00  0.00    -0.320 N 
ATOM      9  C   UNL     1       1.966  -4.075   0.152  0.00  0.00    +0.176 C 
ATOM     10  N   UNL     1       0.614  -4.125   0.121  0.00  0.00    -0.252 N 
ATOM     11  H   UNL     1       0.062  -4.922   0.133  0.00  0.00    +0.171 HD
ATOM     12  H   UNL     1       3.280  -2.535   0.136  0.00  0.00    +0.169 HD
ENDROOT
BRANCH   4  13
ATOM     13  C   UNL     1      -1.925  -2.609   1.236  0.00  0.00    -0.020 A 
ATOM     14  C   UNL     1      -1.368  -2.474   2.495  0.00  0.00    +0.006 A 
ATOM     15  C   UNL     1      -2.076  -2.877   3.611  0.00  0.00    +0.001 A 
ATOM     16  C   UNL     1      -3.342  -3.415   3.470  0.00  0.00    +0.015 A 
ATOM     17  C   UNL     1      -3.900  -3.549   2.212  0.00  0.00    +0.018 A 
ATOM     18  C   UNL     1      -3.192  -3.141   1.095  0.00  0.00    +0.021 A 
ATOM     19 BR   UNL     1      -5.631  -4.286   2.018  0.00  0.00    -0.050 Br
ENDBRANCH   4  13
BRANCH   3  20
ATOM     20  C   UNL     1      -2.361   0.066  -0.077  0.00  0.00    +0.160 C 
ATOM     21  O   UNL     1      -2.684   0.774   0.858  0.00  0.00    -0.293 OA
ATOM     22  C   UNL     1      -3.251  -0.037  -1.288  0.00  0.00    +0.091 C 
ENDBRANCH   3  20
TORSDOF 2
