REMARK  Name = ZINC11839298
REMARK  8 active torsions:
REMARK  status: ('A' for Active; 'I' for Inactive)
REMARK    1  A    between atoms: C_1  and  C_2
REMARK    2  A    between atoms: C_2  and  C_3
REMARK    3  A    between atoms: C_9  and  O_14
REMARK    4  A    between atoms: O_14  and  C_15
REMARK    5  A    between atoms: C_16  and  C_17
REMARK    6  A    between atoms: C_16  and  N_57
REMARK    7  A    between atoms: C_17  and  N_18
REMARK    8  A    between atoms: C_19  and  C_21
REMARK                            x       y       z     vdW  Elec       q    Type
REMARK                         _______ _______ _______ _____ _____    ______ ____
ROOT
ATOM      1  C   UNL     1       1.192  10.138   0.042  0.00  0.00    -0.059 C 
ENDROOT
BRANCH   1  12
ATOM      2  C   UNL     1       0.616  13.592  -1.358  0.00  0.00    +0.157 C 
ATOM      3  C   UNL     1       0.424  12.109  -1.122  0.00  0.00    -0.033 C 
ATOM      4  C   UNL     1       0.572  12.104   1.309  0.00  0.00    -0.039 C 
ATOM      5  C   UNL     1       1.169  13.466   1.607  0.00  0.00    -0.019 A 
ATOM      6  C   UNL     1       2.018  13.631   2.682  0.00  0.00    +0.051 A 
ATOM      7  C   UNL     1       2.541  14.888   2.956  0.00  0.00    +0.121 A 
ATOM      8  C   UNL     1       2.207  15.967   2.152  0.00  0.00    +0.049 A 
ATOM      9  C   UNL     1       1.361  15.795   1.073  0.00  0.00    +0.049 A 
ATOM     10  C   UNL     1       0.848  14.536   0.794  0.00  0.00    +0.122 A 
ATOM     11  O   UNL     1       0.042  14.353  -0.288  0.00  0.00    -0.490 OA
ATOM     12  N   UNL     1       1.176  11.610   0.049  0.00  0.00    +0.386 N 
ATOM     13  H   UNL     1       2.142  11.953  -0.009  0.00  0.00    -0.081 HD
BRANCH   2  15
ATOM     14  C   UNL     1       0.261  15.445  -2.996  0.00  0.00    +0.007 C 
ATOM     15  C   UNL     1      -0.059  13.984  -2.674  0.00  0.00    +0.039 C 
ENDBRANCH   2  15
BRANCH   7  16
ATOM     16  O   UNL     1       3.381  15.059   4.011  0.00  0.00    -0.495 OA
ATOM     17  C   UNL     1       3.882  16.379   4.234  0.00  0.00    +0.277 C 
ENDBRANCH   7  16
ENDBRANCH   1  12
BRANCH   1  18
ATOM     18  C   UNL     1      -0.230   9.573   0.052  0.00  0.00    +0.086 C 
BRANCH  18  19
ATOM     19  N   UNL     1      -0.174   8.109   0.044  0.00  0.00    -0.313 N 
ATOM     20  C   UNL     1      -1.314   7.391   0.051  0.00  0.00    +0.251 C 
ATOM     21  O   UNL     1      -2.390   7.958   0.064  0.00  0.00    -0.270 OA
ATOM     22  H   UNL     1       0.684   7.657   0.034  0.00  0.00    +0.149 HD
BRANCH  20  23
ATOM     23  C   UNL     1      -1.258   5.920   0.043  0.00  0.00    +0.122 A 
ATOM     24  C   UNL     1      -0.040   5.261   0.029  0.00  0.00    +0.031 A 
ATOM     25  C   UNL     1      -0.032   3.844   0.022  0.00  0.00    +0.018 A 
ATOM     26  C   UNL     1       1.184   3.144   0.007  0.00  0.00    +0.011 A 
ATOM     27  C   UNL     1       1.184   1.780   0.000  0.00  0.00    +0.001 A 
ATOM     28  C   UNL     1      -0.013   1.076   0.008  0.00  0.00    +0.004 A 
ATOM     29  C   UNL     1      -1.219   1.742   0.017  0.00  0.00    +0.047 A 
ATOM     30  C   UNL     1      -1.246   3.133   0.030  0.00  0.00    +0.139 A 
ATOM     31  O   UNL     1      -2.429   3.783   0.044  0.00  0.00    -0.422 OA
ATOM     32  C   UNL     1      -2.491   5.125   0.051  0.00  0.00    +0.350 A 
ATOM     33  O   UNL     1      -3.572   5.683   0.064  0.00  0.00    -0.244 OA
ENDBRANCH  20  23
ENDBRANCH  18  19
ENDBRANCH   1  18
TORSDOF 6
