REMARK  Name = ZINC22504955
REMARK  6 active torsions:
REMARK  status: ('A' for Active; 'I' for Inactive)
REMARK    1  A    between atoms: C_1  and  C_2
REMARK    2  A    between atoms: C_7  and  O_8
REMARK    3  A    between atoms: O_8  and  C_9
REMARK    4  A    between atoms: C_9  and  C_10
REMARK    5  A    between atoms: C_16  and  C_18
REMARK    6  A    between atoms: C_20  and  C_24
REMARK                            x       y       z     vdW  Elec       q    Type
REMARK                         _______ _______ _______ _____ _____    ______ ____
ROOT
ATOM      1  C   UNL     1      -0.068   0.141  -4.769  0.00  0.00    +0.193 A 
ATOM      2  N   UNL     1      -1.138   0.591  -5.363  0.00  0.00    -0.128 NA
ATOM      3  N   UNL     1      -0.808   1.358  -6.344  0.00  0.00    -0.120 NA
ATOM      4  C   UNL     1       0.486   1.423  -6.424  0.00  0.00    +0.218 A 
ATOM      5  N   UNL     1       1.032   0.653  -5.426  0.00  0.00    -0.186 N 
ATOM      6  N   UNL     1       2.419   0.609  -5.365  0.00  0.00    -0.154 NA
ATOM      7  C   UNL     1       3.156   1.273  -6.220  0.00  0.00    +0.150 A 
ATOM      8  S   UNL     1       1.925   2.063  -7.245  0.00  0.00    -0.025 S 
ENDROOT
BRANCH   7   9
ATOM      9  C   UNL     1       4.627   1.350  -6.312  0.00  0.00    +0.093 A 
ATOM     10  C   UNL     1       5.342   2.063  -7.231  0.00  0.00    +0.060 A 
ATOM     11  C   UNL     1       6.705   1.861  -6.964  0.00  0.00    +0.093 A 
ATOM     12  N   UNL     1       6.810   1.058  -5.926  0.00  0.00    -0.173 NA
ATOM     13  N   UNL     1       5.521   0.725  -5.491  0.00  0.00    -0.274 N 
ATOM     14  H   UNL     1       5.161   0.094  -4.665  0.00  0.00    +0.189 HD
BRANCH  11  15
ATOM     15  C   UNL     1       7.837   2.452  -7.723  0.00  0.00    +0.002 A 
ATOM     16  C   UNL     1       7.589   3.285  -8.811  0.00  0.00    +0.010 A 
ATOM     17  C   UNL     1       8.644   3.836  -9.510  0.00  0.00    +0.001 A 
ATOM     18  C   UNL     1       9.946   3.552  -9.138  0.00  0.00    +0.000 A 
ATOM     19  C   UNL     1      10.197   2.721  -8.062  0.00  0.00    +0.001 A 
ATOM     20  C   UNL     1       9.150   2.170  -7.353  0.00  0.00    +0.010 A 
ENDBRANCH  11  15
ENDBRANCH   7   9
BRANCH   1  21
ATOM     21  C   UNL     1      -0.038  -0.781  -3.578  0.00  0.00    +0.307 C 
BRANCH  21  22
ATOM     22  O   UNL     1      -0.032  -0.008  -2.377  0.00  0.00    -0.484 OA
BRANCH  22  29
ATOM     23  C   UNL     1      -0.018   1.503   0.010  0.00  0.00    +0.047 C 
ATOM     24  C   UNL     1       0.002  -0.004   0.002  0.00  0.00    -0.009 A 
ATOM     25  C   UNL     1       0.023  -0.702   1.194  0.00  0.00    +0.007 A 
ATOM     26  C   UNL     1       0.041  -2.084   1.187  0.00  0.00    +0.000 A 
ATOM     27  C   UNL     1       0.038  -2.772  -0.012  0.00  0.00    +0.004 A 
ATOM     28  C   UNL     1       0.017  -2.079  -1.207  0.00  0.00    +0.046 A 
ATOM     29  C   UNL     1      -0.006  -0.692  -1.203  0.00  0.00    +0.124 A 
ENDBRANCH  22  29
ENDBRANCH  21  22
ENDBRANCH   1  21
TORSDOF 5
