REMARK  Name = ZINC63266068
REMARK  8 active torsions:
REMARK  status: ('A' for Active; 'I' for Inactive)
REMARK    1  A    between atoms: C_1  and  C_2
REMARK    2  A    between atoms: C_2  and  O_3
REMARK    3  A    between atoms: O_3  and  C_4
REMARK    4  A    between atoms: C_7  and  N_10
REMARK    5  A    between atoms: C_14  and  N_18
REMARK    6  A    between atoms: N_18  and  C_19
REMARK    7  A    between atoms: C_19  and  C_20
REMARK    8  A    between atoms: C_20  and  C_21
REMARK                            x       y       z     vdW  Elec       q    Type
REMARK                         _______ _______ _______ _____ _____    ______ ____
ROOT
ATOM      1  N   UNL     1       1.101  -5.940  -1.835  0.00  0.00    -0.212 N 
ATOM      2  C   UNL     1       0.688  -6.816  -0.911  0.00  0.00    +0.225 C 
ATOM      3  O   UNL     1       0.184  -6.528   0.153  0.00  0.00    -0.275 OA
ATOM      4  C   UNL     1       0.951  -8.222  -1.405  0.00  0.00    +0.090 C 
ATOM      5  C   UNL     1       1.593  -8.004  -2.790  0.00  0.00    +0.026 C 
ATOM      6  C   UNL     1       1.621  -6.498  -2.935  0.00  0.00    +0.213 C 
ATOM      7  O   UNL     1       2.049  -5.893  -3.895  0.00  0.00    -0.277 OA
ENDROOT
BRANCH   1  11
ATOM      8  C   UNL     1       0.775  -1.811  -1.336  0.00  0.00    +0.121 A 
ATOM      9  C   UNL     1       0.015  -2.454  -2.301  0.00  0.00    +0.047 A 
ATOM     10  C   UNL     1       0.122  -3.821  -2.467  0.00  0.00    +0.027 A 
ATOM     11  C   UNL     1       0.992  -4.551  -1.668  0.00  0.00    +0.044 A 
ATOM     12  C   UNL     1       1.752  -3.906  -0.702  0.00  0.00    +0.027 A 
ATOM     13  C   UNL     1       1.648  -2.539  -0.540  0.00  0.00    +0.047 A 
BRANCH   8  14
ATOM     14  O   UNL     1       0.669  -0.465  -1.173  0.00  0.00    -0.492 OA
BRANCH  14  16
ATOM     15  C   UNL     1      -0.230   1.716  -1.699  0.00  0.00    +0.048 C 
ATOM     16  C   UNL     1      -0.249   0.221  -2.027  0.00  0.00    +0.225 C 
ENDBRANCH  14  16
ENDBRANCH   8  14
ENDBRANCH   1  11
BRANCH   5  17
ATOM     17  N   UNL     1       0.767  -8.608  -3.844  0.00  0.00    +0.387 N 
ATOM     18  H   UNL     1       0.612  -9.582  -3.632  0.00  0.00    -0.085 HD
ATOM     19  H   UNL     1      -0.120  -8.129  -3.893  0.00  0.00    -0.085 HD
BRANCH  17  20
ATOM     20  C   UNL     1       1.458  -8.492  -5.135  0.00  0.00    -0.077 C 
BRANCH  20  21
ATOM     21  C   UNL     1       0.598  -9.121  -6.233  0.00  0.00    +0.014 C 
BRANCH  21  22
ATOM     22  C   UNL     1       1.307  -9.002  -7.557  0.00  0.00    -0.043 C 
ATOM     23  C   UNL     1       2.091  -9.933  -8.147  0.00  0.00    -0.001 A 
ATOM     24  C   UNL     1       2.503 -11.283  -7.746  0.00  0.00    +0.010 A 
ATOM     25  C   UNL     1       3.315 -11.991  -8.565  0.00  0.00    +0.001 A 
ATOM     26  C   UNL     1       3.770 -11.469  -9.783  0.00  0.00    +0.002 A 
ATOM     27  C   UNL     1       3.434 -10.236 -10.219  0.00  0.00    +0.026 A 
ATOM     28  C   UNL     1       2.585  -9.404  -9.438  0.00  0.00    +0.043 A 
ATOM     29  N   UNL     1       2.125  -8.193  -9.639  0.00  0.00    -0.380 N 
ATOM     30  C   UNL     1       1.280  -7.819  -8.499  0.00  0.00    +0.144 C 
ATOM     31  H   UNL     1       2.308  -7.639 -10.414  0.00  0.00    +0.160 HD
ENDBRANCH  21  22
ENDBRANCH  20  21
ENDBRANCH  17  20
ENDBRANCH   5  17
TORSDOF 7
