REMARK  Name = ZINC37316945
REMARK  4 active torsions:
REMARK  status: ('A' for Active; 'I' for Inactive)
REMARK    1  A    between atoms: C_8  and  O_9
REMARK    2  A    between atoms: C_10  and  N_12
REMARK    3  A    between atoms: N_12  and  C_13
REMARK    4  A    between atoms: C_13  and  C_14
REMARK                            x       y       z     vdW  Elec       q    Type
REMARK                         _______ _______ _______ _____ _____    ______ ____
ROOT
ATOM      1  C   UNL     1      -0.017   1.387   0.010  0.00  0.00    +0.003 A 
ATOM      2  C   UNL     1       1.140   2.106   0.003  0.00  0.00    +0.012 A 
ATOM      3  C   UNL     1       2.378   1.442  -0.013  0.00  0.00    +0.025 A 
ATOM      4  C   UNL     1       2.411   0.027  -0.021  0.00  0.00    +0.006 A 
ATOM      5  C   UNL     1       3.649  -0.635  -0.037  0.00  0.00    +0.010 A 
ATOM      6  C   UNL     1       4.803   0.089  -0.045  0.00  0.00    +0.004 A 
ATOM      7  C   UNL     1       4.776   1.481  -0.037  0.00  0.00    +0.046 A 
ATOM      8  C   UNL     1       3.591   2.161  -0.021  0.00  0.00    +0.125 A 
ATOM      9  C   UNL     1       1.196  -0.692  -0.013  0.00  0.00    +0.035 A 
ATOM     10  C   UNL     1       0.002  -0.004   0.002  0.00  0.00    +0.023 A 
ENDROOT
BRANCH   8  11
ATOM     11  O   UNL     1       3.582   3.519  -0.013  0.00  0.00    -0.506 OA
ATOM     12  H   UNL     1       3.588   3.907   0.872  0.00  0.00    +0.292 HD
ENDBRANCH   8  11
BRANCH   9  13
ATOM     13  N   UNL     1       1.205  -2.086  -0.020  0.00  0.00    -0.336 N 
ATOM     14  H   UNL     1       2.048  -2.566  -0.031  0.00  0.00    +0.147 HD
BRANCH  13  15
ATOM     15  C   UNL     1      -0.059  -2.826  -0.012  0.00  0.00    +0.176 C 
BRANCH  15  16
ATOM     16  C   UNL     1       0.225  -4.306  -0.023  0.00  0.00    +0.123 A 
ATOM     17  C   UNL     1       0.379  -5.086   1.063  0.00  0.00    +0.047 A 
ATOM     18  C   UNL     1       0.629  -6.396   0.594  0.00  0.00    +0.056 A 
ATOM     19  C   UNL     1       0.612  -6.339  -0.750  0.00  0.00    +0.165 A 
ATOM     20  O   UNL     1       0.362  -5.072  -1.118  0.00  0.00    -0.453 OA
ATOM     21  I   UNL     1       0.918  -7.954  -2.049  0.00  0.00    -0.001 I 
ENDBRANCH  15  16
ENDBRANCH  13  15
ENDBRANCH   9  13
TORSDOF 4
