REMARK  Name = ZINC01981394
REMARK  8 active torsions:
REMARK  status: ('A' for Active; 'I' for Inactive)
REMARK    1  A    between atoms: C_1  and  C_2
REMARK    2  A    between atoms: C_4  and  C_11
REMARK    3  A    between atoms: C_7  and  N_8
REMARK    4  A    between atoms: C_11  and  O_13
REMARK    5  A    between atoms: O_13  and  C_14
REMARK    6  A    between atoms: C_14  and  C_16
REMARK    7  A    between atoms: C_14  and  C_17
REMARK    8  A    between atoms: N_19  and  C_20
REMARK                            x       y       z     vdW  Elec       q    Type
REMARK                         _______ _______ _______ _____ _____    ______ ____
ROOT
ATOM      1  O   UNL     1       1.417  -0.277   0.043  0.00  0.00    -0.449 OA
ENDROOT
BRANCH   1   2
ATOM      2  C   UNL     1       1.857  -1.412  -0.533  0.00  0.00    +0.340 C 
ATOM      3  O   UNL     1       1.068  -2.173  -1.056  0.00  0.00    -0.245 OA
BRANCH   2   7
ATOM      4  C   UNL     1       5.604  -4.470  -1.762  0.00  0.00    +0.046 C 
ATOM      5  C   UNL     1       5.106  -3.200  -1.119  0.00  0.00    -0.019 A 
ATOM      6  C   UNL     1       3.758  -2.908  -1.126  0.00  0.00    +0.020 A 
ATOM      7  C   UNL     1       3.299  -1.732  -0.530  0.00  0.00    +0.059 A 
ATOM      8  C   UNL     1       4.210  -0.857   0.065  0.00  0.00    +0.017 A 
ATOM      9  C   UNL     1       5.555  -1.164   0.070  0.00  0.00    +0.034 A 
ATOM     10  C   UNL     1       6.003  -2.332  -0.523  0.00  0.00    +0.129 A 
BRANCH  10  11
ATOM     11  N   UNL     1       7.448  -2.652  -0.519  0.00  0.00    +0.057 N 
ATOM     12  O   UNL     1       8.134  -2.364   0.445  0.00  0.00    -0.126 OA
ATOM     13  O   UNL     1       7.952  -3.204  -1.482  0.00  0.00    -0.126 OA
ENDBRANCH  10  11
ENDBRANCH   2   7
ENDBRANCH   1   2
BRANCH   1  14
ATOM     14  C   UNL     1      -0.012  -0.027   0.002  0.00  0.00    +0.259 C 
ATOM     15  C   UNL     1      -0.672  -0.637   1.240  0.00  0.00    +0.062 C 
BRANCH  14  16
ATOM     16  C   UNL     1      -0.263   1.458  -0.021  0.00  0.00    +0.258 C 
ATOM     17  O   UNL     1       0.672   2.231  -0.004  0.00  0.00    -0.271 OA
ATOM     18  N   UNL     1      -1.525   1.929  -0.065  0.00  0.00    -0.281 N 
ATOM     19  H   UNL     1      -2.268   1.314  -0.167  0.00  0.00    +0.155 HD
BRANCH  18  20
ATOM     20  C   UNL     1      -1.763   3.304   0.035  0.00  0.00    +0.052 A 
ATOM     21  C   UNL     1      -0.939   4.098   0.821  0.00  0.00    +0.025 A 
ATOM     22  C   UNL     1      -1.173   5.456   0.914  0.00  0.00    +0.002 A 
ATOM     23  C   UNL     1      -2.235   6.024   0.233  0.00  0.00    +0.002 A 
ATOM     24  C   UNL     1      -3.061   5.237  -0.546  0.00  0.00    +0.022 A 
ATOM     25  C   UNL     1      -2.829   3.878  -0.648  0.00  0.00    +0.062 A 
ATOM     26 CL   UNL     1      -3.868   2.889  -1.626  0.00  0.00    -0.082 Cl
ENDBRANCH  18  20
ENDBRANCH  14  16
ENDBRANCH   1  14
TORSDOF 6
