REMARK  Name = ZINC39861960
REMARK  6 active torsions:
REMARK  status: ('A' for Active; 'I' for Inactive)
REMARK    1  A    between atoms: C_4  and  C_8
REMARK    2  A    between atoms: C_11  and  C_13
REMARK    3  A    between atoms: N_17  and  C_21
REMARK    4  A    between atoms: C_21  and  C_23
REMARK    5  A    between atoms: C_21  and  C_27
REMARK    6  A    between atoms: C_23  and  C_24
REMARK                            x       y       z     vdW  Elec       q    Type
REMARK                         _______ _______ _______ _____ _____    ______ ____
ROOT
ATOM      1  C   UNL     1       6.971  -1.337  -1.280  0.00  0.00    +0.066 C 
ATOM      2  C   UNL     1       7.186  -0.549  -2.374  0.00  0.00    +0.080 C 
ATOM      3  C   UNL     1       6.351   0.460  -2.945  0.00  0.00    +0.259 C 
ATOM      4  O   UNL     1       5.269   0.729  -2.456  0.00  0.00    -0.269 OA
ATOM      5  N   UNL     1       6.789   1.092  -4.019  0.00  0.00    -0.241 N 
ATOM      6  C   UNL     1       7.990   0.793  -4.562  0.00  0.00    +0.121 C 
ATOM      7  S   UNL     1       8.748   1.478  -5.936  0.00  0.00    -0.027 S 
ATOM      8  S   UNL     1       8.591  -0.492  -3.477  0.00  0.00    -0.061 S 
ENDROOT
BRANCH   1  12
ATOM      9  C   UNL     1       4.081  -0.142   0.430  0.00  0.00    +0.137 A 
ATOM     10  C   UNL     1       4.320  -1.283   1.162  0.00  0.00    +0.050 A 
ATOM     11  C   UNL     1       5.451  -1.892   0.611  0.00  0.00    +0.050 A 
ATOM     12  C   UNL     1       5.862  -1.095  -0.442  0.00  0.00    +0.130 A 
ATOM     13  O   UNL     1       5.014  -0.048  -0.534  0.00  0.00    -0.455 OA
BRANCH   9  17
ATOM     14  C   UNL     1       0.916   2.611   1.092  0.00  0.00    +0.021 A 
ATOM     15  C   UNL     1       2.213   3.073   0.960  0.00  0.00    +0.022 A 
ATOM     16  C   UNL     1       3.247   2.184   0.745  0.00  0.00    +0.052 A 
ATOM     17  C   UNL     1       2.981   0.814   0.660  0.00  0.00    +0.037 A 
ATOM     18  C   UNL     1       1.669   0.355   0.795  0.00  0.00    +0.033 A 
ATOM     19  C   UNL     1       0.644   1.255   1.010  0.00  0.00    +0.042 A 
ATOM     20 CL   UNL     1      -0.987   0.687   1.177  0.00  0.00    -0.084 Cl
ATOM     21 CL   UNL     1       4.874   2.766   0.578  0.00  0.00    -0.083 Cl
ENDBRANCH   9  17
ENDBRANCH   1  12
BRANCH   5  22
ATOM     22  C   UNL     1       5.959   2.133  -4.633  0.00  0.00    +0.204 C 
BRANCH  22  23
ATOM     23  C   UNL     1       6.706   3.441  -4.623  0.00  0.00    +0.377 C 
ATOM     24  O   UNL     1       7.924   3.449  -4.683  0.00  0.00    -0.244 OA
ATOM     25  O   UNL     1       6.093   4.493  -4.554  0.00  0.00    -0.244 OA
ENDBRANCH  22  23
BRANCH  22  26
ATOM     26  C   UNL     1       5.635   1.742  -6.076  0.00  0.00    +0.130 C 
BRANCH  26  27
ATOM     27  C   UNL     1       4.783   0.498  -6.080  0.00  0.00    +0.213 C 
ATOM     28  O   UNL     1       4.467  -0.024  -5.032  0.00  0.00    -0.276 OA
ATOM     29  N   UNL     1       4.373  -0.034  -7.248  0.00  0.00    -0.329 N 
ATOM     30  H   UNL     1       4.626   0.384  -8.087  0.00  0.00    +0.145 HD
ATOM     31  H   UNL     1       3.825  -0.834  -7.251  0.00  0.00    +0.145 HD
ENDBRANCH  26  27
ENDBRANCH  22  26
ENDBRANCH   5  22
TORSDOF 6
