REMARK  Name = ZINC14456001
REMARK  6 active torsions:
REMARK  status: ('A' for Active; 'I' for Inactive)
REMARK    1  A    between atoms: C_1  and  C_2
REMARK    2  A    between atoms: C_6  and  C_7
REMARK    3  A    between atoms: C_20  and  C_23
REMARK    4  A    between atoms: N_25  and  C_26
REMARK    5  A    between atoms: C_26  and  C_27
REMARK    6  A    between atoms: C_26  and  C_28
REMARK                            x       y       z     vdW  Elec       q    Type
REMARK                         _______ _______ _______ _____ _____    ______ ____
ROOT
ATOM      1  C   UNL     1       0.594   3.149  -2.109  0.00  0.00    +0.112 C 
ATOM      2  C   UNL     1       0.667   3.222  -0.582  0.00  0.00    +0.029 C 
ATOM      3  C   UNL     1       1.164   1.843  -0.064  0.00  0.00    +0.033 C 
ATOM      4  C   UNL     1      -0.093   0.995  -0.050  0.00  0.00    -0.030 C 
ATOM      5  C   UNL     1      -1.159   1.755  -0.023  0.00  0.00    -0.023 C 
ATOM      6  C   UNL     1      -0.769   3.215  -0.014  0.00  0.00    +0.049 C 
ATOM      7  C   UNL     1      -1.703   4.014  -0.874  0.00  0.00    -0.019 A 
ATOM      8  C   UNL     1      -2.992   4.232  -0.407  0.00  0.00    +0.006 A 
ATOM      9  C   UNL     1      -3.906   4.953  -1.151  0.00  0.00    +0.001 A 
ATOM     10  C   UNL     1      -3.550   5.471  -2.377  0.00  0.00    +0.015 A 
ATOM     11  C   UNL     1      -2.259   5.264  -2.864  0.00  0.00    +0.058 A 
ATOM     12  C   UNL     1      -1.328   4.531  -2.102  0.00  0.00    +0.044 A 
ATOM     13  N   UNL     1      -0.056   4.355  -2.623  0.00  0.00    -0.335 N 
ATOM     14  H   UNL     1      -0.075   4.354  -3.632  0.00  0.00    +0.147 HD
ENDROOT
BRANCH   1  20
ATOM     15  C   UNL     1       1.704   0.528  -3.265  0.00  0.00    +0.044 C 
ATOM     16  C   UNL     1       0.234   0.761  -3.029  0.00  0.00    -0.038 A 
ATOM     17  C   UNL     1      -0.689  -0.224  -3.330  0.00  0.00    +0.011 A 
ATOM     18  C   UNL     1      -2.005   0.020  -3.112  0.00  0.00    +0.046 A 
ATOM     19  S   UNL     1      -1.969   1.680  -2.457  0.00  0.00    -0.099 S 
ATOM     20  C   UNL     1      -0.203   1.937  -2.517  0.00  0.00    +0.013 A 
ENDBRANCH   1  20
BRANCH  11  21
ATOM     21  C   UNL     1      -1.869   5.813  -4.175  0.00  0.00    +0.246 C 
ATOM     22  O   UNL     1      -0.713   5.740  -4.546  0.00  0.00    -0.270 OA
ATOM     23  N   UNL     1      -2.793   6.397  -4.964  0.00  0.00    -0.309 N 
ATOM     24  H   UNL     1      -3.715   6.455  -4.668  0.00  0.00    +0.149 HD
BRANCH  23  25
ATOM     25  C   UNL     1      -2.406   6.942  -6.267  0.00  0.00    +0.067 C 
ATOM     26  C   UNL     1      -3.623   6.966  -7.192  0.00  0.00    +0.027 C 
ATOM     27  C   UNL     1      -1.874   8.366  -6.086  0.00  0.00    +0.027 C 
ENDBRANCH  23  25
ENDBRANCH  11  21
TORSDOF 3
