REMARK  Name = ZINC36366035
REMARK  4 active torsions:
REMARK  status: ('A' for Active; 'I' for Inactive)
REMARK    1  A    between atoms: C_4  and  O_19
REMARK    2  A    between atoms: C_5  and  C_7
REMARK    3  A    between atoms: C_10  and  O_18
REMARK    4  A    between atoms: O_19  and  C_20
REMARK                            x       y       z     vdW  Elec       q    Type
REMARK                         _______ _______ _______ _____ _____    ______ ____
ROOT
ATOM      1  C   UNL     1       1.250  -2.149   0.437  0.00  0.00    +0.072 C 
ATOM      2  C   UNL     1       0.408  -2.875  -0.625  0.00  0.00    +0.109 C 
ATOM      3  C   UNL     1      -1.053  -2.787  -0.292  0.00  0.00    +0.190 C 
ATOM      4  N   UNL     1      -1.531  -2.748   0.906  0.00  0.00    -0.197 NA
ATOM      5  C   UNL     1      -0.673  -2.739   2.001  0.00  0.00    +0.169 A 
ATOM      6  C   UNL     1       0.653  -2.452   1.767  0.00  0.00    +0.045 A 
ATOM      7  S   UNL     1       1.369  -2.543   3.380  0.00  0.00    -0.055 S 
ATOM      8  C   UNL     1      -0.142  -2.929   4.260  0.00  0.00    +0.158 A 
ATOM      9  N   UNL     1      -1.025  -2.961   3.272  0.00  0.00    -0.206 NA
ATOM     10  N   UNL     1      -0.338  -3.140   5.615  0.00  0.00    -0.337 N 
ATOM     11  H   UNL     1       0.412  -3.083   6.228  0.00  0.00    +0.144 HD
ATOM     12  H   UNL     1      -1.224  -3.343   5.952  0.00  0.00    +0.144 HD
ENDROOT
BRANCH   1  17
ATOM     13  C   UNL     1      -0.019   1.374  -0.045  0.00  0.00    +0.001 A 
ATOM     14  C   UNL     1       1.156   2.066  -0.271  0.00  0.00    +0.004 A 
ATOM     15  C   UNL     1       2.364   1.397  -0.269  0.00  0.00    +0.046 A 
ATOM     16  C   UNL     1       2.398   0.029  -0.039  0.00  0.00    +0.125 A 
ATOM     17  C   UNL     1       1.217  -0.663   0.188  0.00  0.00    +0.003 A 
ATOM     18  C   UNL     1       0.011   0.011   0.184  0.00  0.00    +0.008 A 
BRANCH  16  19
ATOM     19  O   UNL     1       3.586  -0.632  -0.037  0.00  0.00    -0.489 OA
BRANCH  19  20
ATOM     20  C   UNL     1       4.769   0.160  -0.156  0.00  0.00    +0.173 C 
ATOM     21  C   UNL     1       5.100   0.396  -1.644  0.00  0.00    +0.044 C 
ATOM     22  C   UNL     1       6.646   0.340  -1.703  0.00  0.00    +0.004 C 
ATOM     23  C   UNL     1       6.987  -0.786  -0.695  0.00  0.00    +0.004 C 
ATOM     24  C   UNL     1       5.969  -0.591   0.448  0.00  0.00    +0.044 C 
ENDBRANCH  19  20
ENDBRANCH  16  19
ENDBRANCH   1  17
BRANCH   3  25
ATOM     25  O   UNL     1      -1.929  -2.744  -1.318  0.00  0.00    -0.495 OA
ATOM     26  H   UNL     1      -2.854  -2.687  -1.044  0.00  0.00    +0.293 HD
ENDBRANCH   3  25
TORSDOF 4
