REMARK  Name = ZINC63140838
REMARK  5 active torsions:
REMARK  status: ('A' for Active; 'I' for Inactive)
REMARK    1  A    between atoms: C_1  and  C_2
REMARK    2  A    between atoms: C_6  and  C_8
REMARK    3  A    between atoms: N_27  and  C_30
REMARK    4  A    between atoms: C_30  and  C_31
REMARK    5  A    between atoms: C_31  and  C_32
REMARK                            x       y       z     vdW  Elec       q    Type
REMARK                         _______ _______ _______ _____ _____    ______ ____
ROOT
ATOM      1  C   UNL     1       0.054  -2.845   2.489  0.00  0.00    +0.133 C 
ATOM      2  C   UNL     1       1.449  -3.428   2.731  0.00  0.00    +0.131 C 
ATOM      3  C   UNL     1       1.644  -4.538   1.706  0.00  0.00    -0.034 C 
ATOM      4  C   UNL     1       2.757  -4.245   1.043  0.00  0.00    -0.001 A 
ATOM      5  C   UNL     1       3.492  -4.969  -0.006  0.00  0.00    +0.010 A 
ATOM      6  C   UNL     1       4.612  -4.362  -0.481  0.00  0.00    +0.001 A 
ATOM      7  C   UNL     1       5.068  -3.122  -0.024  0.00  0.00    +0.002 A 
ATOM      8  C   UNL     1       4.458  -2.389   0.942  0.00  0.00    +0.026 A 
ATOM      9  C   UNL     1       3.272  -2.926   1.522  0.00  0.00    +0.043 A 
ATOM     10  N   UNL     1       2.504  -2.445   2.482  0.00  0.00    -0.375 N 
ATOM     11  C   UNL     1       0.645  -5.654   1.523  0.00  0.00    +0.065 C 
ATOM     12  C   UNL     1      -0.737  -4.989   1.387  0.00  0.00    +0.167 C 
ATOM     13  N   UNL     1      -0.902  -3.973   2.422  0.00  0.00    -0.279 N 
ATOM     14  C   UNL     1      -1.887  -4.014   3.327  0.00  0.00    +0.234 C 
ATOM     15  O   UNL     1      -1.925  -3.131   4.159  0.00  0.00    -0.274 OA
ATOM     16  C   UNL     1      -2.942  -5.068   3.386  0.00  0.00    +0.203 C 
ATOM     17  N   UNL     1      -2.789  -6.058   2.333  0.00  0.00    -0.291 N 
ATOM     18  C   UNL     1      -1.803  -6.033   1.433  0.00  0.00    +0.237 C 
ATOM     19  O   UNL     1      -1.773  -6.913   0.598  0.00  0.00    -0.274 OA
ATOM     20  H   UNL     1       2.608  -1.596   2.940  0.00  0.00    +0.160 HD
ENDROOT
BRANCH   1  26
ATOM     21  C   UNL     1       0.694  -2.731  -2.474  0.00  0.00    +0.044 C 
ATOM     22  C   UNL     1       0.344  -2.029  -1.186  0.00  0.00    -0.050 A 
ATOM     23  C   UNL     1       0.008  -0.688  -1.199  0.00  0.00    +0.003 A 
ATOM     24  C   UNL     1      -0.313  -0.045  -0.018  0.00  0.00    +0.001 A 
ATOM     25  C   UNL     1      -0.298  -0.743   1.175  0.00  0.00    +0.005 A 
ATOM     26  C   UNL     1       0.037  -2.084   1.188  0.00  0.00    -0.024 A 
ATOM     27  C   UNL     1       0.354  -2.728   0.006  0.00  0.00    +0.009 A 
ENDBRANCH   1  26
BRANCH  17  28
ATOM     28  C   UNL     1      -3.769  -7.144   2.257  0.00  0.00    +0.113 C 
BRANCH  28  29
ATOM     29  C   UNL     1      -4.931  -6.720   1.357  0.00  0.00    +0.054 C 
BRANCH  29  30
ATOM     30  C   UNL     1      -5.939  -7.838   1.278  0.00  0.00    -0.046 A 
ATOM     31  C   UNL     1      -5.826  -8.803   0.294  0.00  0.00    +0.005 A 
ATOM     32  C   UNL     1      -6.750  -9.828   0.222  0.00  0.00    +0.020 A 
ATOM     33  C   UNL     1      -7.789  -9.888   1.134  0.00  0.00    +0.041 A 
ATOM     34  C   UNL     1      -7.902  -8.922   2.118  0.00  0.00    +0.020 A 
ATOM     35  C   UNL     1      -6.974  -7.901   2.193  0.00  0.00    +0.005 A 
ATOM     36 CL   UNL     1      -8.950 -11.175   1.043  0.00  0.00    -0.084 Cl
ENDBRANCH  29  30
ENDBRANCH  28  29
ENDBRANCH  17  28
TORSDOF 4
