REMARK  Name = ZINC13064317
REMARK  13 active torsions:
REMARK  status: ('A' for Active; 'I' for Inactive)
REMARK    1  A    between atoms: C_1  and  C_2
REMARK    2  A    between atoms: C_2  and  C_3
REMARK    3  A    between atoms: C_3  and  C_5
REMARK    4  A    between atoms: C_3  and  N_67
REMARK    5  A    between atoms: N_9  and  C_10
REMARK    6  A    between atoms: C_10  and  C_11
REMARK    7  A    between atoms: C_16  and  C_17
REMARK    8  A    between atoms: C_16  and  N_67
REMARK    9  A    between atoms: C_20  and  C_23
REMARK   10  A    between atoms: C_24  and  C_25
REMARK   11  A    between atoms: C_24  and  N_67
REMARK   12  A    between atoms: C_30  and  O_37
REMARK   13  A    between atoms: O_37  and  C_38
REMARK                            x       y       z     vdW  Elec       q    Type
REMARK                         _______ _______ _______ _____ _____    ______ ____
ROOT
ATOM      1  N   UNL     1      -3.108  10.582   3.075  0.00  0.00    +0.392 N 
ATOM      2  H   UNL     1      -3.314  10.742   2.082  0.00  0.00    -0.080 HD
ENDROOT
BRANCH   1   3
ATOM      3  C   UNL     1      -2.499  11.805   3.641  0.00  0.00    +0.003 C 
BRANCH   3   4
ATOM      4  C   UNL     1      -1.798  11.493   4.938  0.00  0.00    +0.139 A 
ATOM      5  N   UNL     1      -0.808  10.652   5.110  0.00  0.00    -0.115 NA
ATOM      6  N   UNL     1      -0.484  10.667   6.357  0.00  0.00    -0.023 NA
ATOM      7  N   UNL     1      -1.248  11.489   6.987  0.00  0.00    -0.044 NA
ATOM      8  N   UNL     1      -2.072  12.019   6.147  0.00  0.00    -0.223 N 
BRANCH   8   9
ATOM      9  C   UNL     1      -3.110  13.006   6.451  0.00  0.00    +0.221 C 
BRANCH   9  10
ATOM     10  C   UNL     1      -4.264  12.326   7.142  0.00  0.00    +0.126 A 
ATOM     11  C   UNL     1      -4.458  12.264   8.471  0.00  0.00    +0.046 A 
ATOM     12  C   UNL     1      -5.655  11.539   8.676  0.00  0.00    +0.041 A 
ATOM     13  C   UNL     1      -6.115  11.195   7.460  0.00  0.00    +0.195 A 
ATOM     14  O   UNL     1      -5.269  11.674   6.535  0.00  0.00    -0.466 OA
ENDBRANCH   9  10
ENDBRANCH   8   9
ENDBRANCH   3   4
BRANCH   3  16
ATOM     15  C   UNL     1      -2.224  12.827   1.378  0.00  0.00    +0.002 C 
ATOM     16  C   UNL     1      -1.489  12.360   2.636  0.00  0.00    -0.011 C 
ENDBRANCH   3  16
ENDBRANCH   1   3
BRANCH   1  17
ATOM     17  C   UNL     1      -4.367  10.270   3.783  0.00  0.00    -0.042 C 
BRANCH  17  18
ATOM     18  C   UNL     1      -5.436  11.223   3.312  0.00  0.00    -0.064 A 
ATOM     19  C   UNL     1      -5.582  12.454   3.923  0.00  0.00    +0.002 A 
ATOM     20  C   UNL     1      -6.559  13.330   3.488  0.00  0.00    +0.003 A 
ATOM     21  C   UNL     1      -7.396  12.971   2.448  0.00  0.00    -0.050 A 
ATOM     22  C   UNL     1      -7.253  11.737   1.840  0.00  0.00    +0.003 A 
ATOM     23  C   UNL     1      -6.273  10.864   2.272  0.00  0.00    +0.002 A 
ATOM     24  C   UNL     1      -8.464  13.923   1.977  0.00  0.00    +0.044 C 
ENDBRANCH  17  18
ENDBRANCH   1  17
BRANCH   1  25
ATOM     25  C   UNL     1      -2.167   9.448   3.194  0.00  0.00    -0.036 C 
BRANCH  25  26
ATOM     26  C   UNL     1      -2.573   8.380   2.212  0.00  0.00    +0.001 A 
ATOM     27  C   UNL     1      -1.999   8.338   0.983  0.00  0.00    +0.017 A 
ATOM     28  C   UNL     1      -2.415   7.289   0.053  0.00  0.00    -0.001 A 
ATOM     29  C   UNL     1      -1.858   7.196  -1.228  0.00  0.00    +0.013 A 
ATOM     30  C   UNL     1      -2.261   6.204  -2.073  0.00  0.00    +0.046 A 
ATOM     31  C   UNL     1      -3.234   5.287  -1.675  0.00  0.00    +0.122 A 
ATOM     32  C   UNL     1      -3.797   5.362  -0.413  0.00  0.00    +0.072 A 
ATOM     33  C   UNL     1      -3.394   6.362   0.463  0.00  0.00    +0.053 A 
ATOM     34  N   UNL     1      -3.939   6.460   1.726  0.00  0.00    -0.322 N 
ATOM     35  H   UNL     1      -4.613   5.822   2.007  0.00  0.00    +0.169 HD
ATOM     36  C   UNL     1      -3.549   7.428   2.573  0.00  0.00    +0.251 A 
ATOM     37  O   UNL     1      -4.052   7.485   3.682  0.00  0.00    -0.268 OA
BRANCH  31  38
ATOM     38  O   UNL     1      -3.627   4.309  -2.530  0.00  0.00    -0.495 OA
ATOM     39  C   UNL     1      -3.008   4.285  -3.818  0.00  0.00    +0.277 C 
ENDBRANCH  31  38
ENDBRANCH  25  26
ENDBRANCH   1  25
TORSDOF 10
