REMARK  Name = ZINC12748123
REMARK  6 active torsions:
REMARK  status: ('A' for Active; 'I' for Inactive)
REMARK    1  A    between atoms: C_1  and  C_2
REMARK    2  A    between atoms: C_5  and  N_8
REMARK    3  A    between atoms: C_9  and  C_11
REMARK    4  A    between atoms: C_14  and  C_16
REMARK    5  A    between atoms: C_16  and  S_17
REMARK    6  A    between atoms: S_17  and  C_18
REMARK                            x       y       z     vdW  Elec       q    Type
REMARK                         _______ _______ _______ _____ _____    ______ ____
ROOT
ATOM      1  C   UNL     1      -0.018   1.469   0.004  0.00  0.00    +0.187 A 
ATOM      2  N   UNL     1       0.990   2.336  -0.011  0.00  0.00    -0.136 NA
ATOM      3  N   UNL     1       0.761   3.578  -0.009  0.00  0.00    -0.145 NA
ATOM      4  C   UNL     1      -0.468   4.064   0.007  0.00  0.00    +0.113 A 
ATOM      5  S   UNL     1      -1.405   2.599   0.015  0.00  0.00    -0.045 S 
ENDROOT
BRANCH   1   7
ATOM      6  N   UNL     1       1.178  -0.662  -0.012  0.00  0.00    -0.280 N 
ATOM      7  C   UNL     1       0.002  -0.004   0.004  0.00  0.00    +0.275 C 
ATOM      8  O   UNL     1      -1.043  -0.626   0.019  0.00  0.00    -0.268 OA
ATOM      9  H   UNL     1       2.009  -0.168  -0.092  0.00  0.00    +0.155 HD
BRANCH   6  14
ATOM     10  C   UNL     1       1.268  -6.319   0.385  0.00  0.00    +0.044 C 
ATOM     11  C   UNL     1       1.244  -4.816   0.279  0.00  0.00    -0.050 A 
ATOM     12  C   UNL     1       0.217  -4.189  -0.402  0.00  0.00    +0.005 A 
ATOM     13  C   UNL     1       0.193  -2.812  -0.501  0.00  0.00    +0.023 A 
ATOM     14  C   UNL     1       1.200  -2.057   0.086  0.00  0.00    +0.034 A 
ATOM     15  C   UNL     1       2.233  -2.690   0.764  0.00  0.00    +0.023 A 
ATOM     16  C   UNL     1       2.249  -4.068   0.864  0.00  0.00    +0.005 A 
ENDBRANCH   6  14
ENDBRANCH   1   7
BRANCH   4  17
ATOM     17  C   UNL     1      -0.931   5.498   0.013  0.00  0.00    +0.141 C 
BRANCH  17  18
ATOM     18  S   UNL     1      -1.141   6.072  -1.695  0.00  0.00    -0.090 S 
BRANCH  18  19
ATOM     19  C   UNL     1      -1.678   7.741  -1.522  0.00  0.00    +0.160 A 
ATOM     20  N   UNL     1      -1.889   8.441  -0.423  0.00  0.00    -0.133 NA
ATOM     21  N   UNL     1      -2.311   9.747  -0.515  0.00  0.00    -0.125 NA
ATOM     22  C   UNL     1      -2.504  10.293  -1.700  0.00  0.00    +0.180 A 
ATOM     23  S   UNL     1      -2.075   8.940  -2.785  0.00  0.00    -0.025 S 
ATOM     24  N   UNL     1      -2.924  11.579  -2.020  0.00  0.00    -0.336 N 
ATOM     25  H   UNL     1      -3.119  12.214  -1.314  0.00  0.00    +0.144 HD
ATOM     26  H   UNL     1      -3.021  11.840  -2.949  0.00  0.00    +0.144 HD
ENDBRANCH  18  19
ENDBRANCH  17  18
ENDBRANCH   4  17
TORSDOF 5
