REMARK  Name = ZINC39145927
REMARK  2 active torsions:
REMARK  status: ('A' for Active; 'I' for Inactive)
REMARK    1  A    between atoms: C_6  and  N_7
REMARK    2  A    between atoms: C_23  and  O_26
REMARK                            x       y       z     vdW  Elec       q    Type
REMARK                         _______ _______ _______ _____ _____    ______ ____
ROOT
ATOM      1  C   UNL     1      -0.017   1.378   0.010  0.00  0.00    +0.036 A 
ATOM      2  C   UNL     1       1.168   2.085   0.002  0.00  0.00    +0.048 A 
ATOM      3  C   UNL     1       2.386   1.413  -0.015  0.00  0.00    +0.127 A 
ATOM      4  C   UNL     1       2.400   0.026  -0.030  0.00  0.00    +0.002 A 
ATOM      5  C   UNL     1       1.209  -0.677  -0.017  0.00  0.00    +0.040 A 
ATOM      6  C   UNL     1       0.002  -0.004   0.002  0.00  0.00    +0.127 A 
ATOM      7  C   UNL     1       3.701  -0.720  -0.072  0.00  0.00    +0.052 C 
ATOM      8  C   UNL     1       4.830   0.178   0.418  0.00  0.00    +0.077 C 
ATOM      9  C   UNL     1       6.168  -0.535   0.171  0.00  0.00    +0.085 C 
ATOM     10  S   UNL     1       6.306  -1.804   1.477  0.00  0.00    -0.111 S 
ATOM     11  C   UNL     1       4.690  -2.189   1.723  0.00  0.00    +0.082 C 
ATOM     12  N   UNL     1       4.217  -2.623   2.851  0.00  0.00    -0.168 NA
ATOM     13  C   UNL     1       2.913  -2.854   3.096  0.00  0.00    +0.296 C 
ATOM     14  O   UNL     1       2.404  -3.392   4.063  0.00  0.00    -0.261 OA
ATOM     15  S   UNL     1       2.115  -2.173   1.644  0.00  0.00    -0.055 S 
ATOM     16  C   UNL     1       3.648  -2.051   0.630  0.00  0.00    +0.116 C 
ATOM     17  C   UNL     1       4.763   1.501  -0.346  0.00  0.00    +0.309 C 
ATOM     18  O   UNL     1       3.530   2.145  -0.011  0.00  0.00    -0.463 OA
ENDROOT
BRANCH   6  19
ATOM     19  N   UNL     1      -1.269  -0.762   0.014  0.00  0.00    +0.056 N 
ATOM     20  O   UNL     1      -2.324  -0.173   0.030  0.00  0.00    -0.126 OA
ATOM     21  O   UNL     1      -1.252  -1.971   0.007  0.00  0.00    -0.126 OA
ENDBRANCH   6  19
BRANCH  17  22
ATOM     22  O   UNL     1       5.861   2.333   0.033  0.00  0.00    -0.357 OA
ATOM     23  H   UNL     1       5.879   3.189  -0.415  0.00  0.00    +0.214 HD
ENDBRANCH  17  22
TORSDOF 2
