REMARK  Name = ZINC42731151
REMARK  3 active torsions:
REMARK  status: ('A' for Active; 'I' for Inactive)
REMARK    1  A    between atoms: C_1  and  C_2
REMARK    2  A    between atoms: C_15  and  C_21
REMARK    3  A    between atoms: N_23  and  C_24
REMARK                            x       y       z     vdW  Elec       q    Type
REMARK                         _______ _______ _______ _____ _____    ______ ____
ROOT
ATOM      1  C   UNL     1      -0.018   1.503   0.010  0.00  0.00    +0.089 C 
ATOM      2  C   UNL     1       0.002  -0.004   0.002  0.00  0.00    +0.136 A 
ATOM      3  C   UNL     1      -1.076  -0.808   0.003  0.00  0.00    +0.091 A 
ATOM      4  C   UNL     1      -0.625  -2.147  -0.007  0.00  0.00    +0.171 A 
ATOM      5  N   UNL     1       0.683  -2.130  -0.013  0.00  0.00    -0.063 NA
ATOM      6  O   UNL     1       1.100  -0.776  -0.013  0.00  0.00    -0.358 OA
ATOM      7  N   UNL     1      -1.432  -3.285  -0.010  0.00  0.00    -0.250 N 
ATOM      8  C   UNL     1      -0.937  -4.693   0.092  0.00  0.00    +0.155 C 
ATOM      9  C   UNL     1      -2.133  -5.402   0.646  0.00  0.00    +0.116 C 
ATOM     10  C   UNL     1      -2.400  -5.060   2.100  0.00  0.00    +0.008 C 
ATOM     11  C   UNL     1      -3.470  -5.763   2.445  0.00  0.00    +0.004 C 
ATOM     12  C   UNL     1      -3.894  -6.493   1.165  0.00  0.00    +0.155 C 
ATOM     13  O   UNL     1      -2.576  -6.733   0.516  0.00  0.00    -0.359 OA
ATOM     14  C   UNL     1      -4.503  -5.322   0.300  0.00  0.00    +0.122 C 
ATOM     15  C   UNL     1      -3.224  -4.689  -0.249  0.00  0.00    +0.127 C 
ATOM     16  C   UNL     1      -2.803  -3.283  -0.101  0.00  0.00    +0.228 C 
ATOM     17  O   UNL     1      -3.528  -2.311  -0.068  0.00  0.00    -0.275 OA
ENDROOT
BRANCH  14  18
ATOM     18  C   UNL     1      -5.279  -4.360   1.162  0.00  0.00    +0.220 C 
ATOM     19  O   UNL     1      -4.934  -3.200   1.238  0.00  0.00    -0.275 OA
ATOM     20  N   UNL     1      -6.356  -4.789   1.849  0.00  0.00    -0.312 N 
ATOM     21  H   UNL     1      -6.632  -5.717   1.788  0.00  0.00    +0.149 HD
BRANCH  20  22
ATOM     22  C   UNL     1      -7.111  -3.854   2.687  0.00  0.00    +0.073 C 
ATOM     23  C   UNL     1      -7.541  -4.337   4.074  0.00  0.00    +0.024 C 
ATOM     24  C   UNL     1      -8.580  -4.179   2.962  0.00  0.00    +0.024 C 
ENDBRANCH  20  22
ENDBRANCH  14  18
TORSDOF 2
