REMARK  Name = ZINC35432214
REMARK  9 active torsions:
REMARK  status: ('A' for Active; 'I' for Inactive)
REMARK    1  A    between atoms: C_1  and  C_2
REMARK    2  A    between atoms: C_5  and  C_36
REMARK    3  A    between atoms: C_6  and  N_8
REMARK    4  A    between atoms: C_9  and  C_11
REMARK    5  A    between atoms: C_11  and  S_12
REMARK    6  A    between atoms: S_12  and  C_13
REMARK    7  A    between atoms: C_24  and  C_26
REMARK    8  A    between atoms: N_29  and  C_30
REMARK    9  A    between atoms: C_30  and  C_31
REMARK                            x       y       z     vdW  Elec       q    Type
REMARK                         _______ _______ _______ _____ _____    ______ ____
ROOT
ATOM      1  C   UNL     1       0.537  -2.770   7.657  0.00  0.00    +0.173 A 
ATOM      2  N   UNL     1       0.547  -4.080   7.507  0.00  0.00    -0.216 NA
ATOM      3  C   UNL     1       0.656  -4.883   8.558  0.00  0.00    +0.117 A 
ATOM      4  C   UNL     1       0.764  -4.389   9.869  0.00  0.00    +0.076 A 
ATOM      5  C   UNL     1       0.877  -5.396  10.927  0.00  0.00    -0.020 A 
ATOM      6  C   UNL     1       0.863  -6.688  10.541  0.00  0.00    +0.013 A 
ATOM      7  S   UNL     1       0.708  -6.644   8.777  0.00  0.00    -0.072 S 
ATOM      8  C   UNL     1       0.955  -7.896  11.425  0.00  0.00    +0.150 C 
ATOM      9  N   UNL     1       1.297  -7.420  12.780  0.00  0.00    -0.297 N 
ATOM     10  C   UNL     1       0.613  -6.212  13.266  0.00  0.00    +0.113 C 
ATOM     11  C   UNL     1       1.008  -5.016  12.399  0.00  0.00    +0.056 C 
ATOM     12  C   UNL     1       2.200  -8.067  13.543  0.00  0.00    +0.213 C 
ATOM     13  O   UNL     1       2.463  -7.654  14.652  0.00  0.00    -0.276 OA
ATOM     14  C   UNL     1       2.884  -9.302  13.016  0.00  0.00    +0.109 C 
ATOM     15  C   UNL     1       0.750  -2.964  10.001  0.00  0.00    +0.264 A 
ATOM     16  O   UNL     1       0.839  -2.445  11.101  0.00  0.00    -0.267 OA
ATOM     17  N   UNL     1       0.642  -2.206   8.895  0.00  0.00    -0.280 N 
ENDROOT
BRANCH   1  18
ATOM     18  S   UNL     1       0.391  -1.734   6.239  0.00  0.00    -0.078 S 
BRANCH  18  19
ATOM     19  C   UNL     1       0.280  -2.900   4.854  0.00  0.00    +0.173 C 
BRANCH  19  21
ATOM     20  N   UNL     1       0.052  -2.797   2.393  0.00  0.00    -0.285 N 
ATOM     21  C   UNL     1       0.150  -2.135   3.562  0.00  0.00    +0.227 C 
ATOM     22  O   UNL     1       0.134  -0.922   3.575  0.00  0.00    -0.275 OA
ATOM     23  H   UNL     1      -0.016  -3.765   2.388  0.00  0.00    +0.155 HD
BRANCH  20  29
ATOM     24  C   UNL     1       1.264   1.227  -0.158  0.00  0.00    +0.044 C 
ATOM     25  C   UNL     1       0.628  -0.137  -0.079  0.00  0.00    -0.049 A 
ATOM     26  C   UNL     1       0.039  -0.690  -1.201  0.00  0.00    +0.004 A 
ATOM     27  C   UNL     1      -0.546  -1.941  -1.133  0.00  0.00    +0.005 A 
ATOM     28  C   UNL     1      -0.543  -2.643   0.057  0.00  0.00    -0.029 A 
ATOM     29  C   UNL     1       0.048  -2.090   1.185  0.00  0.00    +0.037 A 
ATOM     30  C   UNL     1       0.639  -0.835   1.112  0.00  0.00    +0.027 A 
ATOM     31  C   UNL     1      -1.181  -4.006   0.131  0.00  0.00    +0.045 C 
ENDBRANCH  20  29
ENDBRANCH  19  21
ENDBRANCH  18  19
ENDBRANCH   1  18
BRANCH  17  32
ATOM     32  C   UNL     1       0.633  -0.746   9.022  0.00  0.00    +0.201 C 
BRANCH  32  33
ATOM     33  C   UNL     1      -0.785  -0.267   9.197  0.00  0.00    +0.125 A 
ATOM     34  C   UNL     1      -1.422  -0.105  10.370  0.00  0.00    +0.046 A 
ATOM     35  C   UNL     1      -2.724   0.358  10.069  0.00  0.00    +0.041 A 
ATOM     36  C   UNL     1      -2.804   0.452   8.730  0.00  0.00    +0.195 A 
ATOM     37  O   UNL     1      -1.625   0.078   8.207  0.00  0.00    -0.466 OA
ENDBRANCH  32  33
ENDBRANCH  17  32
TORSDOF 6
