REMARK  Name = ZINC39529471
REMARK  5 active torsions:
REMARK  status: ('A' for Active; 'I' for Inactive)
REMARK    1  A    between atoms: C_1  and  C_2
REMARK    2  A    between atoms: C_2  and  C_3
REMARK    3  A    between atoms: C_2  and  C_4
REMARK    4  A    between atoms: C_4  and  C_5
REMARK    5  A    between atoms: C_10  and  N_11
REMARK                            x       y       z     vdW  Elec       q    Type
REMARK                         _______ _______ _______ _____ _____    ______ ____
ROOT
ATOM      1  C   UNL     1       2.165  -0.079  -1.208  0.00  0.00    -0.025 A 
ATOM      2  C   UNL     1       2.569   1.087  -1.828  0.00  0.00    +0.019 A 
ATOM      3  C   UNL     1       3.897   1.471  -1.784  0.00  0.00    +0.014 A 
ATOM      4  C   UNL     1       4.825   0.689  -1.119  0.00  0.00    +0.016 A 
ATOM      5  C   UNL     1       4.427  -0.478  -0.497  0.00  0.00    +0.024 A 
ATOM      6  C   UNL     1       3.093  -0.863  -0.534  0.00  0.00    +0.033 A 
ATOM      7  I   UNL     1       4.505   3.241  -2.726  0.00  0.00    -0.044 I 
ENDROOT
BRANCH   6   8
ATOM      8  N   UNL     1       2.687  -2.040   0.099  0.00  0.00    -0.331 N 
ATOM      9  C   UNL     1       2.695  -3.326  -0.617  0.00  0.00    +0.086 C 
ATOM     10  C   UNL     1       3.433  -4.356   0.245  0.00  0.00    -0.060 C 
ATOM     11  N   UNL     1       2.819  -4.408   1.578  0.00  0.00    +0.400 N 
ATOM     12  C   UNL     1       2.998  -3.121   2.261  0.00  0.00    +0.119 C 
ATOM     13  C   UNL     1       2.244  -2.031   1.502  0.00  0.00    +0.120 C 
ATOM     14  O   UNL     1       2.490  -3.215   3.594  0.00  0.00    -0.250 OA
ATOM     15  H   UNL     1       1.834  -4.605   1.485  0.00  0.00    -0.082 HD
ATOM     16  H   UNL     1       3.256  -5.139   2.119  0.00  0.00    -0.082 HD
ENDBRANCH   6   8
BRANCH   1  17
ATOM     17  C   UNL     1       0.718  -0.497  -1.257  0.00  0.00    +0.040 C 
BRANCH  17  19
ATOM     18  C   UNL     1      -0.019   1.526   0.010  0.00  0.00    +0.007 C 
ATOM     19  C   UNL     1       0.002  -0.004   0.002  0.00  0.00    -0.013 C 
ATOM     20  C   UNL     1      -1.433  -0.534   0.013  0.00  0.00    +0.007 C 
ENDBRANCH  17  19
ENDBRANCH   1  17
TORSDOF 3
