REMARK  Name = ZINC58914791
REMARK  11 active torsions:
REMARK  status: ('A' for Active; 'I' for Inactive)
REMARK    1  A    between atoms: C_1  and  C_2
REMARK    2  A    between atoms: C_2  and  C_9
REMARK    3  A    between atoms: C_11  and  S_17
REMARK    4  A    between atoms: C_14  and  O_15
REMARK    5  A    between atoms: O_15  and  C_16
REMARK    6  A    between atoms: S_17  and  N_20
REMARK    7  A    between atoms: N_20  and  C_21
REMARK    8  A    between atoms: N_20  and  C_22
REMARK    9  A    between atoms: C_22  and  C_23
REMARK   10  A    between atoms: C_23  and  O_24
REMARK   11  A    between atoms: O_24  and  C_25
REMARK                            x       y       z     vdW  Elec       q    Type
REMARK                         _______ _______ _______ _____ _____    ______ ____
ROOT
ATOM      1  C   UNL     1      -1.401  -0.551  -0.040  0.00  0.00    +0.028 A 
ATOM      2  C   UNL     1      -1.854  -1.373   0.975  0.00  0.00    +0.038 A 
ATOM      3  C   UNL     1      -3.141  -1.876   0.936  0.00  0.00    +0.106 A 
ATOM      4  C   UNL     1      -3.979  -1.558  -0.117  0.00  0.00    +0.032 A 
ATOM      5  C   UNL     1      -3.532  -0.737  -1.133  0.00  0.00    +0.048 A 
ATOM      6  C   UNL     1      -2.242  -0.226  -1.094  0.00  0.00    +0.126 A 
ENDROOT
BRANCH   1   8
ATOM      7  C   UNL     1      -0.019   1.526   0.010  0.00  0.00    +0.047 C 
ATOM      8  C   UNL     1       0.002  -0.004   0.002  0.00  0.00    +0.138 C 
ATOM      9  C   UNL     1       0.815  -0.520  -1.169  0.00  0.00    +0.248 C 
ATOM     10  O   UNL     1       0.595  -0.342  -2.348  0.00  0.00    -0.273 OA
ATOM     11  N   UNL     1       1.833  -1.217  -0.627  0.00  0.00    -0.238 N 
ATOM     12  C   UNL     1       1.777  -1.214   0.710  0.00  0.00    +0.307 C 
ATOM     13  O   UNL     1       2.586  -1.776   1.421  0.00  0.00    -0.252 OA
ATOM     14  N   UNL     1       0.724  -0.519   1.178  0.00  0.00    -0.281 N 
ATOM     15  H   UNL     1       2.520  -1.667  -1.143  0.00  0.00    +0.159 HD
ATOM     16  H   UNL     1       0.487  -0.383   2.109  0.00  0.00    +0.152 HD
ENDBRANCH   1   8
BRANCH   3  17
ATOM     17  S   UNL     1      -3.714  -2.925   2.231  0.00  0.00    +0.061 S 
ATOM     18  O   UNL     1      -4.771  -3.703   1.686  0.00  0.00    -0.153 OA
ATOM     19  O   UNL     1      -2.561  -3.511   2.820  0.00  0.00    -0.153 OA
BRANCH  17  20
ATOM     20  N   UNL     1      -4.391  -1.950   3.386  0.00  0.00    -0.176 NA
ATOM     21  C   UNL     1      -5.816  -1.617   3.320  0.00  0.00    +0.131 C 
BRANCH  20  22
ATOM     22  C   UNL     1      -3.566  -1.422   4.475  0.00  0.00    +0.150 C 
BRANCH  22  23
ATOM     23  C   UNL     1      -3.071  -0.022   4.106  0.00  0.00    +0.246 C 
BRANCH  23  24
ATOM     24  O   UNL     1      -4.186   0.868   4.011  0.00  0.00    -0.488 OA
BRANCH  24  25
ATOM     25  C   UNL     1      -3.917   2.161   3.688  0.00  0.00    +0.156 A 
ATOM     26  C   UNL     1      -2.610   2.564   3.463  0.00  0.00    +0.048 A 
ATOM     27  C   UNL     1      -2.340   3.879   3.135  0.00  0.00    +0.004 A 
ATOM     28  C   UNL     1      -3.371   4.794   3.033  0.00  0.00    +0.003 A 
ATOM     29  C   UNL     1      -4.676   4.396   3.257  0.00  0.00    +0.042 A 
ATOM     30  C   UNL     1      -4.953   3.080   3.579  0.00  0.00    +0.165 A 
ATOM     31  F   UNL     1      -6.229   2.690   3.792  0.00  0.00    -0.202 F 
ENDBRANCH  24  25
ENDBRANCH  23  24
ENDBRANCH  22  23
ENDBRANCH  20  22
ENDBRANCH  17  20
ENDBRANCH   3  17
BRANCH   6  32
ATOM     32  O   UNL     1      -1.802   0.586  -2.090  0.00  0.00    -0.495 OA
ATOM     33  C   UNL     1      -2.722   0.879  -3.144  0.00  0.00    +0.277 C 
ENDBRANCH   6  32
TORSDOF 8
