REMARK  Name = ZINC35032981
REMARK  9 active torsions:
REMARK  status: ('A' for Active; 'I' for Inactive)
REMARK    1  A    between atoms: C_1  and  C_2
REMARK    2  A    between atoms: N_5  and  C_16
REMARK    3  A    between atoms: N_11  and  C_12
REMARK    4  A    between atoms: C_12  and  C_13
REMARK    5  A    between atoms: C_12  and  C_14
REMARK    6  A    between atoms: C_12  and  C_15
REMARK    7  A    between atoms: C_16  and  C_18
REMARK    8  A    between atoms: C_16  and  C_19
REMARK    9  A    between atoms: N_29  and  C_30
REMARK                            x       y       z     vdW  Elec       q    Type
REMARK                         _______ _______ _______ _____ _____    ______ ____
ROOT
ATOM      1  C   UNL     1      -0.237   1.005   0.218  0.00  0.00    +0.026 C 
ATOM      2  C   UNL     1      -0.201  -0.517   0.072  0.00  0.00    +0.058 C 
ATOM      3  C   UNL     1       0.523  -0.893  -1.226  0.00  0.00    -0.055 C 
ATOM      4  N   UNL     1       0.676  -2.351  -1.296  0.00  0.00    +0.388 N 
ATOM      5  C   UNL     1       1.548  -2.815  -0.209  0.00  0.00    -0.058 C 
ATOM      6  C   UNL     1       0.875  -2.535   1.139  0.00  0.00    +0.091 C 
ATOM      7  N   UNL     1       0.530  -1.106   1.205  0.00  0.00    -0.286 N 
ATOM      8  C   UNL     1       0.878  -0.356   2.269  0.00  0.00    +0.303 C 
ATOM      9  O   UNL     1       0.489   0.792   2.357  0.00  0.00    -0.253 OA
ATOM     10  N   UNL     1       1.657  -0.880   3.236  0.00  0.00    -0.294 N 
ATOM     11  H   UNL     1       1.907  -1.817   3.204  0.00  0.00    +0.151 HD
ATOM     12  H   UNL     1      -0.230  -2.788  -1.209  0.00  0.00    -0.081 HD
ENDROOT
BRANCH  10  13
ATOM     13  C   UNL     1       2.127  -0.035   4.337  0.00  0.00    +0.028 C 
ATOM     14  C   UNL     1       0.924   0.529   5.096  0.00  0.00    +0.031 C 
ATOM     15  C   UNL     1       2.986  -0.868   5.289  0.00  0.00    +0.031 C 
ATOM     16  C   UNL     1       2.961   1.118   3.774  0.00  0.00    +0.031 C 
ENDBRANCH  10  13
BRANCH   4  17
ATOM     17  C   UNL     1       1.270  -2.718  -2.588  0.00  0.00    -0.004 C 
ATOM     18  C   UNL     1       1.356  -4.242  -2.696  0.00  0.00    -0.005 C 
BRANCH  17  19
ATOM     19  C   UNL     1       0.412  -2.183  -3.705  0.00  0.00    +0.099 A 
ATOM     20  N   UNL     1      -0.874  -2.145  -3.530  0.00  0.00    -0.235 NA
ATOM     21  C   UNL     1      -1.710  -1.677  -4.491  0.00  0.00    +0.078 A 
ATOM     22  C   UNL     1      -3.093  -1.635  -4.303  0.00  0.00    +0.030 A 
ATOM     23  C   UNL     1      -3.903  -1.152  -5.305  0.00  0.00    +0.022 A 
ATOM     24  C   UNL     1      -3.362  -0.704  -6.504  0.00  0.00    +0.042 A 
ATOM     25  C   UNL     1      -2.000  -0.735  -6.713  0.00  0.00    +0.035 A 
ATOM     26  C   UNL     1      -1.163  -1.220  -5.711  0.00  0.00    +0.066 A 
ATOM     27  C   UNL     1       0.297  -1.277  -5.877  0.00  0.00    +0.262 A 
ATOM     28  O   UNL     1       0.832  -0.899  -6.903  0.00  0.00    -0.267 OA
ATOM     29  N   UNL     1       1.024  -1.760  -4.843  0.00  0.00    -0.301 N 
ATOM     30  C   UNL     1       2.483  -1.834  -4.952  0.00  0.00    +0.153 C 
ATOM     31 CL   UNL     1      -4.411  -0.100  -7.749  0.00  0.00    -0.084 Cl
ENDBRANCH  17  19
ENDBRANCH   4  17
TORSDOF 3
