REMARK  Name = ZINC01057997
REMARK  7 active torsions:
REMARK  status: ('A' for Active; 'I' for Inactive)
REMARK    1  A    between atoms: C_1  and  C_2
REMARK    2  A    between atoms: C_5  and  N_8
REMARK    3  A    between atoms: C_9  and  C_28
REMARK    4  A    between atoms: C_12  and  S_13
REMARK    5  A    between atoms: S_13  and  C_14
REMARK    6  A    between atoms: C_14  and  C_15
REMARK    7  A    between atoms: N_17  and  C_18
REMARK                            x       y       z     vdW  Elec       q    Type
REMARK                         _______ _______ _______ _____ _____    ______ ____
ROOT
ATOM      1  N   UNL     1       0.064  -4.173  -0.009  0.00  0.00    -0.268 N 
ATOM      2  C   UNL     1      -0.917  -5.023   0.460  0.00  0.00    +0.205 A 
ATOM      3  N   UNL     1      -0.486  -6.250   0.264  0.00  0.00    -0.125 NA
ATOM      4  N   UNL     1       0.676  -6.226  -0.284  0.00  0.00    -0.122 NA
ATOM      5  C   UNL     1       1.060  -4.985  -0.480  0.00  0.00    +0.197 A 
ENDROOT
BRANCH   1  10
ATOM      6  C   UNL     1      -0.028   1.502  -0.008  0.00  0.00    +0.044 C 
ATOM      7  C   UNL     1      -0.004  -0.005  -0.008  0.00  0.00    -0.050 A 
ATOM      8  C   UNL     1      -0.004  -0.695  -1.206  0.00  0.00    +0.005 A 
ATOM      9  C   UNL     1       0.019  -2.076  -1.210  0.00  0.00    +0.026 A 
ATOM     10  C   UNL     1       0.041  -2.771  -0.009  0.00  0.00    +0.051 A 
ATOM     11  C   UNL     1       0.041  -2.076   1.193  0.00  0.00    +0.026 A 
ATOM     12  C   UNL     1       0.025  -0.695   1.190  0.00  0.00    +0.005 A 
ENDBRANCH   1  10
BRANCH   2  13
ATOM     13  C   UNL     1      -2.200  -4.631   1.063  0.00  0.00    +0.172 A 
ATOM     14  C   UNL     1      -3.272  -5.448   1.265  0.00  0.00    +0.053 A 
ATOM     15  C   UNL     1      -4.274  -4.661   1.864  0.00  0.00    +0.042 A 
ATOM     16  C   UNL     1      -3.773  -3.417   1.998  0.00  0.00    +0.196 A 
ATOM     17  O   UNL     1      -2.518  -3.404   1.518  0.00  0.00    -0.460 OA
ENDBRANCH   2  13
BRANCH   5  18
ATOM     18  S   UNL     1       2.577  -4.463  -1.209  0.00  0.00    -0.076 S 
BRANCH  18  19
ATOM     19  C   UNL     1       3.429  -6.014  -1.606  0.00  0.00    +0.173 C 
BRANCH  19  20
ATOM     20  C   UNL     1       4.759  -5.707  -2.245  0.00  0.00    +0.227 C 
ATOM     21  O   UNL     1       5.099  -4.555  -2.416  0.00  0.00    -0.275 OA
ATOM     22  N   UNL     1       5.572  -6.713  -2.626  0.00  0.00    -0.285 N 
ATOM     23  H   UNL     1       5.332  -7.631  -2.429  0.00  0.00    +0.155 HD
BRANCH  22  24
ATOM     24  C   UNL     1       6.763  -6.430  -3.307  0.00  0.00    +0.037 A 
ATOM     25  C   UNL     1       7.218  -7.291  -4.297  0.00  0.00    +0.027 A 
ATOM     26  C   UNL     1       8.394  -7.013  -4.968  0.00  0.00    +0.051 A 
ATOM     27  C   UNL     1       9.122  -5.875  -4.655  0.00  0.00    +0.162 A 
ATOM     28  C   UNL     1       8.668  -5.011  -3.666  0.00  0.00    +0.164 A 
ATOM     29  C   UNL     1       7.487  -5.288  -2.996  0.00  0.00    +0.072 A 
ATOM     30  O   UNL     1       9.366  -3.885  -3.351  0.00  0.00    -0.485 OA
ATOM     31  C   UNL     1      10.729  -3.830  -3.784  0.00  0.00    +0.270 C 
ATOM     32  C   UNL     1      10.787  -4.283  -5.249  0.00  0.00    +0.270 C 
ATOM     33  O   UNL     1      10.281  -5.620  -5.325  0.00  0.00    -0.485 OA
ENDBRANCH  22  24
ENDBRANCH  19  20
ENDBRANCH  18  19
ENDBRANCH   5  18
TORSDOF 6
