REMARK  Name = ZINC58978491
REMARK  10 active torsions:
REMARK  status: ('A' for Active; 'I' for Inactive)
REMARK    1  A    between atoms: C_1  and  C_2
REMARK    2  A    between atoms: C_2  and  C_32
REMARK    3  A    between atoms: C_8  and  C_15
REMARK    4  A    between atoms: C_9  and  C_11
REMARK    5  A    between atoms: C_11  and  O_13
REMARK    6  A    between atoms: O_13  and  C_14
REMARK    7  A    between atoms: C_15  and  O_17
REMARK    8  A    between atoms: O_17  and  C_18
REMARK    9  A    between atoms: C_21  and  O_30
REMARK   10  A    between atoms: O_30  and  C_31
REMARK                            x       y       z     vdW  Elec       q    Type
REMARK                         _______ _______ _______ _____ _____    ______ ____
ROOT
ATOM      1  C   UNL     1       0.062   1.570   0.023  0.00  0.00    +0.037 C 
ATOM      2  C   UNL     1       0.032   0.040  -0.002  0.00  0.00    +0.069 C 
ATOM      3  C   UNL     1       0.546  -0.406  -1.352  0.00  0.00    +0.029 C 
ATOM      4  S   UNL     1      -0.227   0.128  -2.783  0.00  0.00    -0.054 S 
ATOM      5  C   UNL     1       1.658  -1.257  -1.429  0.00  0.00    +0.017 C 
ATOM      6  C   UNL     1       2.145  -1.678  -2.674  0.00  0.00    +0.059 C 
ATOM      7  S   UNL     1       3.614  -2.608  -3.043  0.00  0.00    -0.073 S 
ATOM      8  C   UNL     1       3.627  -2.791  -4.794  0.00  0.00    +0.118 C 
ATOM      9  C   UNL     1       2.566  -2.207  -5.408  0.00  0.00    +0.118 C 
ATOM     10  S   UNL     1       1.451  -1.426  -4.290  0.00  0.00    -0.073 S 
ATOM     11  C   UNL     1       2.309  -1.704  -0.177  0.00  0.00    +0.010 A 
ATOM     12  C   UNL     1       3.420  -2.552  -0.182  0.00  0.00    +0.056 A 
ATOM     13  C   UNL     1       3.992  -2.940   1.023  0.00  0.00    +0.121 A 
ATOM     14  C   UNL     1       3.484  -2.504   2.240  0.00  0.00    +0.059 A 
ATOM     15  C   UNL     1       2.374  -1.657   2.253  0.00  0.00    +0.052 A 
ATOM     16  C   UNL     1       1.811  -1.276   1.040  0.00  0.00    +0.057 A 
ATOM     17  N   UNL     1       0.723  -0.440   1.206  0.00  0.00    -0.253 N 
ATOM     18  C   UNL     1       0.512  -0.227   2.522  0.00  0.00    +0.292 C 
ATOM     19  O   UNL     1      -0.364   0.460   3.003  0.00  0.00    -0.266 OA
ATOM     20  C   UNL     1       1.558  -0.993   3.285  0.00  0.00    +0.250 C 
ATOM     21  O   UNL     1       1.698  -1.053   4.489  0.00  0.00    -0.282 OA
ATOM     22  C   UNL     1      -1.433  -0.390   0.100  0.00  0.00    +0.037 C 
ENDROOT
BRANCH   9  23
ATOM     23  C   UNL     1       2.363  -2.230  -6.867  0.00  0.00    +0.347 C 
ATOM     24  O   UNL     1       1.661  -3.085  -7.369  0.00  0.00    -0.244 OA
BRANCH  23  25
ATOM     25  O   UNL     1       2.957  -1.303  -7.644  0.00  0.00    -0.464 OA
ATOM     26  C   UNL     1       2.717  -1.385  -9.050  0.00  0.00    +0.280 C 
ENDBRANCH  23  25
ENDBRANCH   9  23
BRANCH   8  27
ATOM     27  C   UNL     1       4.687  -3.509  -5.523  0.00  0.00    +0.347 C 
ATOM     28  O   UNL     1       4.687  -3.521  -6.738  0.00  0.00    -0.244 OA
BRANCH  27  29
ATOM     29  O   UNL     1       5.656  -4.153  -4.843  0.00  0.00    -0.464 OA
ATOM     30  C   UNL     1       6.651  -4.828  -5.614  0.00  0.00    +0.280 C 
ENDBRANCH  27  29
ENDBRANCH   8  27
BRANCH  13  31
ATOM     31  O   UNL     1       5.073  -3.765   1.011  0.00  0.00    -0.495 OA
ATOM     32  C   UNL     1       5.622  -4.133   2.278  0.00  0.00    +0.277 C 
ENDBRANCH  13  31
TORSDOF 5
