REMARK  Name = ZINC12883972
REMARK  5 active torsions:
REMARK  status: ('A' for Active; 'I' for Inactive)
REMARK    1  A    between atoms: C_1  and  C_2
REMARK    2  A    between atoms: C_9  and  N_14
REMARK    3  A    between atoms: C_15  and  C_17
REMARK    4  A    between atoms: C_17  and  C_18
REMARK    5  A    between atoms: C_23  and  N_24
REMARK                            x       y       z     vdW  Elec       q    Type
REMARK                         _______ _______ _______ _____ _____    ______ ____
ROOT
ATOM      1  N   UNL     1      -1.212  -0.749   0.275  0.00  0.00    -0.285 N 
ATOM      2  C   UNL     1      -1.199  -2.089   0.127  0.00  0.00    +0.222 C 
ATOM      3  O   UNL     1      -0.162  -2.703   0.260  0.00  0.00    -0.275 OA
ATOM      4  H   UNL     1      -2.052  -0.265   0.235  0.00  0.00    +0.155 HD
ENDROOT
BRANCH   1  12
ATOM      5  C   UNL     1       5.934   2.116   1.048  0.00  0.00    +0.062 C 
ATOM      6  C   UNL     1       4.713   1.200   1.150  0.00  0.00    +0.256 C 
ATOM      7  C   UNL     1       4.712   0.234  -0.007  0.00  0.00    +0.258 C 
ATOM      8  O   UNL     1       5.758  -0.106  -0.518  0.00  0.00    -0.271 OA
ATOM      9  N   UNL     1       3.540  -0.251  -0.474  0.00  0.00    -0.279 N 
ATOM     10  C   UNL     1       2.343   0.184   0.112  0.00  0.00    +0.077 A 
ATOM     11  C   UNL     1       1.161  -0.504  -0.101  0.00  0.00    +0.050 A 
ATOM     12  C   UNL     1      -0.014  -0.056   0.488  0.00  0.00    +0.035 A 
ATOM     13  C   UNL     1      -0.002   1.080   1.287  0.00  0.00    +0.027 A 
ATOM     14  C   UNL     1       1.179   1.767   1.500  0.00  0.00    +0.049 A 
ATOM     15  C   UNL     1       2.352   1.324   0.916  0.00  0.00    +0.143 A 
ATOM     16  O   UNL     1       3.522   1.989   1.119  0.00  0.00    -0.478 OA
ATOM     17  H   UNL     1       3.527  -0.891  -1.202  0.00  0.00    +0.155 HD
ENDBRANCH   1  12
BRANCH   2  18
ATOM     18  C   UNL     1      -2.473  -2.823  -0.204  0.00  0.00    +0.133 C 
BRANCH  18  19
ATOM     19  C   UNL     1      -2.187  -4.299  -0.315  0.00  0.00    -0.008 A 
ATOM     20  C   UNL     1      -2.014  -4.878  -1.558  0.00  0.00    +0.006 A 
ATOM     21  C   UNL     1      -1.752  -6.231  -1.660  0.00  0.00    +0.000 A 
ATOM     22  C   UNL     1      -1.663  -7.006  -0.518  0.00  0.00    +0.002 A 
ATOM     23  C   UNL     1      -1.835  -6.426   0.725  0.00  0.00    +0.033 A 
ATOM     24  C   UNL     1      -2.093  -5.072   0.827  0.00  0.00    +0.130 A 
BRANCH  24  25
ATOM     25  N   UNL     1      -2.272  -4.451   2.158  0.00  0.00    +0.057 N 
ATOM     26  O   UNL     1      -2.279  -5.146   3.159  0.00  0.00    -0.126 OA
ATOM     27  O   UNL     1      -2.413  -3.245   2.254  0.00  0.00    -0.126 OA
ENDBRANCH  24  25
ENDBRANCH  18  19
ENDBRANCH   2  18
TORSDOF 4
