REMARK  Name = ZINC64412753
REMARK  9 active torsions:
REMARK  status: ('A' for Active; 'I' for Inactive)
REMARK    1  A    between atoms: C_1  and  C_2
REMARK    2  A    between atoms: C_7  and  C_8
REMARK    3  A    between atoms: N_10  and  N_11
REMARK    4  A    between atoms: N_14  and  C_15
REMARK    5  A    between atoms: C_15  and  C_16
REMARK    6  A    between atoms: N_18  and  C_19
REMARK    7  A    between atoms: C_19  and  C_20
REMARK    8  A    between atoms: C_23  and  O_26
REMARK    9  A    between atoms: O_26  and  C_27
REMARK                            x       y       z     vdW  Elec       q    Type
REMARK                         _______ _______ _______ _____ _____    ______ ____
ROOT
ATOM      1  N   UNL     1       0.573   0.035   4.838  0.00  0.00    -0.218 N 
ATOM      2  C   UNL     1       0.796  -0.642   5.982  0.00  0.00    +0.316 C 
ATOM      3  O   UNL     1       0.890  -0.042   7.036  0.00  0.00    -0.251 OA
ATOM      4  N   UNL     1       0.915  -1.985   5.958  0.00  0.00    -0.290 N 
ATOM      5  H   UNL     1       0.488   1.001   4.856  0.00  0.00    +0.174 HD
ATOM      6  H   UNL     1       0.840  -2.463   5.118  0.00  0.00    +0.151 HD
ENDROOT
BRANCH   1   9
ATOM      7  C   UNL     1       0.242   0.021   2.481  0.00  0.00    +0.260 C 
ATOM      8  O   UNL     1       0.135   1.232   2.503  0.00  0.00    -0.269 OA
ATOM      9  N   UNL     1       0.465  -0.656   3.625  0.00  0.00    -0.229 N 
ATOM     10  H   UNL     1       0.550  -1.622   3.607  0.00  0.00    +0.173 HD
BRANCH   7  17
ATOM     11  C   UNL     1      -0.511   1.452   0.082  0.00  0.00    +0.044 C 
ATOM     12  C   UNL     1      -0.235  -0.028   0.036  0.00  0.00    -0.038 A 
ATOM     13  C   UNL     1      -0.334  -0.714  -1.157  0.00  0.00    +0.004 A 
ATOM     14  C   UNL     1      -0.079  -2.073  -1.200  0.00  0.00    +0.000 A 
ATOM     15  C   UNL     1       0.275  -2.754  -0.049  0.00  0.00    +0.001 A 
ATOM     16  C   UNL     1       0.378  -2.080   1.150  0.00  0.00    +0.013 A 
ATOM     17  C   UNL     1       0.128  -0.708   1.200  0.00  0.00    +0.041 A 
ENDBRANCH   7  17
ENDBRANCH   1   9
BRANCH   4  18
ATOM     18  C   UNL     1       1.157  -2.721   7.201  0.00  0.00    +0.201 C 
BRANCH  18  19
ATOM     19  C   UNL     1       1.249  -4.195   6.902  0.00  0.00    +0.231 C 
ATOM     20  O   UNL     1       1.125  -4.591   5.763  0.00  0.00    -0.274 OA
ATOM     21  N   UNL     1       1.469  -5.073   7.901  0.00  0.00    -0.310 N 
ATOM     22  H   UNL     1       1.569  -4.756   8.812  0.00  0.00    +0.149 HD
BRANCH  21  23
ATOM     23  C   UNL     1       1.559  -6.506   7.610  0.00  0.00    +0.139 C 
BRANCH  23  24
ATOM     24  C   UNL     1       1.808  -7.263   8.889  0.00  0.00    -0.030 A 
ATOM     25  C   UNL     1       3.104  -7.498   9.311  0.00  0.00    +0.009 A 
ATOM     26  C   UNL     1       3.335  -8.192  10.482  0.00  0.00    +0.046 A 
ATOM     27  C   UNL     1       2.265  -8.654  11.236  0.00  0.00    +0.120 A 
ATOM     28  C   UNL     1       0.966  -8.417  10.810  0.00  0.00    +0.046 A 
ATOM     29  C   UNL     1       0.741  -7.718   9.641  0.00  0.00    +0.009 A 
BRANCH  27  30
ATOM     30  O   UNL     1       2.490  -9.338  12.389  0.00  0.00    -0.495 OA
ATOM     31  C   UNL     1       1.341  -9.784  13.113  0.00  0.00    +0.277 C 
ENDBRANCH  27  30
ENDBRANCH  23  24
ENDBRANCH  21  23
ENDBRANCH  18  19
ENDBRANCH   4  18
TORSDOF 7
