REMARK  Name = ZINC15143121
REMARK  11 active torsions:
REMARK  status: ('A' for Active; 'I' for Inactive)
REMARK    1  A    between atoms: C_1  and  C_2
REMARK    2  A    between atoms: C_4  and  C_26
REMARK    3  A    between atoms: C_6  and  O_8
REMARK    4  A    between atoms: O_8  and  C_9
REMARK    5  A    between atoms: C_9  and  C_10
REMARK    6  A    between atoms: C_10  and  N_11
REMARK    7  A    between atoms: N_11  and  C_12
REMARK    8  A    between atoms: N_11  and  C_13
REMARK    9  A    between atoms: C_16  and  N_23
REMARK   10  A    between atoms: C_18  and  S_19
REMARK   11  A    between atoms: S_19  and  N_22
REMARK                            x       y       z     vdW  Elec       q    Type
REMARK                         _______ _______ _______ _____ _____    ______ ____
ROOT
ATOM      1  C   UNL     1       1.426  -4.915   4.128  0.00  0.00    +0.056 A 
ATOM      2  C   UNL     1       1.832  -4.959   2.800  0.00  0.00    +0.027 A 
ATOM      3  C   UNL     1       1.929  -6.173   2.149  0.00  0.00    +0.034 A 
ATOM      4  C   UNL     1       1.623  -7.344   2.818  0.00  0.00    +0.128 A 
ATOM      5  C   UNL     1       1.219  -7.304   4.139  0.00  0.00    +0.063 A 
ATOM      6  C   UNL     1       1.125  -6.094   4.798  0.00  0.00    +0.128 A 
ENDROOT
BRANCH   6   7
ATOM      7  S   UNL     1       0.616  -6.045   6.484  0.00  0.00    +0.058 S 
ATOM      8  O   UNL     1      -0.404  -5.060   6.572  0.00  0.00    -0.153 OA
ATOM      9  O   UNL     1       0.410  -7.393   6.886  0.00  0.00    -0.153 OA
BRANCH   7  10
ATOM     10  N   UNL     1       1.898  -5.478   7.366  0.00  0.00    -0.203 NA
ATOM     11  H   UNL     1       1.742  -4.975   8.181  0.00  0.00    +0.144 HD
ATOM     12  H   UNL     1       2.805  -5.650   7.069  0.00  0.00    +0.144 HD
ENDBRANCH   7  10
ENDBRANCH   6   7
BRANCH   4  13
ATOM     13  N   UNL     1       1.729  -8.643   2.117  0.00  0.00    +0.056 N 
ATOM     14  O   UNL     1       2.082  -8.680   0.961  0.00  0.00    -0.126 OA
ATOM     15  O   UNL     1       1.462  -9.668   2.700  0.00  0.00    -0.126 OA
ENDBRANCH   4  13
BRANCH   1  16
ATOM     16  N   UNL     1       1.327  -3.689   4.790  0.00  0.00    -0.328 N 
ATOM     17  C   UNL     1       2.485  -3.147   5.505  0.00  0.00    +0.129 C 
BRANCH  16  18
ATOM     18  C   UNL     1       0.065  -2.946   4.769  0.00  0.00    +0.146 C 
BRANCH  18  19
ATOM     19  C   UNL     1       0.046  -2.005   3.563  0.00  0.00    +0.248 C 
BRANCH  19  20
ATOM     20  O   UNL     1       0.051  -2.775   2.359  0.00  0.00    -0.490 OA
BRANCH  20  26
ATOM     21  C   UNL     1      -0.018   1.503   0.010  0.00  0.00    +0.044 C 
ATOM     22  C   UNL     1       0.002  -0.004   0.002  0.00  0.00    -0.047 A 
ATOM     23  C   UNL     1       0.006  -0.688  -1.200  0.00  0.00    +0.007 A 
ATOM     24  C   UNL     1       0.025  -2.071  -1.210  0.00  0.00    -0.047 A 
ATOM     25  C   UNL     1       0.040  -2.772  -0.020  0.00  0.00    +0.049 A 
ATOM     26  C   UNL     1       0.036  -2.088   1.187  0.00  0.00    +0.121 A 
ATOM     27  C   UNL     1       0.023  -0.701   1.195  0.00  0.00    +0.049 A 
ATOM     28  C   UNL     1       0.029  -2.813  -2.522  0.00  0.00    +0.044 C 
ENDBRANCH  20  26
ENDBRANCH  19  20
ENDBRANCH  18  19
ENDBRANCH  16  18
ENDBRANCH   1  16
TORSDOF 8
