REMARK  Name = ZINC06643691
REMARK  6 active torsions:
REMARK  status: ('A' for Active; 'I' for Inactive)
REMARK    1  A    between atoms: C_4  and  C_13
REMARK    2  A    between atoms: C_11  and  O_12
REMARK    3  A    between atoms: C_13  and  O_14
REMARK    4  A    between atoms: O_14  and  C_15
REMARK    5  A    between atoms: C_15  and  C_17
REMARK    6  A    between atoms: C_22  and  O_23
REMARK                            x       y       z     vdW  Elec       q    Type
REMARK                         _______ _______ _______ _____ _____    ______ ____
ROOT
ATOM      1  C   UNL     1      -1.236   2.028   0.019  0.00  0.00    +0.046 A 
ATOM      2  C   UNL     1      -1.271   3.392   0.032  0.00  0.00    +0.015 A 
ATOM      3  C   UNL     1      -0.075   4.119   0.024  0.00  0.00    +0.024 A 
ATOM      4  C   UNL     1      -0.082   5.583   0.032  0.00  0.00    +0.007 A 
ATOM      5  C   UNL     1       1.112   6.231   0.025  0.00  0.00    +0.099 A 
ATOM      6  C   UNL     1       2.312   5.490   0.009  0.00  0.00    +0.338 A 
ATOM      7  O   UNL     1       3.375   6.083   0.003  0.00  0.00    -0.245 OA
ATOM      8  O   UNL     1       2.312   4.148   0.002  0.00  0.00    -0.422 OA
ATOM      9  C   UNL     1       1.160   3.443   0.009  0.00  0.00    +0.143 A 
ATOM     10  C   UNL     1       1.177   2.057   0.002  0.00  0.00    +0.092 A 
ATOM     11  C   UNL     1      -0.016   1.353   0.009  0.00  0.00    +0.120 A 
ENDROOT
BRANCH  11  12
ATOM     12  O   UNL     1       0.002  -0.004   0.002  0.00  0.00    -0.507 OA
ATOM     13  H   UNL     1       0.016  -0.402   0.883  0.00  0.00    +0.292 HD
ENDBRANCH  11  12
BRANCH   4  14
ATOM     14  C   UNL     1      -1.379   6.350   0.048  0.00  0.00    +0.269 C 
BRANCH  14  15
ATOM     15  O   UNL     1      -1.098   7.775   0.053  0.00  0.00    -0.456 OA
BRANCH  15  16
ATOM     16  C   UNL     1      -2.158   8.607   0.068  0.00  0.00    +0.343 C 
ATOM     17  O   UNL     1      -3.286   8.155   0.076  0.00  0.00    -0.245 OA
BRANCH  16  18
ATOM     18  C   UNL     1      -1.949  10.066   0.074  0.00  0.00    +0.101 A 
ATOM     19  C   UNL     1      -0.654  10.591   0.070  0.00  0.00    +0.034 A 
ATOM     20  C   UNL     1      -0.466  11.957   0.070  0.00  0.00    +0.019 A 
ATOM     21  C   UNL     1      -1.556  12.812   0.085  0.00  0.00    +0.019 A 
ATOM     22  C   UNL     1      -2.841  12.307   0.094  0.00  0.00    +0.047 A 
ATOM     23  C   UNL     1      -3.049  10.936   0.088  0.00  0.00    +0.131 A 
ATOM     24 BR   UNL     1       1.287  12.665   0.057  0.00  0.00    -0.050 Br
BRANCH  23  25
ATOM     25  O   UNL     1      -4.311  10.438   0.097  0.00  0.00    -0.506 OA
ATOM     26  H   UNL     1      -4.669  10.289   0.983  0.00  0.00    +0.292 HD
ENDBRANCH  23  25
ENDBRANCH  16  18
ENDBRANCH  15  16
ENDBRANCH  14  15
ENDBRANCH   4  14
TORSDOF 6
