REMARK  Name = ZINC16591614
REMARK  8 active torsions:
REMARK  status: ('A' for Active; 'I' for Inactive)
REMARK    1  A    between atoms: C_1  and  C_2
REMARK    2  A    between atoms: C_2  and  C_4
REMARK    3  A    between atoms: C_2  and  N_46
REMARK    4  A    between atoms: N_6  and  C_7
REMARK    5  A    between atoms: C_9  and  N_15
REMARK    6  A    between atoms: C_12  and  O_13
REMARK    7  A    between atoms: O_13  and  C_14
REMARK    8  A    between atoms: C_21  and  C_24
REMARK                            x       y       z     vdW  Elec       q    Type
REMARK                         _______ _______ _______ _____ _____    ______ ____
ROOT
ATOM      1  C   UNL     1      -2.380  -0.078   0.050  0.00  0.00    +0.203 C 
ATOM      2  O   UNL     1      -2.298   1.070   0.431  0.00  0.00    -0.277 OA
ATOM      3  N   UNL     1      -1.327  -0.665  -0.552  0.00  0.00    -0.284 N 
ATOM      4  H   UNL     1      -1.417  -1.554  -0.930  0.00  0.00    +0.155 HD
ENDROOT
BRANCH   3   5
ATOM      5  C   UNL     1      -0.101   0.009  -0.634  0.00  0.00    +0.078 A 
ATOM      6  C   UNL     1       0.169   1.067   0.223  0.00  0.00    +0.059 A 
ATOM      7  C   UNL     1       1.379   1.730   0.141  0.00  0.00    +0.128 A 
ATOM      8  C   UNL     1       2.322   1.342  -0.793  0.00  0.00    +0.036 A 
ATOM      9  C   UNL     1       2.060   0.289  -1.649  0.00  0.00    +0.050 A 
ATOM     10  C   UNL     1       0.850  -0.381  -1.574  0.00  0.00    +0.141 A 
BRANCH   7  11
ATOM     11  N   UNL     1       1.665   2.858   1.055  0.00  0.00    +0.056 N 
ATOM     12  O   UNL     1       0.835   3.201   1.878  0.00  0.00    -0.126 OA
ATOM     13  O   UNL     1       2.731   3.444   0.985  0.00  0.00    -0.126 OA
ENDBRANCH   7  11
BRANCH  10  14
ATOM     14  O   UNL     1       0.591  -1.417  -2.416  0.00  0.00    -0.493 OA
ATOM     15  C   UNL     1       1.612  -1.761  -3.354  0.00  0.00    +0.277 C 
ENDBRANCH  10  14
ENDBRANCH   3   5
BRANCH   1  17
ATOM     16  C   UNL     1      -3.609  -1.584   1.590  0.00  0.00    -0.004 C 
ATOM     17  C   UNL     1      -3.659  -0.849   0.249  0.00  0.00    +0.016 C 
BRANCH  17  23
ATOM     18  C   UNL     1      -4.831   0.879   1.474  0.00  0.00    -0.078 C 
ATOM     19  C   UNL     1      -6.105   1.728   1.498  0.00  0.00    -0.018 C 
ATOM     20  C   UNL     1      -6.124   2.645   0.272  0.00  0.00    +0.008 C 
ATOM     21  C   UNL     1      -6.038   1.790  -0.996  0.00  0.00    +0.077 C 
ATOM     22  C   UNL     1      -4.767   0.940  -0.948  0.00  0.00    -0.066 C 
ATOM     23  N   UNL     1      -4.822   0.063   0.241  0.00  0.00    +0.388 N 
ATOM     24  H   UNL     1      -5.683  -0.495   0.204  0.00  0.00    -0.081 HD
BRANCH  21  25
ATOM     25  C   UNL     1      -5.997   2.702  -2.224  0.00  0.00    +0.391 C 
ATOM     26  F   UNL     1      -5.914   1.921  -3.382  0.00  0.00    -0.171 F 
ATOM     27  F   UNL     1      -7.159   3.479  -2.268  0.00  0.00    -0.171 F 
ATOM     28  F   UNL     1      -4.878   3.539  -2.146  0.00  0.00    -0.171 F 
ENDBRANCH  21  25
ENDBRANCH  17  23
ENDBRANCH   1  17
TORSDOF 6
