REMARK  Name = ZINC38639722
REMARK  6 active torsions:
REMARK  status: ('A' for Active; 'I' for Inactive)
REMARK    1  A    between atoms: C_1  and  C_2
REMARK    2  A    between atoms: C_2  and  C_3
REMARK    3  A    between atoms: C_11  and  S_12
REMARK    4  A    between atoms: S_12  and  C_13
REMARK    5  A    between atoms: C_13  and  C_14
REMARK    6  A    between atoms: C_14  and  C_16
REMARK                            x       y       z     vdW  Elec       q    Type
REMARK                         _______ _______ _______ _____ _____    ______ ____
ROOT
ATOM      1  C   UNL     1       7.825  -1.921  -2.110  0.00  0.00    +0.173 C 
ATOM      2  O   UNL     1       7.750  -1.563  -0.954  0.00  0.00    -0.291 OA
ENDROOT
BRANCH   1   3
ATOM      3  C   UNL     1       9.127  -2.305  -2.678  0.00  0.00    +0.020 A 
ATOM      4  C   UNL     1       9.207  -2.731  -4.080  0.00  0.00    +0.013 A 
ATOM      5  C   UNL     1      10.376  -3.094  -4.651  0.00  0.00    +0.026 A 
ATOM      6  C   UNL     1      11.574  -3.074  -3.908  0.00  0.00    +0.056 A 
ATOM      7  N   UNL     1      12.831  -3.363  -4.179  0.00  0.00    -0.268 N 
ATOM      8  C   UNL     1      13.574  -3.155  -3.054  0.00  0.00    +0.308 C 
ATOM      9  O   UNL     1      14.771  -3.329  -2.967  0.00  0.00    -0.252 OA
ATOM     10  N   UNL     1      12.758  -2.717  -2.027  0.00  0.00    -0.268 N 
ATOM     11  C   UNL     1      11.535  -2.645  -2.475  0.00  0.00    +0.057 A 
ATOM     12  C   UNL     1      10.245  -2.254  -1.893  0.00  0.00    +0.036 A 
ATOM     13  H   UNL     1      13.046  -2.500  -1.127  0.00  0.00    +0.156 HD
ATOM     14  H   UNL     1      13.170  -3.672  -5.034  0.00  0.00    +0.156 HD
ENDBRANCH   1   3
BRANCH   1  15
ATOM     15  C   UNL     1       6.586  -1.973  -2.966  0.00  0.00    +0.155 C 
BRANCH  15  16
ATOM     16  S   UNL     1       5.153  -1.444  -1.986  0.00  0.00    -0.097 S 
BRANCH  16  25
ATOM     17  C   UNL     1       0.707  -0.490  -1.238  0.00  0.00    -0.008 A 
ATOM     18  C   UNL     1       2.013  -0.753  -1.401  0.00  0.00    +0.024 A 
ATOM     19  C   UNL     1       2.486  -1.217  -2.694  0.00  0.00    +0.040 A 
ATOM     20  C   UNL     1       1.484  -1.347  -3.681  0.00  0.00    +0.113 A 
ATOM     21  S   UNL     1       0.005  -0.859  -2.834  0.00  0.00    -0.074 S 
ATOM     22  N   UNL     1       1.771  -1.758  -4.901  0.00  0.00    -0.228 NA
ATOM     23  C   UNL     1       3.012  -2.060  -5.229  0.00  0.00    +0.223 A 
ATOM     24  N   UNL     1       3.999  -1.962  -4.357  0.00  0.00    -0.229 NA
ATOM     25  C   UNL     1       3.802  -1.558  -3.112  0.00  0.00    +0.109 A 
BRANCH  17  27
ATOM     26  C   UNL     1      -0.019   1.526   0.010  0.00  0.00    +0.009 C 
ATOM     27  C   UNL     1       0.002  -0.004   0.002  0.00  0.00    +0.039 C 
ENDBRANCH  17  27
ENDBRANCH  16  25
ENDBRANCH  15  16
ENDBRANCH   1  15
TORSDOF 5
