REMARK  Name = ZINC62564884
REMARK  4 active torsions:
REMARK  status: ('A' for Active; 'I' for Inactive)
REMARK    1  A    between atoms: C_3  and  N_21
REMARK    2  A    between atoms: C_5  and  O_7
REMARK    3  A    between atoms: O_7  and  C_8
REMARK    4  A    between atoms: C_13  and  C_14
REMARK                            x       y       z     vdW  Elec       q    Type
REMARK                         _______ _______ _______ _____ _____    ______ ____
ROOT
ATOM      1  C   UNL     1       0.053  -2.695   0.091  0.00  0.00    +0.142 A 
ATOM      2  C   UNL     1      -1.139  -1.985   0.099  0.00  0.00    +0.047 A 
ATOM      3  C   UNL     1      -2.343  -2.652   0.214  0.00  0.00    +0.006 A 
ATOM      4  C   UNL     1      -2.372  -4.032   0.321  0.00  0.00    +0.039 A 
ATOM      5  C   UNL     1      -1.195  -4.756   0.315  0.00  0.00    +0.137 A 
ATOM      6  C   UNL     1       0.030  -4.092   0.193  0.00  0.00    +0.090 A 
ATOM      7  F   UNL     1      -1.228  -6.103   0.420  0.00  0.00    -0.205 F 
ENDROOT
BRANCH   6   8
ATOM      8  C   UNL     1       1.291  -4.858   0.179  0.00  0.00    +0.106 C 
ATOM      9  N   UNL     1       2.030  -4.838  -0.922  0.00  0.00    -0.372 N 
ATOM     10  C   UNL     1       3.295  -5.570  -1.008  0.00  0.00    +0.115 C 
ATOM     11  C   UNL     1       3.231  -6.791  -0.083  0.00  0.00    +0.040 C 
ATOM     12  C   UNL     1       2.871  -6.312   1.328  0.00  0.00    +0.104 C 
ATOM     13  N   UNL     1       1.635  -5.529   1.269  0.00  0.00    -0.330 N 
ATOM     14  H   UNL     1       1.053  -5.504   2.044  0.00  0.00    +0.147 HD
ATOM     15  H   UNL     1       1.726  -4.327  -1.688  0.00  0.00    +0.161 HD
ENDBRANCH   6   8
BRANCH   1  16
ATOM     16  O   UNL     1       1.235  -2.039  -0.021  0.00  0.00    -0.455 OA
BRANCH  16  21
ATOM     17  C   UNL     1       1.526   1.423  -1.101  0.00  0.00    +0.006 A 
ATOM     18  C   UNL     1       1.179   2.085   0.063  0.00  0.00    +0.033 A 
ATOM     19  C   UNL     1       0.851   1.367   1.198  0.00  0.00    +0.130 A 
ATOM     20  C   UNL     1       0.869  -0.014   1.173  0.00  0.00    +0.079 A 
ATOM     21  C   UNL     1       1.216  -0.680   0.006  0.00  0.00    +0.131 A 
ATOM     22  C   UNL     1       1.545   0.043  -1.132  0.00  0.00    +0.046 A 
BRANCH  19  23
ATOM     23  N   UNL     1       0.481   2.079   2.442  0.00  0.00    +0.057 N 
ATOM     24  O   UNL     1       0.466   3.288   2.465  0.00  0.00    -0.126 OA
ATOM     25  O   UNL     1       0.194   1.452   3.435  0.00  0.00    -0.126 OA
ENDBRANCH  19  23
ENDBRANCH  16  21
ENDBRANCH   1  16
TORSDOF 4
