REMARK  Name = ZINC08879140
REMARK  10 active torsions:
REMARK  status: ('A' for Active; 'I' for Inactive)
REMARK    1  A    between atoms: C_1  and  C_2
REMARK    2  A    between atoms: C_2  and  C_33
REMARK    3  A    between atoms: C_8  and  O_20
REMARK    4  A    between atoms: O_20  and  C_21
REMARK    5  A    between atoms: C_21  and  C_22
REMARK    6  A    between atoms: N_24  and  C_25
REMARK    7  A    between atoms: C_25  and  C_27
REMARK    8  A    between atoms: C_25  and  C_30
REMARK    9  A    between atoms: C_27  and  S_28
REMARK   10  A    between atoms: S_28  and  C_29
REMARK                            x       y       z     vdW  Elec       q    Type
REMARK                         _______ _______ _______ _____ _____    ______ ____
ROOT
ATOM      1  C   UNK A   0       2.701  -5.461  -8.932  0.00  0.00    +0.055 C 
ATOM      2  C   UNK A   0       2.853  -6.192  -7.596  0.00  0.00    +0.105 C 
ATOM      3  C   UNK A   0       2.582  -7.690  -7.794  0.00  0.00    +0.052 C 
ATOM      4  C   UNK A   0       2.851  -8.404  -6.467  0.00  0.00    +0.046 C 
ATOM      5  C   UNK A   0       2.163  -7.669  -5.345  0.00  0.00    +0.038 A 
ATOM      6  C   UNK A   0       1.734  -6.361  -5.494  0.00  0.00    +0.131 A 
ATOM      7  C   UNK A   0       1.101  -5.704  -4.438  0.00  0.00    +0.092 A 
ATOM      8  C   UNK A   0       0.900  -6.342  -3.232  0.00  0.00    +0.136 A 
ATOM      9  C   UNK A   0       1.330  -7.671  -3.074  0.00  0.00    +0.063 A 
ATOM     10  C   UNK A   0       1.965  -8.329  -4.139  0.00  0.00    +0.149 A 
ATOM     11  O   UNK A   0       2.382  -9.606  -3.984  0.00  0.00    -0.421 OA
ATOM     12  C   UNK A   0       2.191 -10.252  -2.824  0.00  0.00    +0.341 A 
ATOM     13  O   UNK A   0       2.580 -11.401  -2.713  0.00  0.00    -0.245 OA
ATOM     14  C   UNK A   0       1.547  -9.631  -1.726  0.00  0.00    +0.041 A 
ATOM     15  C   UNK A   0       1.125  -8.353  -1.841  0.00  0.00    -0.023 A 
ATOM     16  C   UNK A   0       0.452  -7.607  -0.720  0.00  0.00    +0.036 C 
ATOM     17  C   UNK A   0      -0.072  -8.580   0.335  0.00  0.00    +0.005 C 
ATOM     18  C   UNK A   0       1.067  -9.532   0.720  0.00  0.00    +0.005 C 
ATOM     19  C   UNK A   0       1.356 -10.442  -0.472  0.00  0.00    +0.042 C 
ATOM     20  O   UNK A   0       1.904  -5.684  -6.659  0.00  0.00    -0.486 OA
ATOM     21  C   UNK A   0       4.270  -5.992  -7.056  0.00  0.00    +0.055 C 
ENDROOT
BRANCH   8  22
ATOM     22  O   UNK A   0       0.289  -5.694  -2.208  0.00  0.00    -0.482 OA
BRANCH  22  23
ATOM     23  C   UNK A   0      -0.118  -4.345  -2.445  0.00  0.00    +0.324 C 
BRANCH  23  24
ATOM     24  C   UNK A   0      -0.773  -3.793  -1.205  0.00  0.00    +0.251 C 
ATOM     25  O   UNK A   0      -0.881  -4.486  -0.216  0.00  0.00    -0.272 OA
ATOM     26  N   UNK A   1      -1.240  -2.528  -1.196  0.00  0.00    -0.299 N 
ATOM     27  H   UNK A   1      -1.154  -1.974  -1.987  0.00  0.00    +0.150 HD
BRANCH  26  28
ATOM     28  C   UNK A   1      -1.877  -1.992   0.009  0.00  0.00    +0.196 C 
BRANCH  28  29
ATOM     29  C   UNK A   1      -3.334  -2.376   0.021  0.00  0.00    +0.377 C 
ATOM     30  O   UNK A   1      -3.793  -3.031  -0.884  0.00  0.00    -0.244 OA
ATOM     31  O   UNK A   1      -4.122  -1.991   1.038  0.00  0.00    -0.244 OA
ENDBRANCH  28  29
BRANCH  28  32
ATOM     32  C   UNK A   1      -1.752  -0.467   0.016  0.00  0.00    +0.102 C 
BRANCH  32  33
ATOM     33  S   UNK A   1       0.002  -0.004   0.002  0.00  0.00    -0.162 S 
ATOM     34  C   UNK A   1      -0.022   1.810   0.012  0.00  0.00    +0.084 C 
ENDBRANCH  32  33
ENDBRANCH  28  32
ENDBRANCH  26  28
ENDBRANCH  23  24
ENDBRANCH  22  23
ENDBRANCH   8  22
TORSDOF 7
