REMARK  Name = ZINC66178484
REMARK  8 active torsions:
REMARK  status: ('A' for Active; 'I' for Inactive)
REMARK    1  A    between atoms: C_1  and  C_2
REMARK    2  A    between atoms: C_5  and  C_29
REMARK    3  A    between atoms: N_8  and  C_10
REMARK    4  A    between atoms: C_10  and  C_11
REMARK    5  A    between atoms: C_11  and  N_12
REMARK    6  A    between atoms: N_15  and  C_16
REMARK    7  A    between atoms: N_15  and  C_17
REMARK    8  A    between atoms: N_20  and  C_23
REMARK                            x       y       z     vdW  Elec       q    Type
REMARK                         _______ _______ _______ _____ _____    ______ ____
ROOT
ATOM      1  N   UNL     1       3.766  -2.508   3.387  0.00  0.00    -0.301 N 
ATOM      2  C   UNL     1       5.085  -2.243   3.470  0.00  0.00    +0.302 C 
ATOM      3  O   UNL     1       5.633  -1.606   2.592  0.00  0.00    -0.253 OA
ATOM      4  N   UNL     1       5.796  -2.685   4.526  0.00  0.00    -0.286 N 
ATOM      5  C   UNL     1       5.136  -3.453   5.585  0.00  0.00    +0.134 C 
ATOM      6  H   UNL     1       3.329  -3.017   4.088  0.00  0.00    +0.150 HD
ENDROOT
BRANCH   4   7
ATOM      7  C   UNL     1       7.230  -2.397   4.616  0.00  0.00    +0.074 C 
ATOM      8  C   UNL     1       8.014  -3.711   4.673  0.00  0.00    +0.004 C 
ATOM      9  C   UNL     1       9.502  -3.404   4.846  0.00  0.00    -0.077 C 
ATOM     10  N   UNL     1       9.709  -2.656   6.092  0.00  0.00    +0.382 N 
ATOM     11  C   UNL     1       9.019  -1.362   6.016  0.00  0.00    -0.077 C 
ATOM     12  C   UNL     1       7.511  -1.591   5.888  0.00  0.00    +0.004 C 
ATOM     13  H   UNL     1       9.342  -3.187   6.867  0.00  0.00    -0.081 HD
BRANCH  10  14
ATOM     14  C   UNL     1      11.147  -2.431   6.294  0.00  0.00    -0.064 C 
ATOM     15  C   UNL     1      11.867  -3.779   6.393  0.00  0.00    +0.013 C 
ATOM     16  C   UNL     1      13.351  -3.536   6.682  0.00  0.00    +0.158 C 
ATOM     17  O   UNL     1      13.483  -2.779   7.886  0.00  0.00    -0.380 OA
ATOM     18  C   UNL     1      12.869  -1.489   7.835  0.00  0.00    +0.158 C 
ATOM     19  C   UNL     1      11.366  -1.650   7.593  0.00  0.00    +0.013 C 
ENDBRANCH  10  14
ENDBRANCH   4   7
BRANCH   1  20
ATOM     20  C   UNL     1       2.993  -2.028   2.239  0.00  0.00    +0.087 C 
BRANCH  20  21
ATOM     21  C   UNL     1       1.534  -2.461   2.390  0.00  0.00    -0.060 C 
BRANCH  21  27
ATOM     22  C   UNL     1      -0.019   1.526   0.010  0.00  0.00    +0.005 C 
ATOM     23  C   UNL     1       0.002  -0.004   0.002  0.00  0.00    -0.031 C 
ATOM     24  C   UNL     1      -1.434  -0.535   0.015  0.00  0.00    +0.003 C 
ATOM     25  C   UNL     1      -1.402  -2.064   0.086  0.00  0.00    -0.031 C 
ATOM     26  C   UNL     1      -0.613  -2.496   1.324  0.00  0.00    -0.076 C 
ATOM     27  N   UNL     1       0.758  -1.980   1.239  0.00  0.00    +0.381 N 
ATOM     28  C   UNL     1       0.740  -0.512   1.242  0.00  0.00    -0.076 C 
ATOM     29  C   UNL     1      -2.832  -2.602   0.177  0.00  0.00    +0.005 C 
ATOM     30  H   UNL     1       1.188  -2.307   0.386  0.00  0.00    -0.082 HD
ENDBRANCH  21  27
ENDBRANCH  20  21
ENDBRANCH   1  20
TORSDOF 5
