REMARK  Name = ZINC08147955
REMARK  11 active torsions:
REMARK  status: ('A' for Active; 'I' for Inactive)
REMARK    1  A    between atoms: C_1  and  C_2
REMARK    2  A    between atoms: C_2  and  C_19
REMARK    3  A    between atoms: N_5  and  C_9
REMARK    4  A    between atoms: C_9  and  N_57
REMARK    5  A    between atoms: C_10  and  N_57
REMARK    6  A    between atoms: C_11  and  C_12
REMARK    7  A    between atoms: C_11  and  N_57
REMARK    8  A    between atoms: N_14  and  C_15
REMARK    9  A    between atoms: C_15  and  C_16
REMARK   10  A    between atoms: C_15  and  C_17
REMARK   11  A    between atoms: C_15  and  C_18
REMARK                            x       y       z     vdW  Elec       q    Type
REMARK                         _______ _______ _______ _____ _____    ______ ____
ROOT
ATOM      1  C   UNL     1       0.952   7.989  -1.399  0.00  0.00    +0.047 C 
ATOM      2  C   UNL     1       1.044   7.447   0.029  0.00  0.00    +0.135 C 
ATOM      3  C   UNL     1       2.272   7.994   0.729  0.00  0.00    +0.249 C 
ATOM      4  O   UNL     1       3.430   7.837   0.406  0.00  0.00    -0.272 OA
ATOM      5  N   UNL     1       1.809   8.691   1.786  0.00  0.00    -0.241 N 
ATOM      6  C   UNL     1       0.473   8.660   1.850  0.00  0.00    +0.308 C 
ATOM      7  O   UNL     1      -0.175   9.216   2.715  0.00  0.00    -0.252 OA
ATOM      8  N   UNL     1      -0.074   7.946   0.849  0.00  0.00    -0.281 N 
ATOM      9  H   UNL     1      -1.019   7.790   0.697  0.00  0.00    +0.152 HD
ENDROOT
BRANCH   2  10
ATOM     10  C   UNL     1       1.064   5.940   0.022  0.00  0.00    -0.015 A 
ATOM     11  C   UNL     1       2.286   5.270   0.007  0.00  0.00    +0.007 A 
ATOM     12  C   UNL     1       2.340   3.910  -0.000  0.00  0.00    +0.009 A 
ATOM     13  C   UNL     1       1.147   3.167   0.008  0.00  0.00    -0.018 A 
ATOM     14  C   UNL     1       1.163   1.762   0.000  0.00  0.00    +0.008 A 
ATOM     15  C   UNL     1      -0.013   1.076   0.008  0.00  0.00    +0.001 A 
ATOM     16  C   UNL     1      -1.235   1.746   0.017  0.00  0.00    +0.001 A 
ATOM     17  C   UNL     1      -1.288   3.106   0.031  0.00  0.00    +0.008 A 
ATOM     18  C   UNL     1      -0.096   3.849   0.023  0.00  0.00    -0.018 A 
ATOM     19  C   UNL     1      -0.111   5.254   0.030  0.00  0.00    +0.014 A 
ENDBRANCH   2  10
BRANCH   5  20
ATOM     20  C   UNL     1       2.663   9.395   2.745  0.00  0.00    +0.043 C 
BRANCH  20  22
ATOM     21  C   UNL     1       1.745  11.632   2.629  0.00  0.00    -0.093 C 
ATOM     22  N   UNL     1       2.887  10.771   2.256  0.00  0.00    +0.394 N 
ATOM     23  H   UNL     1       2.970  10.753   1.233  0.00  0.00    -0.079 HD
BRANCH  22  24
ATOM     24  C   UNL     1       4.136  11.314   2.830  0.00  0.00    +0.020 C 
BRANCH  24  25
ATOM     25  C   UNL     1       4.455  12.621   2.151  0.00  0.00    +0.197 C 
ATOM     26  O   UNL     1       3.713  13.058   1.297  0.00  0.00    -0.278 OA
ATOM     27  N   UNL     1       5.566  13.305   2.492  0.00  0.00    -0.312 N 
ATOM     28  H   UNL     1       6.160  12.955   3.175  0.00  0.00    +0.149 HD
BRANCH  27  29
ATOM     29  C   UNL     1       5.876  14.575   1.832  0.00  0.00    +0.026 C 
ATOM     30  C   UNL     1       4.739  15.569   2.079  0.00  0.00    +0.031 C 
ATOM     31  C   UNL     1       7.180  15.140   2.399  0.00  0.00    +0.031 C 
ATOM     32  C   UNL     1       6.032  14.344   0.328  0.00  0.00    +0.031 C 
ENDBRANCH  27  29
ENDBRANCH  24  25
ENDBRANCH  22  24
ENDBRANCH  20  22
ENDBRANCH   5  20
TORSDOF 6
