REMARK  Name = ZINC09926536
REMARK  5 active torsions:
REMARK  status: ('A' for Active; 'I' for Inactive)
REMARK    1  A    between atoms: C_1  and  O_2
REMARK    2  A    between atoms: O_2  and  C_3
REMARK    3  A    between atoms: C_7  and  N_9
REMARK    4  A    between atoms: C_13  and  N_42
REMARK    5  A    between atoms: C_19  and  C_22
REMARK                            x       y       z     vdW  Elec       q    Type
REMARK                         _______ _______ _______ _____ _____    ______ ____
ROOT
ATOM      1  N   UNL     1       3.623  -0.661  -0.036  0.00  0.00    -0.212 N 
ATOM      2  C   UNL     1       4.803  -0.039  -0.147  0.00  0.00    +0.225 C 
ATOM      3  O   UNL     1       4.958   1.160  -0.247  0.00  0.00    -0.275 OA
ATOM      4  C   UNL     1       5.913  -1.067  -0.127  0.00  0.00    +0.090 C 
ATOM      5  C   UNL     1       5.161  -2.407   0.008  0.00  0.00    +0.029 C 
ATOM      6  C   UNL     1       3.706  -1.994   0.055  0.00  0.00    +0.213 C 
ATOM      7  O   UNL     1       2.764  -2.751   0.158  0.00  0.00    -0.277 OA
ENDROOT
BRANCH   5  13
ATOM      8  C   UNL     1       6.983  -3.381   1.270  0.00  0.00    -0.077 C 
ATOM      9  C   UNL     1       7.369  -3.964   2.631  0.00  0.00    -0.004 C 
ATOM     10  C   UNL     1       6.572  -5.248   2.875  0.00  0.00    +0.099 C 
ATOM     11  C   UNL     1       5.075  -4.933   2.800  0.00  0.00    -0.004 C 
ATOM     12  C   UNL     1       4.756  -4.321   1.434  0.00  0.00    -0.077 C 
ATOM     13  N   UNL     1       5.537  -3.076   1.271  0.00  0.00    +0.388 N 
ATOM     14  H   UNL     1       5.329  -2.448   2.056  0.00  0.00    -0.081 HD
BRANCH  10  15
ATOM     15  C   UNL     1       6.903  -5.795   4.240  0.00  0.00    +0.359 C 
ATOM     16  O   UNL     1       6.033  -5.920   5.068  0.00  0.00    -0.246 OA
ATOM     17  O   UNL     1       8.166  -6.143   4.535  0.00  0.00    -0.246 OA
ENDBRANCH  10  15
ENDBRANCH   5  13
BRANCH   1  22
ATOM     18  C   UNL     1       0.305   0.566  -1.059  0.00  0.00    +0.122 A 
ATOM     19  C   UNL     1      -0.011   1.387   0.015  0.00  0.00    +0.046 A 
ATOM     20  C   UNL     1       0.876   1.526   1.065  0.00  0.00    +0.005 A 
ATOM     21  C   UNL     1       2.080   0.849   1.050  0.00  0.00    +0.024 A 
ATOM     22  C   UNL     1       2.401   0.026  -0.021  0.00  0.00    +0.047 A 
ATOM     23  C   UNL     1       1.512  -0.115  -1.077  0.00  0.00    +0.069 A 
BRANCH  18  25
ATOM     24  C   UNL     1      -1.793   1.161  -2.006  0.00  0.00    +0.277 C 
ATOM     25  O   UNL     1      -0.568   0.430  -2.091  0.00  0.00    -0.495 OA
ENDBRANCH  18  25
ENDBRANCH   1  22
TORSDOF 4
