REMARK  Name = ZINC50439957
REMARK  6 active torsions:
REMARK  status: ('A' for Active; 'I' for Inactive)
REMARK    1  A    between atoms: C_1  and  N_2
REMARK    2  A    between atoms: N_2  and  C_3
REMARK    3  A    between atoms: N_2  and  C_16
REMARK    4  A    between atoms: C_6  and  N_13
REMARK    5  A    between atoms: C_8  and  C_9
REMARK    6  A    between atoms: N_10  and  O_11
REMARK                            x       y       z     vdW  Elec       q    Type
REMARK                         _______ _______ _______ _____ _____    ______ ____
ROOT
ATOM      1  C   UNL     1       0.023  -0.707   1.204  0.00  0.00    +0.040 A 
ATOM      2  C   UNL     1      -1.167  -1.080   1.814  0.00  0.00    +0.026 A 
ATOM      3  C   UNL     1      -1.144  -1.776   3.006  0.00  0.00    +0.034 A 
ATOM      4  C   UNL     1       0.063  -2.107   3.601  0.00  0.00    +0.127 A 
ATOM      5  C   UNL     1       1.254  -1.744   3.007  0.00  0.00    +0.046 A 
ATOM      6  C   UNL     1       1.245  -1.045   1.800  0.00  0.00    +0.041 A 
ENDROOT
BRANCH   6   7
ATOM      7  C   UNL     1       2.519  -0.659   1.156  0.00  0.00    +0.164 C 
ATOM      8  N   UNL     1       2.507  -0.002   0.033  0.00  0.00    -0.071 NA
ATOM      9  N   UNL     1       3.724  -0.996   1.749  0.00  0.00    -0.340 N 
ATOM     10  H   UNL     1       3.733  -1.485   2.586  0.00  0.00    +0.144 HD
ATOM     11  H   UNL     1       4.560  -0.742   1.327  0.00  0.00    +0.144 HD
BRANCH   8  12
ATOM     12  O   UNL     1       3.727   0.368  -0.584  0.00  0.00    -0.408 OA
ATOM     13  H   UNL     1       3.617   0.853  -1.414  0.00  0.00    +0.328 HD
ENDBRANCH   8  12
ENDBRANCH   6   7
BRANCH   4  14
ATOM     14  N   UNL     1       0.074  -2.853   4.879  0.00  0.00    +0.056 N 
ATOM     15  O   UNL     1      -0.968  -3.172   5.402  0.00  0.00    -0.126 OA
ATOM     16  O   UNL     1       1.125  -3.144   5.400  0.00  0.00    -0.126 OA
ENDBRANCH   4  14
BRANCH   1  18
ATOM     17  C   UNL     1      -0.018   1.461   0.010  0.00  0.00    +0.129 C 
ATOM     18  N   UNL     1       0.002  -0.004   0.002  0.00  0.00    -0.329 N 
BRANCH  18  19
ATOM     19  C   UNL     1      -0.000  -0.730  -1.271  0.00  0.00    +0.073 C 
ATOM     20  C   UNL     1       0.180   0.089  -2.551  0.00  0.00    +0.024 C 
ATOM     21  C   UNL     1      -1.188  -0.506  -2.209  0.00  0.00    +0.024 C 
ENDBRANCH  18  19
ENDBRANCH   1  18
TORSDOF 5
