REMARK  Name = ZINC57594665
REMARK  5 active torsions:
REMARK  status: ('A' for Active; 'I' for Inactive)
REMARK    1  A    between atoms: C_1  and  C_2
REMARK    2  A    between atoms: C_5  and  C_8
REMARK    3  A    between atoms: C_8  and  C_10
REMARK    4  A    between atoms: C_8  and  O_22
REMARK    5  A    between atoms: N_12  and  C_13
REMARK                            x       y       z     vdW  Elec       q    Type
REMARK                         _______ _______ _______ _____ _____    ______ ____
ROOT
ATOM      1  C   UNL     1       1.467  -4.759   0.216  0.00  0.00    +0.250 C 
ATOM      2  O   UNL     1       1.734  -5.375   1.226  0.00  0.00    -0.272 OA
ATOM      3  N   UNL     1       2.429  -4.503  -0.692  0.00  0.00    -0.283 N 
ATOM      4  H   UNL     1       2.203  -4.070  -1.530  0.00  0.00    +0.155 HD
ENDROOT
BRANCH   3   5
ATOM      5  C   UNL     1       3.757  -4.862  -0.425  0.00  0.00    +0.037 A 
ATOM      6  C   UNL     1       4.797  -4.057  -0.871  0.00  0.00    +0.027 A 
ATOM      7  C   UNL     1       6.107  -4.409  -0.608  0.00  0.00    +0.051 A 
ATOM      8  C   UNL     1       6.387  -5.566   0.101  0.00  0.00    +0.166 A 
ATOM      9  C   UNL     1       5.346  -6.376   0.550  0.00  0.00    +0.168 A 
ATOM     10  C   UNL     1       4.033  -6.019   0.290  0.00  0.00    +0.072 A 
ATOM     11  O   UNL     1       5.878  -7.443   1.213  0.00  0.00    -0.453 OA
ATOM     12  C   UNL     1       7.261  -7.494   0.814  0.00  0.00    +0.466 C 
ATOM     13  O   UNL     1       7.572  -6.128   0.484  0.00  0.00    -0.453 OA
ENDBRANCH   3   5
BRANCH   1  14
ATOM     14  C   UNL     1       0.058  -4.281  -0.025  0.00  0.00    +0.230 C 
BRANCH  14  19
ATOM     15  C   UNL     1      -0.043   1.497  -0.029  0.00  0.00    +0.044 C 
ATOM     16  C   UNL     1      -0.017  -0.010  -0.028  0.00  0.00    -0.050 A 
ATOM     17  C   UNL     1      -0.009  -0.702  -1.224  0.00  0.00    +0.004 A 
ATOM     18  C   UNL     1       0.015  -2.084  -1.224  0.00  0.00    +0.007 A 
ATOM     19  C   UNL     1       0.032  -2.774  -0.026  0.00  0.00    -0.010 A 
ATOM     20  C   UNL     1       0.026  -2.082   1.171  0.00  0.00    +0.007 A 
ATOM     21  C   UNL     1       0.006  -0.700   1.170  0.00  0.00    +0.004 A 
ENDBRANCH  14  19
BRANCH  14  22
ATOM     22  O   UNL     1      -0.795  -4.771   1.012  0.00  0.00    -0.378 OA
ATOM     23  H   UNL     1      -0.542  -4.481   1.899  0.00  0.00    +0.211 HD
ENDBRANCH  14  22
ENDBRANCH   1  14
TORSDOF 4
