REMARK  Name = ZINC52094192
REMARK  2 active torsions:
REMARK  status: ('A' for Active; 'I' for Inactive)
REMARK    1  A    between atoms: C_5  and  C_6
REMARK    2  A    between atoms: C_6  and  C_8
REMARK                            x       y       z     vdW  Elec       q    Type
REMARK                         _______ _______ _______ _____ _____    ______ ____
ROOT
ATOM      1  C   UNL     1      -0.873  -2.392  -0.114  0.00  0.00    +0.039 A 
ATOM      2  C   UNL     1       0.437  -2.878  -0.124  0.00  0.00    +0.040 A 
ATOM      3  C   UNL     1       0.663  -4.237  -0.238  0.00  0.00    +0.068 A 
ATOM      4  C   UNL     1      -0.417  -5.120  -0.343  0.00  0.00    +0.068 A 
ATOM      5  C   UNL     1      -1.719  -4.634  -0.334  0.00  0.00    +0.043 A 
ATOM      6  C   UNL     1      -1.949  -3.281  -0.213  0.00  0.00    +0.031 A 
ATOM      7 BR   UNL     1      -3.721  -2.623  -0.192  0.00  0.00    -0.049 Br
ATOM      8  N   UNL     1       0.118  -6.398  -0.442  0.00  0.00    -0.306 N 
ATOM      9  H   UNL     1      -0.390  -7.220  -0.527  0.00  0.00    +0.170 HD
ATOM     10  C   UNL     1       1.460  -6.303  -0.400  0.00  0.00    +0.325 A 
ATOM     11  O   UNL     1       2.231  -7.242  -0.463  0.00  0.00    -0.247 OA
ATOM     12  N   UNL     1       1.821  -5.012  -0.277  0.00  0.00    -0.306 N 
ATOM     13  H   UNL     1       2.730  -4.678  -0.225  0.00  0.00    +0.170 HD
ENDROOT
BRANCH   1  14
ATOM     14  C   UNL     1      -1.121  -0.942   0.008  0.00  0.00    +0.201 C 
ATOM     15  O   UNL     1      -2.255  -0.530   0.177  0.00  0.00    -0.286 OA
BRANCH  14  20
ATOM     16  C   UNL     1      -0.002   1.374   0.140  0.00  0.00    +0.021 A 
ATOM     17  C   UNL     1       1.212   1.998  -0.011  0.00  0.00    +0.028 A 
ATOM     18  C   UNL     1       2.298   1.254  -0.350  0.00  0.00    +0.079 A 
ATOM     19  S   UNL     1       1.703  -0.312  -0.473  0.00  0.00    -0.074 S 
ATOM     20  C   UNL     1      -0.005   0.001  -0.074  0.00  0.00    +0.061 A 
ATOM     21 CL   UNL     1       3.927   1.800  -0.600  0.00  0.00    -0.076 Cl
ENDBRANCH  14  20
ENDBRANCH   1  14
TORSDOF 2
