REMARK  Name = ZINC43666493
REMARK  4 active torsions:
REMARK  status: ('A' for Active; 'I' for Inactive)
REMARK    1  A    between atoms: C_1  and  C_2
REMARK    2  A    between atoms: C_2  and  C_4
REMARK    3  A    between atoms: C_2  and  N_10
REMARK    4  A    between atoms: C_11  and  N_16
REMARK                            x       y       z     vdW  Elec       q    Type
REMARK                         _______ _______ _______ _____ _____    ______ ____
ROOT
ATOM      1  N   UNL     1       0.688  -0.476  -1.203  0.00  0.00    -0.242 N 
ATOM      2  C   UNL     1       1.804  -1.250  -1.238  0.00  0.00    +0.129 A 
ATOM      3  C   UNL     1       2.114  -1.462  -2.547  0.00  0.00    +0.077 A 
ATOM      4  C   UNL     1       1.161  -0.800  -3.326  0.00  0.00    +0.151 A 
ATOM      5  N   UNL     1       0.306  -0.216  -2.526  0.00  0.00    -0.176 NA
ATOM      6 BR   UNL     1       3.575  -2.473  -3.195  0.00  0.00    -0.045 Br
ENDROOT
BRANCH   2   7
ATOM      7  N   UNL     1       2.503  -1.736  -0.136  0.00  0.00    -0.342 N 
ATOM      8  H   UNL     1       2.200  -1.528   0.762  0.00  0.00    +0.144 HD
ATOM      9  H   UNL     1       3.294  -2.284  -0.266  0.00  0.00    +0.144 HD
ENDBRANCH   2   7
BRANCH   1  11
ATOM     10  C   UNL     1      -0.019   1.526   0.010  0.00  0.00    +0.038 C 
ATOM     11  C   UNL     1       0.002  -0.004   0.002  0.00  0.00    +0.143 C 
BRANCH  11  12
ATOM     12  C   UNL     1      -1.412  -0.526   0.013  0.00  0.00    +0.015 A 
ATOM     13  C   UNL     1      -2.023  -1.315   0.929  0.00  0.00    +0.014 A 
ATOM     14  C   UNL     1      -3.344  -1.674   0.731  0.00  0.00    +0.023 A 
ATOM     15  C   UNL     1      -3.988  -1.224  -0.375  0.00  0.00    +0.055 A 
ATOM     16  S   UNL     1      -2.718  -0.257  -1.174  0.00  0.00    -0.084 S 
ATOM     17 BR   UNL     1      -5.771  -1.535  -0.923  0.00  0.00    -0.043 Br
ENDBRANCH  11  12
ENDBRANCH   1  11
TORSDOF 3
