REMARK  Name = ZINC24971760
REMARK  6 active torsions:
REMARK  status: ('A' for Active; 'I' for Inactive)
REMARK    1  A    between atoms: C_1  and  C_2
REMARK    2  A    between atoms: C_2  and  C_25
REMARK    3  A    between atoms: N_5  and  C_9
REMARK    4  A    between atoms: C_9  and  C_10
REMARK    5  A    between atoms: N_12  and  C_13
REMARK    6  A    between atoms: C_13  and  C_14
REMARK                            x       y       z     vdW  Elec       q    Type
REMARK                         _______ _______ _______ _____ _____    ______ ____
ROOT
ATOM      1  C   UNL     1       2.990   1.210   1.413  0.00  0.00    +0.050 C 
ATOM      2  C   UNL     1       2.486   1.445  -0.013  0.00  0.00    +0.168 C 
ATOM      3  C   UNL     1       3.356   2.461  -0.725  0.00  0.00    +0.254 C 
ATOM      4  O   UNL     1       3.539   3.617  -0.410  0.00  0.00    -0.272 OA
ATOM      5  N   UNL     1       3.884   1.812  -1.782  0.00  0.00    -0.215 N 
ATOM      6  C   UNL     1       3.473   0.540  -1.835  0.00  0.00    +0.310 C 
ATOM      7  O   UNL     1       3.814  -0.245  -2.698  0.00  0.00    -0.252 OA
ATOM      8  N   UNL     1       2.639   0.227  -0.827  0.00  0.00    -0.279 N 
ATOM      9  H   UNL     1       2.110  -0.695  -0.543  0.00  0.00    +0.152 HD
ENDROOT
BRANCH   2  10
ATOM     10  C   UNL     1       1.048   1.895   0.002  0.00  0.00    +0.138 A 
ATOM     11  C   UNL     1      -0.013   1.076   0.008  0.00  0.00    +0.056 A 
ATOM     12  C   UNL     1      -1.198   1.941   0.018  0.00  0.00    +0.020 A 
ATOM     13  C   UNL     1      -2.573   1.711   0.022  0.00  0.00    +0.011 A 
ATOM     14  C   UNL     1      -3.438   2.771   0.031  0.00  0.00    +0.001 A 
ATOM     15  C   UNL     1      -2.955   4.071   0.036  0.00  0.00    +0.004 A 
ATOM     16  C   UNL     1      -1.598   4.318   0.038  0.00  0.00    +0.047 A 
ATOM     17  C   UNL     1      -0.703   3.256   0.025  0.00  0.00    +0.135 A 
ATOM     18  O   UNL     1       0.643   3.177   0.012  0.00  0.00    -0.457 OA
ENDBRANCH   2  10
BRANCH   5  19
ATOM     19  C   UNL     1       4.796   2.424  -2.752  0.00  0.00    +0.213 C 
BRANCH  19  20
ATOM     20  C   UNL     1       6.218   2.240  -2.288  0.00  0.00    +0.231 C 
ATOM     21  O   UNL     1       6.447   1.656  -1.250  0.00  0.00    -0.274 OA
ATOM     22  N   UNL     1       7.235   2.725  -3.027  0.00  0.00    -0.310 N 
ATOM     23  H   UNL     1       7.027   3.255  -3.969  0.00  0.00    +0.149 HD
BRANCH  22  24
ATOM     24  C   UNL     1       8.618   2.547  -2.577  0.00  0.00    +0.152 C 
BRANCH  24  25
ATOM     25  C   UNL     1       9.570   3.186  -3.590  0.00  0.00    +0.228 C 
ATOM     26  C   UNL     1      11.023   2.920  -3.173  0.00  0.00    +0.275 C 
ATOM     27  O   UNL     1      11.885   3.542  -4.132  0.00  0.00    -0.485 OA
ATOM     28  C   UNL     1      11.581   4.818  -4.492  0.00  0.00    +0.162 A 
ATOM     29  C   UNL     1      12.541   5.596  -5.121  0.00  0.00    +0.049 A 
ATOM     30  C   UNL     1      12.245   6.892  -5.498  0.00  0.00    +0.004 A 
ATOM     31  C   UNL     1      10.990   7.417  -5.249  0.00  0.00    +0.004 A 
ATOM     32  C   UNL     1      10.029   6.648  -4.622  0.00  0.00    +0.049 A 
ATOM     33  C   UNL     1      10.320   5.347  -4.240  0.00  0.00    +0.163 A 
ATOM     34  O   UNL     1       9.364   4.602  -3.620  0.00  0.00    -0.480 OA
ENDBRANCH  24  25
ENDBRANCH  22  24
ENDBRANCH  19  20
ENDBRANCH   5  19
TORSDOF 5
