REMARK  Name = ZINC28579354
REMARK  5 active torsions:
REMARK  status: ('A' for Active; 'I' for Inactive)
REMARK    1  A    between atoms: C_1  and  C_2
REMARK    2  A    between atoms: C_5  and  N_8
REMARK    3  A    between atoms: N_11  and  C_12
REMARK    4  A    between atoms: C_13  and  C_23
REMARK    5  A    between atoms: C_18  and  C_22
REMARK                            x       y       z     vdW  Elec       q    Type
REMARK                         _______ _______ _______ _____ _____    ______ ____
ROOT
ATOM      1  N   UNL     1      -4.814   1.989   0.035  0.00  0.00    -0.269 N 
ATOM      2  C   UNL     1      -3.557   2.475   0.034  0.00  0.00    +0.309 C 
ATOM      3  O   UNL     1      -3.370   3.676   0.048  0.00  0.00    -0.252 OA
ATOM      4  N   UNL     1      -2.508   1.630   0.017  0.00  0.00    -0.262 N 
ATOM      5  H   UNL     1      -4.985   0.906  -0.054  0.00  0.00    +0.156 HD
ATOM      6  H   UNL     1      -2.677   0.543   0.004  0.00  0.00    +0.157 HD
ENDROOT
BRANCH   4   7
ATOM      7  C   UNL     1      -1.213   2.130   0.015  0.00  0.00    +0.091 A 
ATOM      8  C   UNL     1      -0.018   1.427  -0.001  0.00  0.00    +0.084 A 
ATOM      9  C   UNL     1       1.215   2.197  -0.005  0.00  0.00    -0.018 A 
ATOM     10  C   UNL     1       1.055   3.539   0.013  0.00  0.00    -0.004 A 
ATOM     11  S   UNL     1      -0.699   3.784   0.035  0.00  0.00    -0.077 S 
ATOM     12  C   UNL     1       2.134   4.577   0.013  0.00  0.00    +0.046 C 
ATOM     13  C   UNL     1       3.454   3.902  -0.388  0.00  0.00    -0.009 C 
ATOM     14  C   UNL     1       3.621   2.620   0.432  0.00  0.00    +0.008 C 
ATOM     15  C   UNL     1       2.604   1.573  -0.026  0.00  0.00    +0.037 C 
ATOM     16  C   UNL     1       4.621   4.849  -0.103  0.00  0.00    +0.008 C 
BRANCH   8  17
ATOM     17  C   UNL     1       0.002  -0.004  -0.019  0.00  0.00    +0.102 C 
ATOM     18  N   UNL     1       0.017  -1.140  -0.034  0.00  0.00    -0.191 NA
ENDBRANCH   8  17
ENDBRANCH   4   7
BRANCH   1  23
ATOM     19  C   UNL     1      -9.224   5.528   0.502  0.00  0.00    +0.044 C 
ATOM     20  C   UNL     1      -8.052   4.588   0.378  0.00  0.00    -0.050 A 
ATOM     21  C   UNL     1      -6.924   4.980  -0.319  0.00  0.00    +0.005 A 
ATOM     22  C   UNL     1      -5.849   4.120  -0.434  0.00  0.00    +0.023 A 
ATOM     23  C   UNL     1      -5.902   2.862   0.151  0.00  0.00    +0.035 A 
ATOM     24  C   UNL     1      -7.038   2.470   0.845  0.00  0.00    +0.023 A 
ATOM     25  C   UNL     1      -8.108   3.335   0.961  0.00  0.00    +0.005 A 
ENDBRANCH   1  23
TORSDOF 3
