REMARK  Name = ZINC06229127
REMARK  7 active torsions:
REMARK  status: ('A' for Active; 'I' for Inactive)
REMARK    1  A    between atoms: C_1  and  O_2
REMARK    2  A    between atoms: O_2  and  C_3
REMARK    3  A    between atoms: C_8  and  C_9
REMARK    4  A    between atoms: C_12  and  C_29
REMARK    5  A    between atoms: C_17  and  N_19
REMARK    6  A    between atoms: N_19  and  S_20
REMARK    7  A    between atoms: S_20  and  C_23
REMARK                            x       y       z     vdW  Elec       q    Type
REMARK                         _______ _______ _______ _____ _____    ______ ____
ROOT
ATOM      1  C   UNL     1       0.052  -2.828   0.005  0.00  0.00    +0.150 C 
ATOM      2  C   UNL     1      -1.021  -3.747   0.603  0.00  0.00    +0.088 C 
ATOM      3  C   UNL     1      -0.398  -4.927   1.293  0.00  0.00    +0.055 C 
ATOM      4  N   UNL     1       0.707  -5.485   0.874  0.00  0.00    -0.217 NA
ATOM      5  C   UNL     1       1.357  -4.933  -0.185  0.00  0.00    +0.228 A 
ATOM      6  N   UNL     1       1.068  -3.670  -0.627  0.00  0.00    -0.221 N 
ATOM      7  N   UNL     1       1.901  -3.423  -1.713  0.00  0.00    -0.130 NA
ATOM      8  C   UNL     1       2.649  -4.497  -1.869  0.00  0.00    +0.255 A 
ATOM      9  N   UNL     1       2.324  -5.403  -0.936  0.00  0.00    -0.293 N 
ATOM     10  H   UNL     1       2.739  -6.273  -0.832  0.00  0.00    +0.172 HD
ENDROOT
BRANCH   3  11
ATOM     11  C   UNL     1      -1.057  -5.476   2.488  0.00  0.00    -0.003 A 
ATOM     12  C   UNL     1      -2.244  -4.905   2.960  0.00  0.00    +0.011 A 
ATOM     13  C   UNL     1      -2.856  -5.425   4.080  0.00  0.00    +0.020 A 
ATOM     14  C   UNL     1      -2.299  -6.509   4.739  0.00  0.00    +0.041 A 
ATOM     15  C   UNL     1      -1.123  -7.079   4.277  0.00  0.00    +0.020 A 
ATOM     16  C   UNL     1      -0.504  -6.575   3.154  0.00  0.00    +0.011 A 
ATOM     17 CL   UNL     1      -3.077  -7.157   6.149  0.00  0.00    -0.084 Cl
ENDBRANCH   3  11
BRANCH   1  23
ATOM     18  C   UNL     1       0.626  -0.618   1.042  0.00  0.00    +0.125 A 
ATOM     19  C   UNL     1       1.202   0.139   2.051  0.00  0.00    +0.046 A 
ATOM     20  C   UNL     1       1.835  -0.488   3.107  0.00  0.00    +0.004 A 
ATOM     21  C   UNL     1       1.895  -1.869   3.158  0.00  0.00    +0.001 A 
ATOM     22  C   UNL     1       1.321  -2.625   2.153  0.00  0.00    +0.009 A 
ATOM     23  C   UNL     1       0.682  -2.003   1.097  0.00  0.00    +0.019 A 
BRANCH  18  25
ATOM     24  C   UNL     1      -0.017   1.425   0.010  0.00  0.00    +0.277 C 
ATOM     25  O   UNL     1       0.002  -0.004   0.002  0.00  0.00    -0.495 OA
ENDBRANCH  18  25
ENDBRANCH   1  23
BRANCH   8  26
ATOM     26  N   UNL     1       3.626  -4.664  -2.851  0.00  0.00    -0.058 NA
BRANCH  26  27
ATOM     27  S   UNL     1       3.920  -3.453  -3.941  0.00  0.00    +0.094 S 
ATOM     28  O   UNL     1       2.749  -3.331  -4.737  0.00  0.00    -0.148 OA
ATOM     29  O   UNL     1       4.457  -2.364  -3.204  0.00  0.00    -0.148 OA
BRANCH  27  30
ATOM     30  C   UNL     1       5.201  -4.016  -5.013  0.00  0.00    +0.110 A 
ATOM     31  C   UNL     1       6.524  -3.778  -4.693  0.00  0.00    +0.029 A 
ATOM     32  C   UNL     1       7.529  -4.220  -5.533  0.00  0.00    +0.002 A 
ATOM     33  C   UNL     1       7.210  -4.900  -6.693  0.00  0.00    +0.000 A 
ATOM     34  C   UNL     1       5.887  -5.140  -7.013  0.00  0.00    +0.002 A 
ATOM     35  C   UNL     1       4.882  -4.702  -6.170  0.00  0.00    +0.029 A 
ENDBRANCH  27  30
ENDBRANCH  26  27
ENDBRANCH   8  26
TORSDOF 6
