REMARK  Name = ZINC40650350
REMARK  5 active torsions:
REMARK  status: ('A' for Active; 'I' for Inactive)
REMARK    1  A    between atoms: C_1  and  C_2
REMARK    2  A    between atoms: C_5  and  S_8
REMARK    3  A    between atoms: S_8  and  C_9
REMARK    4  A    between atoms: C_10  and  N_27
REMARK    5  A    between atoms: C_11  and  N_15
REMARK                            x       y       z     vdW  Elec       q    Type
REMARK                         _______ _______ _______ _____ _____    ______ ____
ROOT
ATOM      1  C   UNL     1      -1.067  -4.632   2.682  0.00  0.00    +0.137 A 
ATOM      2  C   UNL     1      -1.122  -5.988   2.990  0.00  0.00    +0.198 A 
ATOM      3  C   UNL     1       0.074  -6.694   3.075  0.00  0.00    +0.156 A 
ATOM      4  N   UNL     1       1.220  -6.050   2.860  0.00  0.00    -0.218 NA
ATOM      5  C   UNL     1       1.231  -4.765   2.570  0.00  0.00    +0.224 A 
ATOM      6  N   UNL     1       0.120  -4.063   2.476  0.00  0.00    -0.226 NA
ENDROOT
BRANCH   3   7
ATOM      7  N   UNL     1       0.073  -8.046   3.380  0.00  0.00    -0.310 N 
ATOM      8  C   UNL     1      -0.105  -9.051   2.322  0.00  0.00    +0.125 C 
ATOM      9  C   UNL     1       1.077 -10.027   2.370  0.00  0.00    +0.125 C 
ATOM     10  N   UNL     1       1.254 -10.482   3.756  0.00  0.00    -0.314 N 
ATOM     11  C   UNL     1       1.431  -9.477   4.814  0.00  0.00    +0.125 C 
ATOM     12  C   UNL     1       0.256  -8.501   4.765  0.00  0.00    +0.125 C 
ATOM     13  C   UNL     1       1.253 -11.838   4.061  0.00  0.00    +0.099 A 
ATOM     14  C   UNL     1       1.221 -12.776   3.034  0.00  0.00    +0.042 A 
ATOM     15  C   UNL     1       1.220 -14.122   3.352  0.00  0.00    +0.005 A 
ATOM     16  C   UNL     1       1.252 -14.487   4.692  0.00  0.00    +0.018 A 
ATOM     17  C   UNL     1       1.282 -13.503   5.660  0.00  0.00    +0.084 A 
ATOM     18  N   UNL     1       1.287 -12.226   5.327  0.00  0.00    -0.350 N 
ATOM     19  H   UNL     1       1.313 -11.555   6.027  0.00  0.00    +0.166 HD
ENDBRANCH   3   7
BRANCH   2  20
ATOM     20  N   UNL     1      -2.420  -6.663   3.222  0.00  0.00    +0.062 N 
ATOM     21  O   UNL     1      -2.970  -7.244   2.315  0.00  0.00    -0.126 OA
ATOM     22  O   UNL     1      -2.929  -6.633   4.318  0.00  0.00    -0.126 OA
ENDBRANCH   2  20
BRANCH   1  23
ATOM     23  S   UNL     1      -2.547  -3.683   2.559  0.00  0.00    -0.068 S 
BRANCH  23  28
ATOM     24  C   UNL     1      -0.655   1.737   0.694  0.00  0.00    +0.044 C 
ATOM     25  C   UNL     1      -1.127   0.384   1.159  0.00  0.00    -0.050 A 
ATOM     26  C   UNL     1      -1.372  -0.616   0.236  0.00  0.00    +0.004 A 
ATOM     27  C   UNL     1      -1.805  -1.857   0.659  0.00  0.00    +0.015 A 
ATOM     28  C   UNL     1      -1.994  -2.100   2.014  0.00  0.00    +0.014 A 
ATOM     29  C   UNL     1      -1.746  -1.093   2.939  0.00  0.00    +0.015 A 
ATOM     30  C   UNL     1      -1.309   0.144   2.509  0.00  0.00    +0.004 A 
ENDBRANCH  23  28
ENDBRANCH   1  23
TORSDOF 4
