REMARK  Name = ZINC62724170
REMARK  4 active torsions:
REMARK  status: ('A' for Active; 'I' for Inactive)
REMARK    1  A    between atoms: C_1  and  C_2
REMARK    2  A    between atoms: C_3  and  N_17
REMARK    3  A    between atoms: C_7  and  N_8
REMARK    4  A    between atoms: N_8  and  C_9
REMARK                            x       y       z     vdW  Elec       q    Type
REMARK                         _______ _______ _______ _____ _____    ______ ____
ROOT
ATOM      1  C   UNL     1      -0.018   1.503   0.010  0.00  0.00    +0.047 C 
ATOM      2  C   UNL     1       0.002  -0.004   0.002  0.00  0.00    -0.009 A 
ATOM      3  C   UNL     1       0.006  -0.693  -1.203  0.00  0.00    +0.029 A 
ATOM      4  C   UNL     1       0.025  -2.082  -1.207  0.00  0.00    +0.023 A 
ATOM      5  C   UNL     1       0.040  -2.778  -0.013  0.00  0.00    +0.004 A 
ATOM      6  C   UNL     1       0.035  -2.096   1.188  0.00  0.00    +0.023 A 
ATOM      7  C   UNL     1       0.023  -0.706   1.199  0.00  0.00    +0.032 A 
ENDROOT
BRANCH   3   8
ATOM      8  N   UNL     1      -0.010   0.009  -2.410  0.00  0.00    -0.358 N 
ATOM      9  H   UNL     1      -0.023   0.979  -2.406  0.00  0.00    +0.142 HD
ATOM     10  H   UNL     1      -0.007  -0.472  -3.252  0.00  0.00    +0.142 HD
ENDBRANCH   3   8
BRANCH   7  11
ATOM     11  N   UNL     1       0.026  -0.016   2.413  0.00  0.00    -0.339 N 
ATOM     12  H   UNL     1       0.013   0.954   2.421  0.00  0.00    +0.146 HD
BRANCH  11  13
ATOM     13  C   UNL     1       0.048  -0.758   3.677  0.00  0.00    +0.093 C 
ATOM     14  C   UNL     1       1.502  -1.095   4.045  0.00  0.00    +0.046 C 
ATOM     15  C   UNL     1       1.525  -1.594   5.518  0.00  0.00    +0.168 C 
ATOM     16  S   UNL     1       0.334  -0.420   6.290  0.00  0.00    -0.029 S 
ATOM     17  O   UNL     1       1.050   0.694   6.805  0.00  0.00    -0.174 OA
ATOM     18  O   UNL     1      -0.541  -1.144   7.145  0.00  0.00    -0.174 OA
ATOM     19  C   UNL     1      -0.591   0.106   4.791  0.00  0.00    +0.188 C 
ENDBRANCH  11  13
ENDBRANCH   7  11
TORSDOF 3
