REMARK  Name = ZINC16809100
REMARK  9 active torsions:
REMARK  status: ('A' for Active; 'I' for Inactive)
REMARK    1  A    between atoms: C_1  and  C_2
REMARK    2  A    between atoms: C_2  and  C_3
REMARK    3  A    between atoms: C_3  and  C_5
REMARK    4  A    between atoms: C_3  and  O_14
REMARK    5  A    between atoms: C_10  and  C_13
REMARK    6  A    between atoms: O_14  and  C_15
REMARK    7  A    between atoms: C_15  and  C_17
REMARK    8  A    between atoms: C_17  and  C_18
REMARK    9  A    between atoms: C_18  and  C_19
REMARK                            x       y       z     vdW  Elec       q    Type
REMARK                         _______ _______ _______ _____ _____    ______ ____
ROOT
ATOM      1  C   UNL     1       2.479   4.147   0.001  0.00  0.00    +0.128 C 
ENDROOT
BRANCH   1   2
ATOM      2  C   UNL     1       2.408   5.652   0.010  0.00  0.00    +0.308 C 
ATOM      3  O   UNL     1       1.334   6.206   0.023  0.00  0.00    -0.251 OA
BRANCH   2   4
ATOM      4  O   UNL     1       3.537   6.378   0.003  0.00  0.00    -0.452 OA
BRANCH   4   5
ATOM      5  C   UNL     1       3.393   7.823   0.012  0.00  0.00    +0.262 C 
BRANCH   5   6
ATOM      6  C   UNL     1       4.560   8.449  -0.706  0.00  0.00    +0.259 C 
ATOM      7  O   UNL     1       5.428   7.747  -1.179  0.00  0.00    -0.271 OA
ATOM      8  N   UNL     1       4.639   9.789  -0.823  0.00  0.00    -0.265 N 
ATOM      9  C   UNL     1       5.720  10.369  -1.488  0.00  0.00    +0.168 A 
ATOM     10  C   UNL     1       6.811   9.691  -2.093  0.00  0.00    +0.091 A 
ATOM     11  C   UNL     1       7.576  10.688  -2.595  0.00  0.00    +0.136 A 
ATOM     12  O   UNL     1       6.956  11.837  -2.291  0.00  0.00    -0.358 OA
ATOM     13  N   UNL     1       5.928  11.645  -1.683  0.00  0.00    -0.063 NA
ATOM     14  C   UNL     1       8.872  10.536  -3.349  0.00  0.00    +0.089 C 
ATOM     15  H   UNL     1       3.945  10.351  -0.444  0.00  0.00    +0.156 HD
ENDBRANCH   5   6
BRANCH   5  17
ATOM     16  C   UNL     1       2.102   7.785   2.151  0.00  0.00    +0.008 C 
ATOM     17  C   UNL     1       3.356   8.322   1.458  0.00  0.00    +0.051 C 
ENDBRANCH   5  17
ENDBRANCH   4   5
ENDBRANCH   2   4
ENDBRANCH   1   2
BRANCH   1  18
ATOM     18  C   UNL     1       1.062   3.569   0.011  0.00  0.00    +0.085 C 
BRANCH  18  19
ATOM     19  C   UNL     1       1.134   2.064   0.002  0.00  0.00    +0.111 A 
ATOM     20  N   UNL     1      -0.016   1.342   0.009  0.00  0.00    -0.310 N 
ATOM     21  H   UNL     1      -0.868   1.805   0.016  0.00  0.00    +0.170 HD
ATOM     22  C   UNL     1       0.002  -0.004   0.002  0.00  0.00    +0.260 A 
ATOM     23  O   UNL     1      -1.039  -0.638   0.008  0.00  0.00    -0.267 OA
ATOM     24  C   UNL     1       1.266  -0.679  -0.014  0.00  0.00    +0.075 A 
ATOM     25  C   UNL     1       1.527  -2.118  -0.024  0.00  0.00    -0.023 A 
ATOM     26  C   UNL     1       2.820  -2.506  -0.038  0.00  0.00    -0.004 A 
ATOM     27  S   UNL     1       3.752  -0.998  -0.039  0.00  0.00    -0.073 S 
ATOM     28  C   UNL     1       2.398   0.151  -0.020  0.00  0.00    +0.116 A 
ATOM     29  N   UNL     1       2.301   1.477  -0.012  0.00  0.00    -0.227 NA
ATOM     30  C   UNL     1       3.347  -3.908  -0.049  0.00  0.00    +0.043 C 
ATOM     31  C   UNL     1       2.203  -4.859   0.333  0.00  0.00    +0.005 C 
ATOM     32  C   UNL     1       0.965  -4.493  -0.491  0.00  0.00    +0.005 C 
ATOM     33  C   UNL     1       0.404  -3.151  -0.019  0.00  0.00    +0.037 C 
ENDBRANCH  18  19
ENDBRANCH   1  18
TORSDOF 7
