REMARK  Name = ZINC21532074
REMARK  10 active torsions:
REMARK  status: ('A' for Active; 'I' for Inactive)
REMARK    1  A    between atoms: C_1  and  N_2
REMARK    2  A    between atoms: N_2  and  C_3
REMARK    3  A    between atoms: N_2  and  S_17
REMARK    4  A    between atoms: C_3  and  C_4
REMARK    5  A    between atoms: N_6  and  C_7
REMARK    6  A    between atoms: C_9  and  O_15
REMARK    7  A    between atoms: C_11  and  O_13
REMARK    8  A    between atoms: O_13  and  C_14
REMARK    9  A    between atoms: O_15  and  C_16
REMARK   10  A    between atoms: S_17  and  C_20
REMARK                            x       y       z     vdW  Elec       q    Type
REMARK                         _______ _______ _______ _____ _____    ______ ____
ROOT
ATOM      1  C   UNL     1      -5.190  -0.268   2.256  0.00  0.00    +0.132 C 
ATOM      2  N   UNL     1      -4.349  -1.238   1.550  0.00  0.00    -0.171 NA
ENDROOT
BRANCH   2   3
ATOM      3  S   UNL     1      -3.929  -0.974  -0.030  0.00  0.00    +0.061 S 
ATOM      4  O   UNL     1      -4.919  -0.113  -0.576  0.00  0.00    -0.153 OA
ATOM      5  O   UNL     1      -3.634  -2.246  -0.590  0.00  0.00    -0.153 OA
BRANCH   3   6
ATOM      6  C   UNL     1      -2.419  -0.065  -0.022  0.00  0.00    +0.106 A 
ATOM      7  C   UNL     1      -2.438   1.319  -0.012  0.00  0.00    +0.030 A 
ATOM      8  C   UNL     1      -1.253   2.012  -0.010  0.00  0.00    +0.025 A 
ATOM      9  C   UNL     1      -0.014   1.348  -0.020  0.00  0.00    +0.037 A 
ATOM     10  C   UNL     1      -0.001  -0.030  -0.021  0.00  0.00    -0.024 A 
ATOM     11  C   UNL     1      -1.212  -0.724  -0.026  0.00  0.00    +0.034 A 
ATOM     12  C   UNL     1       1.227  -0.881  -0.014  0.00  0.00    +0.037 C 
ATOM     13  C   UNL     1       2.381  -0.351   0.779  0.00  0.00    +0.014 C 
ATOM     14  C   UNL     1       3.136   0.752   0.078  0.00  0.00    +0.096 C 
ATOM     15  C   UNL     1       2.375   2.029   0.072  0.00  0.00    +0.217 C 
ATOM     16  O   UNL     1       3.027   3.046   0.178  0.00  0.00    -0.275 OA
ATOM     17  N   UNL     1       1.085   2.175  -0.035  0.00  0.00    -0.285 N 
ATOM     18  H   UNL     1       0.955   3.260  -0.164  0.00  0.00    +0.155 HD
ENDBRANCH   3   6
ENDBRANCH   2   3
BRANCH   2  19
ATOM     19  C   UNL     1      -3.881  -2.441   2.241  0.00  0.00    +0.205 C 
BRANCH  19  20
ATOM     20  C   UNL     1      -2.621  -2.123   3.005  0.00  0.00    +0.233 C 
ATOM     21  O   UNL     1      -2.160  -1.002   2.975  0.00  0.00    -0.274 OA
ATOM     22  N   UNL     1      -2.007  -3.085   3.722  0.00  0.00    -0.284 N 
ATOM     23  H   UNL     1      -2.465  -4.081   3.812  0.00  0.00    +0.155 HD
BRANCH  22  24
ATOM     24  C   UNL     1      -0.787  -2.816   4.353  0.00  0.00    +0.040 A 
ATOM     25  C   UNL     1       0.177  -3.810   4.452  0.00  0.00    +0.069 A 
ATOM     26  C   UNL     1       1.388  -3.542   5.072  0.00  0.00    +0.125 A 
ATOM     27  C   UNL     1       1.632  -2.284   5.602  0.00  0.00    +0.091 A 
ATOM     28  C   UNL     1       0.667  -1.292   5.508  0.00  0.00    +0.125 A 
ATOM     29  C   UNL     1      -0.542  -1.557   4.884  0.00  0.00    +0.069 A 
BRANCH  28  30
ATOM     30  O   UNL     1       0.907  -0.059   6.028  0.00  0.00    -0.495 OA
ATOM     31  C   UNL     1       2.174   0.144   6.657  0.00  0.00    +0.277 C 
ENDBRANCH  28  30
BRANCH  26  32
ATOM     32  O   UNL     1       2.333  -4.513   5.165  0.00  0.00    -0.495 OA
ATOM     33  C   UNL     1       3.555  -4.169   5.822  0.00  0.00    +0.277 C 
ENDBRANCH  26  32
ENDBRANCH  22  24
ENDBRANCH  19  20
ENDBRANCH   2  19
TORSDOF 7
