REMARK  Name = ZINC64079102
REMARK  7 active torsions:
REMARK  status: ('A' for Active; 'I' for Inactive)
REMARK    1  A    between atoms: C_1  and  C_2
REMARK    2  A    between atoms: C_2  and  C_3
REMARK    3  A    between atoms: C_3  and  C_4
REMARK    4  A    between atoms: C_4  and  C_5
REMARK    5  A    between atoms: C_7  and  N_11
REMARK    6  A    between atoms: C_12  and  C_14
REMARK    7  A    between atoms: C_16  and  C_28
REMARK                            x       y       z     vdW  Elec       q    Type
REMARK                         _______ _______ _______ _____ _____    ______ ____
ROOT
ATOM      1  C   UNL     1       5.788  -5.915  -3.931  0.00  0.00    +0.068 A 
ATOM      2  C   UNL     1       6.052  -6.029  -5.298  0.00  0.00    +0.038 A 
ATOM      3  C   UNL     1       7.091  -6.837  -5.724  0.00  0.00    +0.041 A 
ATOM      4  N   UNL     1       7.842  -7.501  -4.869  0.00  0.00    -0.233 NA
ATOM      5  C   UNL     1       7.646  -7.431  -3.565  0.00  0.00    +0.161 A 
ATOM      6  C   UNL     1       6.610  -6.635  -3.040  0.00  0.00    +0.120 A 
ATOM      7  N   UNL     1       6.648  -6.762  -1.700  0.00  0.00    -0.230 NA
ATOM      8  C   UNL     1       7.623  -7.559  -1.359  0.00  0.00    +0.112 A 
ATOM      9  N   UNL     1       8.270  -7.997  -2.474  0.00  0.00    -0.312 N 
ATOM     10  C   UNL     1       9.434  -8.886  -2.509  0.00  0.00    +0.125 C 
ATOM     11  C   UNL     1       9.412  -9.809  -1.288  0.00  0.00    +0.022 C 
ATOM     12  C   UNL     1      10.156  -9.145  -0.130  0.00  0.00    +0.002 C 
ATOM     13  C   UNL     1       9.472  -7.839   0.262  0.00  0.00    +0.008 C 
ATOM     14  C   UNL     1       7.975  -7.951   0.057  0.00  0.00    +0.074 C 
ATOM     15  C   UNL     1       7.370  -6.960  -7.200  0.00  0.00    +0.065 C 
ENDROOT
BRANCH   1  17
ATOM     16  N   UNL     1       3.916  -4.384  -4.306  0.00  0.00    -0.267 N 
ATOM     17  C   UNL     1       4.689  -5.063  -3.435  0.00  0.00    +0.252 C 
ATOM     18  O   UNL     1       4.480  -4.973  -2.241  0.00  0.00    -0.270 OA
ATOM     19  H   UNL     1       4.083  -4.455  -5.260  0.00  0.00    +0.157 HD
BRANCH  16  22
ATOM     20  C   UNL     1       1.444  -2.513  -2.505  0.00  0.00    +0.065 A 
ATOM     21  C   UNL     1       2.534  -3.388  -2.535  0.00  0.00    +0.068 A 
ATOM     22  C   UNL     1       2.879  -3.580  -3.838  0.00  0.00    +0.121 A 
ATOM     23  N   UNL     1       2.027  -2.844  -4.598  0.00  0.00    -0.264 N 
ATOM     24  H   UNL     1       2.032  -2.784  -5.567  0.00  0.00    +0.190 HD
ATOM     25  N   UNL     1       1.137  -2.192  -3.736  0.00  0.00    -0.177 NA
BRANCH  20  26
ATOM     26  C   UNL     1       0.739  -2.027  -1.265  0.00  0.00    +0.057 C 
BRANCH  26  27
ATOM     27  C   UNL     1       0.718  -0.497  -1.257  0.00  0.00    +0.006 C 
BRANCH  27  29
ATOM     28  C   UNL     1      -0.019   1.526   0.010  0.00  0.00    +0.004 C 
ATOM     29  C   UNL     1       0.002  -0.004   0.002  0.00  0.00    -0.003 C 
ENDBRANCH  27  29
ENDBRANCH  26  27
ENDBRANCH  20  26
ENDBRANCH  16  22
ENDBRANCH   1  17
TORSDOF 5
