REMARK  Name = ZINC06530538
REMARK  7 active torsions:
REMARK  status: ('A' for Active; 'I' for Inactive)
REMARK    1  A    between atoms: C_1  and  C_2
REMARK    2  A    between atoms: N_7  and  C_9
REMARK    3  A    between atoms: C_9  and  C_10
REMARK    4  A    between atoms: N_14  and  C_15
REMARK    5  A    between atoms: C_15  and  C_16
REMARK    6  A    between atoms: N_28  and  C_33
REMARK    7  A    between atoms: N_31  and  C_32
REMARK                            x       y       z     vdW  Elec       q    Type
REMARK                         _______ _______ _______ _____ _____    ______ ____
ROOT
ATOM      1  C   UNL     1       1.639  -2.978   1.736  0.00  0.00    +0.096 A 
ATOM      2  N   UNL     1       0.584  -3.327   2.427  0.00  0.00    -0.216 NA
ATOM      3  C   UNL     1       0.715  -4.588   2.847  0.00  0.00    +0.168 A 
ATOM      4  C   UNL     1       1.939  -5.052   2.381  0.00  0.00    +0.152 A 
ATOM      5  N   UNL     1       2.503  -4.009   1.674  0.00  0.00    -0.319 N 
ATOM      6  C   UNL     1       2.334  -6.372   2.685  0.00  0.00    +0.282 A 
ATOM      7  O   UNL     1       3.403  -6.802   2.289  0.00  0.00    -0.265 OA
ATOM      8  N   UNL     1       1.515  -7.153   3.419  0.00  0.00    -0.262 N 
ATOM      9  C   UNL     1       0.333  -6.691   3.863  0.00  0.00    +0.333 A 
ATOM     10  O   UNL     1      -0.380  -7.424   4.522  0.00  0.00    -0.246 OA
ATOM     11  N   UNL     1      -0.082  -5.439   3.596  0.00  0.00    -0.280 N 
ATOM     12  C   UNL     1      -1.377  -4.974   4.099  0.00  0.00    +0.155 C 
ATOM     13  C   UNL     1       1.919  -8.525   3.738  0.00  0.00    +0.157 C 
ENDROOT
BRANCH   1  14
ATOM     14  C   UNL     1       1.852  -1.628   1.100  0.00  0.00    -0.003 C 
BRANCH  14  20
ATOM     15  C   UNL     1       1.461   0.923  -3.060  0.00  0.00    +0.005 C 
ATOM     16  C   UNL     1       1.127  -0.403  -2.372  0.00  0.00    -0.031 C 
ATOM     17  C   UNL     1      -0.390  -0.615  -2.380  0.00  0.00    -0.001 C 
ATOM     18  C   UNL     1      -0.718  -1.904  -1.621  0.00  0.00    -0.018 C 
ATOM     19  C   UNL     1      -0.152  -1.813  -0.202  0.00  0.00    -0.078 C 
ATOM     20  N   UNL     1       1.304  -1.637  -0.263  0.00  0.00    +0.385 N 
ATOM     21  C   UNL     1       1.626  -0.367  -0.926  0.00  0.00    -0.075 C 
ATOM     22  H   UNL     1       1.713  -2.399  -0.782  0.00  0.00    -0.081 HD
ENDBRANCH  14  20
ENDBRANCH   1  14
BRANCH   5  23
ATOM     23  C   UNL     1       3.798  -4.021   0.988  0.00  0.00    +0.159 C 
BRANCH  23  24
ATOM     24  C   UNL     1       4.891  -3.697   1.973  0.00  0.00    -0.020 A 
ATOM     25  C   UNL     1       4.921  -2.483   2.587  0.00  0.00    +0.006 A 
ATOM     26  C   UNL     1       5.924  -2.165   3.500  0.00  0.00    +0.001 A 
ATOM     27  C   UNL     1       6.904  -3.059   3.804  0.00  0.00    +0.008 A 
ATOM     28  C   UNL     1       6.906  -4.323   3.191  0.00  0.00    -0.018 A 
ATOM     29  C   UNL     1       5.882  -4.649   2.266  0.00  0.00    -0.013 A 
ATOM     30  C   UNL     1       5.882  -5.915   1.657  0.00  0.00    +0.009 A 
ATOM     31  C   UNL     1       6.858  -6.812   1.966  0.00  0.00    +0.001 A 
ATOM     32  C   UNL     1       7.861  -6.494   2.880  0.00  0.00    +0.001 A 
ATOM     33  C   UNL     1       7.902  -5.273   3.479  0.00  0.00    +0.008 A 
ENDBRANCH  23  24
ENDBRANCH   5  23
TORSDOF 4
