REMARK  Name = ZINC43189941
REMARK  9 active torsions:
REMARK  status: ('A' for Active; 'I' for Inactive)
REMARK    1  A    between atoms: C_1  and  C_2
REMARK    2  A    between atoms: C_2  and  C_3
REMARK    3  A    between atoms: C_2  and  C_4
REMARK    4  A    between atoms: C_2  and  N_23
REMARK    5  A    between atoms: C_4  and  N_5
REMARK    6  A    between atoms: N_11  and  C_14
REMARK    7  A    between atoms: C_14  and  C_15
REMARK    8  A    between atoms: N_23  and  C_24
REMARK    9  A    between atoms: N_23  and  C_25
REMARK                            x       y       z     vdW  Elec       q    Type
REMARK                         _______ _______ _______ _____ _____    ______ ____
ROOT
ATOM      1  N   UNL     1      -1.413  -1.998   0.005  0.00  0.00    -0.301 N 
ATOM      2  C   UNL     1      -2.571  -2.688   0.012  0.00  0.00    +0.302 C 
ATOM      3  O   UNL     1      -3.630  -2.099   0.117  0.00  0.00    -0.253 OA
ATOM      4  N   UNL     1      -2.556  -4.031  -0.097  0.00  0.00    -0.283 N 
ATOM      5  C   UNL     1      -1.287  -4.774  -0.109  0.00  0.00    +0.124 C 
ATOM      6  C   UNL     1      -1.282  -5.710  -1.322  0.00  0.00    +0.104 C 
ATOM      7  N   UNL     1      -2.490  -6.546  -1.296  0.00  0.00    -0.291 NA
ATOM      8  C   UNL     1      -3.705  -5.729  -1.416  0.00  0.00    +0.104 C 
ATOM      9  C   UNL     1      -3.809  -4.795  -0.201  0.00  0.00    +0.124 C 
ATOM     10  H   UNL     1      -0.567  -2.472  -0.005  0.00  0.00    +0.150 HD
ENDROOT
BRANCH   1  11
ATOM     11  C   UNL     1      -1.433  -0.534   0.011  0.00  0.00    +0.093 C 
BRANCH  11  13
ATOM     12  C   UNL     1      -0.019   1.526   0.007  0.00  0.00    -0.008 C 
ATOM     13  C   UNL     1       0.002  -0.004   0.000  0.00  0.00    -0.056 C 
ATOM     14  C   UNL     1       0.741  -0.509   1.241  0.00  0.00    -0.008 C 
BRANCH  13  15
ATOM     15  N   UNL     1       0.690  -0.479  -1.207  0.00  0.00    +0.380 N 
ATOM     16  C   UNL     1      -0.019   0.006  -2.398  0.00  0.00    -0.096 C 
ATOM     17  C   UNL     1       2.068   0.029  -1.218  0.00  0.00    -0.096 C 
ATOM     18  H   UNL     1       0.704  -1.488  -1.212  0.00  0.00    -0.082 HD
ENDBRANCH  13  15
ENDBRANCH  11  13
ENDBRANCH   1  11
BRANCH   7  19
ATOM     19  C   UNL     1      -2.441  -7.574  -2.344  0.00  0.00    +0.180 C 
BRANCH  19  20
ATOM     20  C   UNL     1      -3.564  -8.557  -2.136  0.00  0.00    +0.230 C 
ATOM     21  O   UNL     1      -4.329  -8.415  -1.206  0.00  0.00    -0.274 OA
ATOM     22  N   UNL     1      -3.717  -9.594  -2.983  0.00  0.00    -0.300 N 
ATOM     23  C   UNL     1      -2.794  -9.783  -4.111  0.00  0.00    +0.108 C 
ATOM     24  C   UNL     1      -2.226 -11.205  -4.051  0.00  0.00    +0.019 C 
ATOM     25  C   UNL     1      -3.381 -12.209  -4.009  0.00  0.00    +0.003 C 
ATOM     26  C   UNL     1      -4.221 -11.971  -2.752  0.00  0.00    +0.019 C 
ATOM     27  C   UNL     1      -4.807 -10.561  -2.793  0.00  0.00    +0.108 C 
ENDBRANCH  19  20
ENDBRANCH   7  19
TORSDOF 5
