REMARK  Name = ZINC50655326
REMARK  7 active torsions:
REMARK  status: ('A' for Active; 'I' for Inactive)
REMARK    1  A    between atoms: C_1  and  C_2
REMARK    2  A    between atoms: C_2  and  C_4
REMARK    3  A    between atoms: C_2  and  N_10
REMARK    4  A    between atoms: N_10  and  S_11
REMARK    5  A    between atoms: S_11  and  C_14
REMARK    6  A    between atoms: C_16  and  N_21
REMARK    7  A    between atoms: C_19  and  N_20
REMARK                            x       y       z     vdW  Elec       q    Type
REMARK                         _______ _______ _______ _____ _____    ______ ____
ROOT
ATOM      1  S   UNL     1      -0.183  -0.955  -2.444  0.00  0.00    +0.061 S 
ATOM      2  O   UNL     1       0.645  -1.536  -3.442  0.00  0.00    -0.153 OA
ATOM      3  O   UNL     1      -1.209  -1.684  -1.785  0.00  0.00    -0.153 OA
ENDROOT
BRANCH   1   4
ATOM      4  C   UNL     1      -0.956   0.445  -3.184  0.00  0.00    +0.128 A 
ATOM      5  C   UNL     1      -2.324   0.613  -3.084  0.00  0.00    +0.063 A 
ATOM      6  C   UNL     1      -2.931   1.711  -3.665  0.00  0.00    +0.128 A 
ATOM      7  C   UNL     1      -2.173   2.644  -4.348  0.00  0.00    +0.034 A 
ATOM      8  C   UNL     1      -0.805   2.483  -4.452  0.00  0.00    +0.027 A 
ATOM      9  C   UNL     1      -0.191   1.384  -3.865  0.00  0.00    +0.051 A 
BRANCH   9  10
ATOM     10  N   UNL     1       1.193   1.220  -3.963  0.00  0.00    -0.356 N 
ATOM     11  H   UNL     1       1.626   0.477  -3.514  0.00  0.00    +0.142 HD
ATOM     12  H   UNL     1       1.720   1.849  -4.480  0.00  0.00    +0.142 HD
ENDBRANCH   9  10
BRANCH   6  13
ATOM     13  N   UNL     1      -4.397   1.887  -3.556  0.00  0.00    +0.056 N 
ATOM     14  O   UNL     1      -5.061   1.072  -2.960  0.00  0.00    -0.126 OA
ATOM     15  O   UNL     1      -4.929   2.847  -4.063  0.00  0.00    -0.126 OA
ENDBRANCH   6  13
ENDBRANCH   1   4
BRANCH   1  16
ATOM     16  N   UNL     1       0.828  -0.387  -1.262  0.00  0.00    -0.185 NA
ATOM     17  H   UNL     1       1.786  -0.515  -1.341  0.00  0.00    +0.148 HD
BRANCH  16  19
ATOM     18  C   UNL     1       0.731   1.769  -0.111  0.00  0.00    +0.028 C 
ATOM     19  C   UNL     1       0.276   0.308  -0.097  0.00  0.00    +0.102 C 
BRANCH  19  20
ATOM     20  C   UNL     1       0.771  -0.368   1.183  0.00  0.00    +0.137 C 
ATOM     21  C   UNL     1       0.460  -1.885   1.144  0.00  0.00    +0.035 C 
ATOM     22  C   UNL     1       1.545  -2.433   2.111  0.00  0.00    +0.031 C 
ATOM     23  C   UNL     1       2.731  -1.481   1.846  0.00  0.00    +0.160 C 
ATOM     24  O   UNL     1       2.202  -0.278   1.273  0.00  0.00    -0.375 OA
ENDBRANCH  19  20
ENDBRANCH  16  19
ENDBRANCH   1  16
TORSDOF 6
