REMARK  Name = ZINC65174183
REMARK  11 active torsions:
REMARK  status: ('A' for Active; 'I' for Inactive)
REMARK    1  A    between atoms: C_1  and  C_2
REMARK    2  A    between atoms: C_2  and  C_4
REMARK    3  A    between atoms: C_2  and  N_20
REMARK    4  A    between atoms: N_6  and  C_7
REMARK    5  A    between atoms: N_6  and  C_8
REMARK    6  A    between atoms: N_11  and  C_14
REMARK    7  A    between atoms: C_21  and  O_23
REMARK    8  A    between atoms: O_23  and  C_24
REMARK    9  A    between atoms: C_24  and  C_25
REMARK   10  A    between atoms: C_24  and  C_26
REMARK   11  A    between atoms: C_24  and  C_27
REMARK                            x       y       z     vdW  Elec       q    Type
REMARK                         _______ _______ _______ _____ _____    ______ ____
ROOT
ATOM      1  C   UNL     1       0.920  -0.317   1.181  0.00  0.00    +0.236 C 
ATOM      2  O   UNL     1       0.454  -0.020   0.102  0.00  0.00    -0.274 OA
ATOM      3  N   UNL     1       0.187  -0.154   2.300  0.00  0.00    -0.300 N 
ATOM      4  C   UNL     1      -1.205   0.290   2.206  0.00  0.00    +0.132 C 
ENDROOT
BRANCH   3   5
ATOM      5  C   UNL     1       0.783  -0.422   3.612  0.00  0.00    +0.072 C 
ATOM      6  C   UNL     1       0.862   0.881   4.414  0.00  0.00    +0.004 C 
ATOM      7  C   UNL     1       1.411   0.581   5.810  0.00  0.00    -0.077 C 
ATOM      8  N   UNL     1       0.523  -0.365   6.497  0.00  0.00    +0.382 N 
ATOM      9  C   UNL     1       0.499  -1.641   5.772  0.00  0.00    -0.077 C 
ATOM     10  C   UNL     1      -0.085  -1.427   4.374  0.00  0.00    +0.004 C 
ATOM     11  H   UNL     1      -0.409   0.018   6.534  0.00  0.00    -0.081 HD
BRANCH   8  12
ATOM     12  C   UNL     1       1.012  -0.589   7.864  0.00  0.00    -0.064 C 
ATOM     13  C   UNL     1       0.081  -1.567   8.586  0.00  0.00    +0.013 C 
ATOM     14  C   UNL     1       0.553  -1.734  10.033  0.00  0.00    +0.158 C 
ATOM     15  O   UNL     1       0.576  -0.458  10.675  0.00  0.00    -0.380 OA
ATOM     16  C   UNL     1       1.465   0.484  10.071  0.00  0.00    +0.158 C 
ATOM     17  C   UNL     1       1.030   0.739   8.626  0.00  0.00    +0.013 C 
ENDBRANCH   8  12
ENDBRANCH   3   5
BRANCH   1  19
ATOM     18  C   UNL     1       2.260  -2.387   1.444  0.00  0.00    +0.038 C 
ATOM     19  C   UNL     1       2.320  -0.868   1.271  0.00  0.00    +0.159 C 
BRANCH  19  20
ATOM     20  N   UNL     1       3.051  -0.545   0.043  0.00  0.00    -0.270 N 
ATOM     21  C   UNL     1       4.397  -0.467   0.061  0.00  0.00    +0.401 C 
ATOM     22  O   UNL     1       5.003  -0.664   1.096  0.00  0.00    -0.226 OA
ATOM     23  H   UNL     1       2.567  -0.388  -0.782  0.00  0.00    +0.153 HD
BRANCH  21  24
ATOM     24  O   UNL     1       5.069  -0.170  -1.067  0.00  0.00    -0.445 OA
BRANCH  24  25
ATOM     25  C   UNL     1       6.494  -0.104  -0.975  0.00  0.00    +0.107 C 
ATOM     26  C   UNL     1       7.039  -1.458  -0.515  0.00  0.00    +0.055 C 
ATOM     27  C   UNL     1       7.078   0.242  -2.346  0.00  0.00    +0.055 C 
ATOM     28  C   UNL     1       6.889   0.975   0.035  0.00  0.00    +0.055 C 
ENDBRANCH  24  25
ENDBRANCH  21  24
ENDBRANCH  19  20
ENDBRANCH   1  19
TORSDOF 6
