REMARK  Name = ZINC06491525
REMARK  6 active torsions:
REMARK  status: ('A' for Active; 'I' for Inactive)
REMARK    1  A    between atoms: C_1  and  C_2
REMARK    2  A    between atoms: C_7  and  N_8
REMARK    3  A    between atoms: C_9  and  C_11
REMARK    4  A    between atoms: C_11  and  C_13
REMARK    5  A    between atoms: C_14  and  O_25
REMARK    6  A    between atoms: C_23  and  O_24
REMARK                            x       y       z     vdW  Elec       q    Type
REMARK                         _______ _______ _______ _____ _____    ______ ____
ROOT
ATOM      1  C   UNL     1       2.604   4.124   0.009  0.00  0.00    +0.149 A 
ATOM      2  C   UNL     1       3.120   4.461  -1.264  0.00  0.00    +0.145 A 
ATOM      3  C   UNL     1       4.382   5.092  -1.327  0.00  0.00    +0.060 A 
ATOM      4  C   UNL     1       4.942   5.450  -2.567  0.00  0.00    +0.019 A 
ATOM      5  C   UNL     1       6.157   6.054  -2.614  0.00  0.00    +0.052 A 
ATOM      6  C   UNL     1       6.860   6.328  -1.426  0.00  0.00    +0.183 A 
ATOM      7  O   UNL     1       8.051   6.922  -1.482  0.00  0.00    -0.288 OA
ATOM      8  C   UNL     1       6.315   5.977  -0.186  0.00  0.00    +0.097 A 
ATOM      9  C   UNL     1       5.081   5.361  -0.128  0.00  0.00    +0.146 A 
ATOM     10  O   UNL     1       4.546   5.020   1.064  0.00  0.00    -0.424 OA
ATOM     11  C   UNL     1       3.352   4.427   1.154  0.00  0.00    +0.299 A 
ENDROOT
BRANCH   1  12
ATOM     12  C   UNL     1       1.299   3.469   0.128  0.00  0.00    +0.258 C 
ATOM     13  O   UNL     1       0.302   4.134   0.329  0.00  0.00    -0.281 OA
BRANCH  12  15
ATOM     14  N   UNL     1      -0.016   1.393   0.012  0.00  0.00    -0.279 N 
ATOM     15  C   UNL     1       1.194   1.986   0.004  0.00  0.00    +0.289 C 
ATOM     16  O   UNL     1       2.199   1.314  -0.106  0.00  0.00    -0.266 OA
ATOM     17  H   UNL     1      -0.821   1.934   0.030  0.00  0.00    +0.155 HD
BRANCH  14  24
ATOM     18  C   UNL     1      -2.149   0.171   1.444  0.00  0.00    +0.045 C 
ATOM     19  C   UNL     1      -1.137  -0.639   0.676  0.00  0.00    -0.029 A 
ATOM     20  C   UNL     1      -1.228  -2.017   0.652  0.00  0.00    +0.005 A 
ATOM     21  C   UNL     1      -0.299  -2.761  -0.053  0.00  0.00    +0.000 A 
ATOM     22  C   UNL     1       0.723  -2.128  -0.737  0.00  0.00    +0.002 A 
ATOM     23  C   UNL     1       0.817  -0.751  -0.722  0.00  0.00    +0.023 A 
ATOM     24  C   UNL     1      -0.111  -0.001  -0.009  0.00  0.00    +0.037 A 
ENDBRANCH  14  24
ENDBRANCH  12  15
ENDBRANCH   1  12
BRANCH  11  25
ATOM     25  O   UNL     1       2.862   4.112   2.365  0.00  0.00    -0.479 OA
ATOM     26  H   UNL     1       3.144   3.270   2.748  0.00  0.00    +0.295 HD
ENDBRANCH  11  25
BRANCH   2  27
ATOM     27  O   UNL     1       2.425   4.189  -2.387  0.00  0.00    -0.505 OA
ATOM     28  H   UNL     1       1.817   4.872  -2.703  0.00  0.00    +0.292 HD
ENDBRANCH   2  27
TORSDOF 5
