REMARK  Name = ZINC13786952
REMARK  2 active torsions:
REMARK  status: ('A' for Active; 'I' for Inactive)
REMARK    1  A    between atoms: C_3  and  N_8
REMARK    2  A    between atoms: C_13  and  C_14
REMARK                            x       y       z     vdW  Elec       q    Type
REMARK                         _______ _______ _______ _____ _____    ______ ____
ROOT
ATOM      1  N   UNL     1       3.563   2.105  -0.021  0.00  0.00    -0.226 NA
ATOM      2  C   UNL     1       4.547   1.744   0.773  0.00  0.00    +0.166 C 
ATOM      3  N   UNL     1       4.585   0.698   1.669  0.00  0.00    -0.260 N 
ATOM      4  C   UNL     1       5.666   0.474   2.396  0.00  0.00    +0.256 C 
ATOM      5  C   UNL     1       6.806   1.383   2.200  0.00  0.00    +0.078 C 
ATOM      6  C   UNL     1       8.027   1.383   2.806  0.00  0.00    +0.035 C 
ATOM      7  S   UNL     1       6.163   2.482   0.947  0.00  0.00    -0.049 S 
ATOM      8  O   UNL     1       5.717  -0.445   3.194  0.00  0.00    -0.269 OA
ATOM      9  H   UNL     1       3.811   0.122   1.769  0.00  0.00    +0.157 HD
ENDROOT
BRANCH   1  12
ATOM     10  C   UNL     1      -0.017   1.379   0.010  0.00  0.00    +0.003 A 
ATOM     11  C   UNL     1       1.167   2.089   0.002  0.00  0.00    +0.028 A 
ATOM     12  C   UNL     1       2.386   1.407  -0.013  0.00  0.00    +0.068 A 
ATOM     13  C   UNL     1       2.398   0.011  -0.021  0.00  0.00    +0.043 A 
ATOM     14  C   UNL     1       1.207  -0.687  -0.013  0.00  0.00    +0.020 A 
ATOM     15  C   UNL     1       0.002  -0.004   0.002  0.00  0.00    +0.015 A 
ATOM     16 BR   UNL     1       1.220  -2.578  -0.024  0.00  0.00    -0.050 Br
ENDBRANCH   1  12
BRANCH   6  17
ATOM     17  C   UNL     1       8.988   2.362   2.462  0.00  0.00    +0.013 A 
ATOM     18  C   UNL     1      10.278   2.534   2.951  0.00  0.00    +0.015 A 
ATOM     19  C   UNL     1      10.981   3.588   2.417  0.00  0.00    +0.008 A 
ATOM     20  C   UNL     1      10.389   4.368   1.479  0.00  0.00    +0.046 A 
ATOM     21  S   UNL     1       8.863   3.693   1.283  0.00  0.00    -0.097 S 
ENDBRANCH   6  17
TORSDOF 2
