REMARK  Name = ZINC37602858
REMARK  9 active torsions:
REMARK  status: ('A' for Active; 'I' for Inactive)
REMARK    1  A    between atoms: C_1  and  C_2
REMARK    2  A    between atoms: C_10  and  O_22
REMARK    3  A    between atoms: C_13  and  C_15
REMARK    4  A    between atoms: O_22  and  C_23
REMARK    5  A    between atoms: C_23  and  C_24
REMARK    6  A    between atoms: C_26  and  C_29
REMARK    7  A    between atoms: N_31  and  C_32
REMARK    8  A    between atoms: C_32  and  C_33
REMARK    9  A    between atoms: C_33  and  N_34
REMARK                            x       y       z     vdW  Elec       q    Type
REMARK                         _______ _______ _______ _____ _____    ______ ____
ROOT
ATOM      1  C   UNL     1       0.355   0.958   1.535  0.00  0.00    +0.109 C 
ATOM      2  C   UNL     1       0.204  -0.426   0.959  0.00  0.00    +0.213 C 
ATOM      3  O   UNL     1       1.174  -1.145   0.844  0.00  0.00    -0.276 OA
ATOM      4  N   UNL     1      -1.010  -0.866   0.571  0.00  0.00    -0.290 N 
ATOM      5  C   UNL     1      -2.224  -0.068   0.807  0.00  0.00    +0.113 C 
ATOM      6  C   UNL     1      -2.802   0.322  -0.553  0.00  0.00    +0.054 C 
ATOM      7  C   UNL     1      -2.868  -0.871  -1.469  0.00  0.00    -0.040 A 
ATOM      8  C   UNL     1      -3.735  -0.802  -2.554  0.00  0.00    +0.007 A 
ATOM      9  C   UNL     1      -3.839  -1.854  -3.438  0.00  0.00    +0.046 A 
ATOM     10  C   UNL     1      -3.070  -2.994  -3.247  0.00  0.00    +0.121 A 
ATOM     11  C   UNL     1      -2.210  -3.064  -2.165  0.00  0.00    +0.051 A 
ATOM     12  C   UNL     1      -2.112  -2.006  -1.274  0.00  0.00    -0.016 A 
ATOM     13  C   UNL     1      -1.174  -2.156  -0.107  0.00  0.00    +0.137 C 
ENDROOT
BRANCH  13  14
ATOM     14  C   UNL     1       0.167  -2.636  -0.602  0.00  0.00    -0.020 A 
ATOM     15  C   UNL     1       0.885  -1.872  -1.504  0.00  0.00    +0.006 A 
ATOM     16  C   UNL     1       2.114  -2.311  -1.958  0.00  0.00    +0.003 A 
ATOM     17  C   UNL     1       2.627  -3.514  -1.512  0.00  0.00    +0.038 A 
ATOM     18  C   UNL     1       1.909  -4.280  -0.609  0.00  0.00    +0.124 A 
ATOM     19  C   UNL     1       0.680  -3.836  -0.150  0.00  0.00    +0.044 A 
ATOM     20  F   UNL     1       2.409  -5.456  -0.172  0.00  0.00    -0.205 F 
ENDBRANCH  13  14
BRANCH  10  21
ATOM     21  O   UNL     1      -3.163  -4.034  -4.117  0.00  0.00    -0.485 OA
BRANCH  21  22
ATOM     22  C   UNL     1      -4.073  -3.888  -5.209  0.00  0.00    +0.291 C 
BRANCH  22  23
ATOM     23  C   UNL     1      -4.040  -5.131  -6.060  0.00  0.00    +0.116 A 
ATOM     24  N   UNL     1      -4.775  -6.204  -5.947  0.00  0.00    -0.236 NA
ATOM     25  C   UNL     1      -4.581  -7.201  -6.816  0.00  0.00    +0.133 A 
ATOM     26  C   UNL     1      -3.610  -6.997  -7.759  0.00  0.00    +0.080 A 
ATOM     27  S   UNL     1      -3.053  -5.458  -7.378  0.00  0.00    -0.076 S 
BRANCH  25  28
ATOM     28  C   UNL     1      -5.366  -8.446  -6.762  0.00  0.00    +0.263 C 
ATOM     29  O   UNL     1      -5.159  -9.331  -7.571  0.00  0.00    -0.269 OA
ATOM     30  N   UNL     1      -6.314  -8.604  -5.817  0.00  0.00    -0.312 N 
ATOM     31  H   UNL     1      -6.479  -7.899  -5.172  0.00  0.00    +0.149 HD
BRANCH  30  32
ATOM     32  C   UNL     1      -7.094  -9.843  -5.763  0.00  0.00    +0.086 C 
BRANCH  32  33
ATOM     33  C   UNL     1      -8.093  -9.766  -4.607  0.00  0.00    -0.060 C 
BRANCH  33  34
ATOM     34  N   UNL     1      -8.876 -11.008  -4.553  0.00  0.00    +0.381 N 
ATOM     35  C   UNL     1      -8.010 -12.142  -4.138  0.00  0.00    -0.079 C 
ATOM     36  C   UNL     1      -9.023 -13.180  -3.594  0.00  0.00    -0.020 C 
ATOM     37  C   UNL     1     -10.073 -12.298  -2.880  0.00  0.00    -0.020 C 
ATOM     38  C   UNL     1      -9.927 -10.904  -3.518  0.00  0.00    -0.079 C 
ATOM     39  H   UNL     1      -9.291 -11.197  -5.453  0.00  0.00    -0.082 HD
ENDBRANCH  33  34
ENDBRANCH  32  33
ENDBRANCH  30  32
ENDBRANCH  25  28
ENDBRANCH  22  23
ENDBRANCH  21  22
ENDBRANCH  10  21
TORSDOF 8
