REMARK  Name = ZINC63161964
REMARK  8 active torsions:
REMARK  status: ('A' for Active; 'I' for Inactive)
REMARK    1  A    between atoms: C_1  and  C_2
REMARK    2  A    between atoms: C_4  and  C_29
REMARK    3  A    between atoms: C_5  and  N_9
REMARK    4  A    between atoms: C_6  and  C_8
REMARK    5  A    between atoms: C_10  and  C_12
REMARK    6  A    between atoms: C_12  and  N_13
REMARK    7  A    between atoms: N_16  and  C_17
REMARK    8  A    between atoms: C_19  and  C_25
REMARK                            x       y       z     vdW  Elec       q    Type
REMARK                         _______ _______ _______ _____ _____    ______ ____
ROOT
ATOM      1  N   UNL     1       1.063  -7.066   2.143  0.00  0.00    -0.291 N 
ATOM      2  C   UNL     1       1.213  -8.388   2.359  0.00  0.00    +0.304 C 
ATOM      3  O   UNL     1       1.062  -9.175   1.445  0.00  0.00    -0.252 OA
ATOM      4  N   UNL     1       1.530  -8.837   3.590  0.00  0.00    -0.265 N 
ATOM      5  H   UNL     1       1.183  -6.439   2.872  0.00  0.00    +0.151 HD
ATOM      6  H   UNL     1       1.725  -8.207   4.301  0.00  0.00    +0.157 HD
ENDROOT
BRANCH   4   7
ATOM      7  C   UNL     1       1.577 -10.216   3.842  0.00  0.00    +0.100 A 
ATOM      8  C   UNL     1       2.721 -10.793   4.319  0.00  0.00    +0.042 A 
ATOM      9  C   UNL     1       2.741 -12.174   4.564  0.00  0.00    +0.073 A 
ATOM     10  C   UNL     1       1.637 -12.919   4.328  0.00  0.00    +0.098 A 
ATOM     11  N   UNL     1       0.499 -12.347   3.854  0.00  0.00    -0.327 N 
ATOM     12  H   UNL     1      -0.283 -12.898   3.691  0.00  0.00    +0.168 HD
ATOM     13  C   UNL     1       0.442 -11.023   3.613  0.00  0.00    +0.270 A 
ATOM     14  O   UNL     1      -0.589 -10.523   3.192  0.00  0.00    -0.266 OA
BRANCH   9  15
ATOM     15  C   UNL     1       3.993 -12.828   5.089  0.00  0.00    +0.419 C 
ATOM     16  F   UNL     1       3.770 -14.199   5.252  0.00  0.00    -0.166 F 
ATOM     17  F   UNL     1       5.039 -12.630   4.180  0.00  0.00    -0.166 F 
ATOM     18  F   UNL     1       4.333 -12.261   6.322  0.00  0.00    -0.166 F 
ENDBRANCH   9  15
ENDBRANCH   4   7
BRANCH   1  19
ATOM     19  C   UNL     1       0.718  -6.578   0.805  0.00  0.00    +0.202 C 
BRANCH  19  21
ATOM     20  N   UNL     1       0.300  -4.402  -0.294  0.00  0.00    -0.284 N 
ATOM     21  C   UNL     1       0.610  -5.075   0.831  0.00  0.00    +0.234 C 
ATOM     22  O   UNL     1       0.802  -4.471   1.865  0.00  0.00    -0.274 OA
ATOM     23  H   UNL     1       0.069  -4.888  -1.102  0.00  0.00    +0.155 HD
BRANCH  20  28
ATOM     24  C   UNL     1       0.349   1.271  -0.313  0.00  0.00    +0.044 C 
ATOM     25  C   UNL     1       0.336  -0.236  -0.308  0.00  0.00    -0.050 A 
ATOM     26  C   UNL     1       1.117  -0.936  -1.210  0.00  0.00    +0.008 A 
ATOM     27  C   UNL     1       1.107  -2.317  -1.208  0.00  0.00    -0.029 A 
ATOM     28  C   UNL     1       0.313  -3.003  -0.299  0.00  0.00    +0.039 A 
ATOM     29  C   UNL     1      -0.470  -2.297   0.606  0.00  0.00    -0.029 A 
ATOM     30  C   UNL     1      -0.452  -0.916   0.602  0.00  0.00    +0.008 A 
ATOM     31  C   UNL     1      -1.334  -3.038   1.593  0.00  0.00    +0.045 C 
ATOM     32  C   UNL     1       1.958  -3.079  -2.191  0.00  0.00    +0.045 C 
ENDBRANCH  20  28
ENDBRANCH  19  21
ENDBRANCH   1  19
TORSDOF 5
