REMARK  Name = ZINC16372189
REMARK  6 active torsions:
REMARK  status: ('A' for Active; 'I' for Inactive)
REMARK    1  A    between atoms: C_1  and  C_2
REMARK    2  A    between atoms: C_8  and  N_10
REMARK    3  A    between atoms: C_14  and  C_16
REMARK    4  A    between atoms: C_16  and  S_17
REMARK    5  A    between atoms: S_17  and  C_18
REMARK    6  A    between atoms: N_22  and  C_23
REMARK                            x       y       z     vdW  Elec       q    Type
REMARK                         _______ _______ _______ _____ _____    ______ ____
ROOT
ATOM      1  N   UNL     1       0.056  -0.038   2.447  0.00  0.00    -0.296 N 
ATOM      2  C   UNL     1       0.738   0.093   3.602  0.00  0.00    +0.306 C 
ATOM      3  O   UNL     1       1.921  -0.180   3.644  0.00  0.00    -0.252 OA
ATOM      4  N   UNL     1       0.107   0.528   4.711  0.00  0.00    -0.239 N 
ATOM      5  C   UNL     1       0.789   0.659   5.866  0.00  0.00    +0.231 C 
ATOM      6  O   UNL     1       1.969   0.387   5.908  0.00  0.00    -0.274 OA
ATOM      7  H   UNL     1      -0.888   0.180   2.413  0.00  0.00    +0.151 HD
ATOM      8  H   UNL     1      -0.838   0.746   4.678  0.00  0.00    +0.159 HD
ENDROOT
BRANCH   1  15
ATOM      9  C   UNL     1      -0.019   1.526   0.010  0.00  0.00    +0.009 C 
ATOM     10  C   UNL     1       0.002  -0.004   0.002  0.00  0.00    +0.006 C 
ATOM     11  C   UNL     1      -1.433  -0.534   0.013  0.00  0.00    +0.005 C 
ATOM     12  C   UNL     1      -1.413  -2.063   0.004  0.00  0.00    +0.000 C 
ATOM     13  C   UNL     1      -0.673  -2.570   1.244  0.00  0.00    +0.002 C 
ATOM     14  C   UNL     1       0.763  -2.041   1.233  0.00  0.00    +0.022 C 
ATOM     15  C   UNL     1       0.742  -0.511   1.242  0.00  0.00    +0.077 C 
ENDBRANCH   1  15
BRANCH   5  16
ATOM     16  C   UNL     1       0.083   1.145   7.106  0.00  0.00    +0.173 C 
BRANCH  16  17
ATOM     17  S   UNL     1       1.261   1.215   8.484  0.00  0.00    -0.075 S 
BRANCH  17  18
ATOM     18  C   UNL     1       0.297   1.793   9.841  0.00  0.00    +0.210 A 
ATOM     19  N   UNL     1      -0.985   2.089   9.819  0.00  0.00    -0.101 NA
ATOM     20  N   UNL     1      -1.376   2.481  10.977  0.00  0.00    -0.022 NA
ATOM     21  N   UNL     1      -0.393   2.465  11.811  0.00  0.00    -0.043 NA
ATOM     22  N   UNL     1       0.734   2.011  11.103  0.00  0.00    -0.217 N 
BRANCH  22  23
ATOM     23  C   UNL     1       2.091   1.817  11.621  0.00  0.00    +0.112 C 
ATOM     24  C   UNL     1       2.067   0.836  12.812  0.00  0.00    +0.027 C 
ATOM     25  C   UNL     1       3.130   1.398  13.787  0.00  0.00    +0.002 C 
ATOM     26  C   UNL     1       2.939   2.930  13.657  0.00  0.00    +0.002 C 
ATOM     27  C   UNL     1       2.645   3.148  12.158  0.00  0.00    +0.027 C 
ENDBRANCH  22  23
ENDBRANCH  17  18
ENDBRANCH  16  17
ENDBRANCH   5  16
TORSDOF 5
