REMARK  Name = ZINC39729243
REMARK  5 active torsions:
REMARK  status: ('A' for Active; 'I' for Inactive)
REMARK    1  A    between atoms: C_1  and  C_2
REMARK    2  A    between atoms: N_7  and  C_9
REMARK    3  A    between atoms: C_10  and  C_20
REMARK    4  A    between atoms: N_24  and  C_28
REMARK    5  A    between atoms: C_28  and  C_29
REMARK                            x       y       z     vdW  Elec       q    Type
REMARK                         _______ _______ _______ _____ _____    ______ ____
ROOT
ATOM      1  C   UNL     1       0.419  -2.803   2.213  0.00  0.00    +0.136 A 
ATOM      2  C   UNL     1       0.475  -4.209   2.062  0.00  0.00    +0.081 A 
ATOM      3  C   UNL     1       0.053  -5.018   3.144  0.00  0.00    +0.267 A 
ATOM      4  O   UNL     1       0.085  -6.234   3.058  0.00  0.00    -0.267 OA
ATOM      5  N   UNL     1      -0.384  -4.421   4.274  0.00  0.00    -0.268 N 
ATOM      6  C   UNL     1      -0.792  -5.192   5.321  0.00  0.00    +0.096 A 
ATOM      7  C   UNL     1      -1.236  -4.626   6.466  0.00  0.00    +0.018 A 
ATOM      8  C   UNL     1      -1.281  -3.231   6.589  0.00  0.00    +0.005 A 
ATOM      9  C   UNL     1      -0.875  -2.450   5.547  0.00  0.00    +0.047 A 
ATOM     10  C   UNL     1      -0.416  -3.057   4.364  0.00  0.00    +0.142 A 
ATOM     11  N   UNL     1      -0.017  -2.285   3.352  0.00  0.00    -0.214 NA
ENDROOT
BRANCH   2  12
ATOM     12  C   UNL     1       0.941  -4.791   0.860  0.00  0.00    +0.037 C 
ATOM     13  C   UNL     1       0.089  -5.518   0.079  0.00  0.00    +0.077 C 
ATOM     14  C   UNL     1      -1.316  -5.713   0.210  0.00  0.00    +0.259 C 
ATOM     15  O   UNL     1      -1.938  -5.195   1.120  0.00  0.00    -0.269 OA
ATOM     16  N   UNL     1      -1.925  -6.471  -0.685  0.00  0.00    -0.251 N 
ATOM     17  C   UNL     1      -1.234  -7.045  -1.696  0.00  0.00    +0.121 C 
ATOM     18  S   UNL     1      -1.811  -8.053  -2.953  0.00  0.00    -0.027 S 
ATOM     19  S   UNL     1       0.432  -6.477  -1.389  0.00  0.00    -0.061 S 
BRANCH  16  20
ATOM     20  C   UNL     1      -3.369  -6.693  -0.580  0.00  0.00    +0.150 C 
BRANCH  20  21
ATOM     21  C   UNL     1      -4.099  -5.625  -1.354  0.00  0.00    -0.026 A 
ATOM     22  C   UNL     1      -4.463  -4.447  -0.728  0.00  0.00    +0.009 A 
ATOM     23  C   UNL     1      -5.132  -3.464  -1.433  0.00  0.00    +0.050 A 
ATOM     24  C   UNL     1      -5.440  -3.658  -2.770  0.00  0.00    +0.166 A 
ATOM     25  C   UNL     1      -5.074  -4.845  -3.400  0.00  0.00    +0.167 A 
ATOM     26  C   UNL     1      -4.399  -5.823  -2.688  0.00  0.00    +0.054 A 
ATOM     27  O   UNL     1      -5.487  -4.794  -4.700  0.00  0.00    -0.453 OA
ATOM     28  C   UNL     1      -6.466  -3.739  -4.752  0.00  0.00    +0.466 C 
ATOM     29  O   UNL     1      -6.082  -2.864  -3.675  0.00  0.00    -0.453 OA
ENDBRANCH  20  21
ENDBRANCH  16  20
ENDBRANCH   2  12
BRANCH   1  35
ATOM     30  C   UNL     1       1.761   1.683   0.976  0.00  0.00    +0.009 C 
ATOM     31  C   UNL     1       0.895   0.432   0.816  0.00  0.00    +0.003 C 
ATOM     32  C   UNL     1       0.677   0.149  -0.672  0.00  0.00    +0.006 C 
ATOM     33  C   UNL     1      -0.217  -1.083  -0.834  0.00  0.00    +0.019 C 
ATOM     34  C   UNL     1       0.477  -2.297  -0.208  0.00  0.00    +0.106 C 
ATOM     35  N   UNL     1       0.821  -1.979   1.185  0.00  0.00    -0.314 N 
ATOM     36  C   UNL     1       1.601  -0.764   1.461  0.00  0.00    +0.109 C 
ENDBRANCH   1  35
TORSDOF 4
