REMARK  Name = ZINC67243418
REMARK  7 active torsions:
REMARK  status: ('A' for Active; 'I' for Inactive)
REMARK    1  A    between atoms: C_1  and  C_2
REMARK    2  A    between atoms: C_2  and  N_3
REMARK    3  A    between atoms: C_4  and  C_6
REMARK    4  A    between atoms: C_6  and  N_7
REMARK    5  A    between atoms: C_13  and  C_15
REMARK    6  A    between atoms: C_16  and  C_25
REMARK    7  A    between atoms: C_21  and  C_24
REMARK                            x       y       z     vdW  Elec       q    Type
REMARK                         _______ _______ _______ _____ _____    ______ ____
ROOT
ATOM      1  N   UNL     1       1.552  -3.749  -2.673  0.00  0.00    -0.261 N 
ATOM      2  C   UNL     1       1.097  -4.543  -3.665  0.00  0.00    +0.111 A 
ATOM      3  C   UNL     1       1.294  -5.828  -3.292  0.00  0.00    +0.065 A 
ATOM      4  C   UNL     1       1.893  -5.821  -2.022  0.00  0.00    +0.147 A 
ATOM      5  N   UNL     1       2.053  -4.571  -1.655  0.00  0.00    -0.156 NA
ATOM      6  N   UNL     1       2.261  -6.950  -1.280  0.00  0.00    -0.262 N 
ATOM      7  C   UNL     1       2.046  -8.184  -1.778  0.00  0.00    +0.285 C 
ATOM      8  O   UNL     1       1.532  -8.316  -2.873  0.00  0.00    -0.266 OA
ATOM      9  H   UNL     1       2.671  -6.844  -0.407  0.00  0.00    +0.157 HD
ENDROOT
BRANCH   7  10
ATOM     10  C   UNL     1       2.433  -9.368  -1.000  0.00  0.00    +0.194 A 
ATOM     11  C   UNL     1       2.269 -10.656  -1.402  0.00  0.00    +0.008 A 
ATOM     12  C   UNL     1       2.792 -11.488  -0.319  0.00  0.00    +0.024 A 
ATOM     13  C   UNL     1       2.912 -12.865  -0.120  0.00  0.00    +0.012 A 
ATOM     14  C   UNL     1       3.463 -13.337   1.038  0.00  0.00    +0.001 A 
ATOM     15  C   UNL     1       3.904 -12.457   2.017  0.00  0.00    +0.007 A 
ATOM     16  C   UNL     1       3.794 -11.095   1.840  0.00  0.00    -0.008 A 
ATOM     17  C   UNL     1       3.238 -10.591   0.670  0.00  0.00    +0.139 A 
ATOM     18  O   UNL     1       3.008  -9.342   0.221  0.00  0.00    -0.450 OA
ATOM     19  C   UNL     1       4.277 -10.153   2.913  0.00  0.00    +0.047 C 
ATOM     20  C   UNL     1       1.671 -11.130  -2.701  0.00  0.00    +0.048 C 
ENDBRANCH   7  10
BRANCH   1  21
ATOM     21  C   UNL     1       1.532  -2.285  -2.665  0.00  0.00    +0.239 C 
BRANCH  21  23
ATOM     22  N   UNL     1       0.688  -0.476  -1.203  0.00  0.00    -0.314 N 
ATOM     23  C   UNL     1       0.827  -1.799  -1.425  0.00  0.00    +0.234 C 
ATOM     24  O   UNL     1       0.384  -2.597  -0.627  0.00  0.00    -0.274 OA
ATOM     25  H   UNL     1       1.042   0.162  -1.842  0.00  0.00    +0.149 HD
BRANCH  22  27
ATOM     26  C   UNL     1      -0.019   1.526   0.010  0.00  0.00    +0.024 C 
ATOM     27  C   UNL     1       0.002  -0.004   0.002  0.00  0.00    +0.101 C 
ENDBRANCH  22  27
ENDBRANCH  21  23
ENDBRANCH   1  21
TORSDOF 4
