REMARK  Name = ZINC39035167
REMARK  11 active torsions:
REMARK  status: ('A' for Active; 'I' for Inactive)
REMARK    1  A    between atoms: C_1  and  C_2
REMARK    2  A    between atoms: C_2  and  C_4
REMARK    3  A    between atoms: C_2  and  N_23
REMARK    4  A    between atoms: N_6  and  C_7
REMARK    5  A    between atoms: C_11  and  O_21
REMARK    6  A    between atoms: C_15  and  C_17
REMARK    7  A    between atoms: C_17  and  O_19
REMARK    8  A    between atoms: O_19  and  C_20
REMARK    9  A    between atoms: O_21  and  C_22
REMARK   10  A    between atoms: C_26  and  C_29
REMARK   11  A    between atoms: C_29  and  C_30
REMARK                            x       y       z     vdW  Elec       q    Type
REMARK                         _______ _______ _______ _____ _____    ______ ____
ROOT
ATOM      1  C   UNL     1      -1.890   0.256  -0.359  0.00  0.00    +0.203 C 
ATOM      2  O   UNL     1      -1.637  -0.723   0.309  0.00  0.00    -0.277 OA
ATOM      3  N   UNL     1      -3.110   0.395  -0.917  0.00  0.00    -0.288 N 
ATOM      4  H   UNL     1      -3.290   1.141  -1.509  0.00  0.00    +0.155 HD
ENDROOT
BRANCH   3   5
ATOM      5  C   UNL     1      -4.090  -0.514  -0.648  0.00  0.00    +0.053 C 
ATOM      6  C   UNL     1      -5.351  -0.571  -1.211  0.00  0.00    +0.018 A 
ATOM      7  C   UNL     1      -6.000   0.233  -2.181  0.00  0.00    +0.015 A 
ATOM      8  C   UNL     1      -7.268  -0.059  -2.556  0.00  0.00    +0.046 A 
ATOM      9  C   UNL     1      -7.965  -1.145  -2.005  0.00  0.00    +0.122 A 
ATOM     10  C   UNL     1      -7.401  -1.958  -1.069  0.00  0.00    +0.071 A 
ATOM     11  C   UNL     1      -6.078  -1.714  -0.630  0.00  0.00    +0.048 A 
ATOM     12  N   UNL     1      -5.321  -2.342   0.249  0.00  0.00    -0.367 N 
ATOM     13  C   UNL     1      -4.019  -1.671   0.323  0.00  0.00    +0.234 C 
ATOM     14  H   UNL     1      -5.582  -3.123   0.761  0.00  0.00    +0.161 HD
BRANCH  13  15
ATOM     15  C   UNL     1      -3.779  -1.162   1.721  0.00  0.00    +0.335 C 
ATOM     16  O   UNL     1      -4.702  -0.742   2.377  0.00  0.00    -0.248 OA
BRANCH  15  17
ATOM     17  O   UNL     1      -2.539  -1.175   2.236  0.00  0.00    -0.466 OA
ATOM     18  C   UNL     1      -2.385  -0.678   3.567  0.00  0.00    +0.280 C 
ENDBRANCH  15  17
ENDBRANCH  13  15
BRANCH   9  19
ATOM     19  O   UNL     1      -9.234  -1.392  -2.416  0.00  0.00    -0.495 OA
ATOM     20  C   UNL     1      -9.781  -0.511  -3.399  0.00  0.00    +0.277 C 
ENDBRANCH   9  19
ENDBRANCH   3   5
BRANCH   1  22
ATOM     21  C   UNL     1      -0.993   2.401   0.502  0.00  0.00    -0.004 C 
ATOM     22  C   UNL     1      -0.841   1.318  -0.567  0.00  0.00    +0.016 C 
BRANCH  22  23
ATOM     23  N   UNL     1       0.494   0.714  -0.466  0.00  0.00    +0.387 N 
ATOM     24  C   UNL     1       1.514   1.764  -0.574  0.00  0.00    -0.078 C 
ATOM     25  C   UNL     1       2.904   1.151  -0.388  0.00  0.00    -0.015 C 
ATOM     26  C   UNL     1       3.139   0.095  -1.472  0.00  0.00    -0.010 C 
ATOM     27  C   UNL     1       2.027  -0.955  -1.398  0.00  0.00    -0.015 C 
ATOM     28  C   UNL     1       0.670  -0.264  -1.547  0.00  0.00    -0.078 C 
ATOM     29  H   UNL     1       0.585   0.249   0.425  0.00  0.00    -0.081 HD
BRANCH  26  30
ATOM     30  C   UNL     1       4.494  -0.578  -1.245  0.00  0.00    +0.038 C 
BRANCH  30  31
ATOM     31  C   UNL     1       4.780  -1.528  -2.380  0.00  0.00    -0.047 A 
ATOM     32  C   UNL     1       4.367  -2.844  -2.300  0.00  0.00    +0.003 A 
ATOM     33  C   UNL     1       4.628  -3.716  -3.340  0.00  0.00    +0.000 A 
ATOM     34  C   UNL     1       5.303  -3.270  -4.462  0.00  0.00    +0.000 A 
ATOM     35  C   UNL     1       5.715  -1.953  -4.542  0.00  0.00    +0.000 A 
ATOM     36  C   UNL     1       5.450  -1.081  -3.503  0.00  0.00    +0.003 A 
ENDBRANCH  30  31
ENDBRANCH  26  30
ENDBRANCH  22  23
ENDBRANCH   1  22
TORSDOF 8
