REMARK  Name = ZINC09781778
REMARK  4 active torsions:
REMARK  status: ('A' for Active; 'I' for Inactive)
REMARK    1  A    between atoms: C_6  and  S_7
REMARK    2  A    between atoms: S_7  and  N_10
REMARK    3  A    between atoms: C_18  and  C_20
REMARK    4  A    between atoms: C_20  and  N_57
REMARK                            x       y       z     vdW  Elec       q    Type
REMARK                         _______ _______ _______ _____ _____    ______ ____
ROOT
ATOM      1  N   UNL     1       4.338  -1.074  -1.639  0.00  0.00    -0.199 N 
ATOM      2  C   UNL     1       4.620   0.014  -2.445  0.00  0.00    +0.150 A 
ATOM      3  C   UNL     1       4.976  -0.171  -3.809  0.00  0.00    +0.052 A 
ATOM      4  C   UNL     1       5.094  -1.432  -4.561  0.00  0.00    -0.025 A 
ATOM      5  C   UNL     1       5.439  -1.337  -5.854  0.00  0.00    -0.004 A 
ATOM      6  S   UNL     1       5.624   0.406  -6.158  0.00  0.00    -0.073 S 
ATOM      7  C   UNL     1       5.234   1.005  -4.536  0.00  0.00    +0.114 A 
ATOM      8  N   UNL     1       5.158   2.195  -3.972  0.00  0.00    -0.227 NA
ATOM      9  C   UNL     1       4.828   2.306  -2.699  0.00  0.00    +0.116 A 
ATOM     10  N   UNL     1       4.566   1.244  -1.958  0.00  0.00    -0.217 NA
ATOM     11  C   UNL     1       5.530  -2.685  -6.519  0.00  0.00    +0.043 C 
ATOM     12  C   UNL     1       4.769  -3.636  -5.570  0.00  0.00    +0.010 C 
ATOM     13  C   UNL     1       4.917  -2.914  -4.217  0.00  0.00    +0.037 C 
ATOM     14  H   UNL     1       4.380  -1.971  -2.003  0.00  0.00    +0.175 HD
ENDROOT
BRANCH   1  15
ATOM     15  S   UNL     1       3.931  -0.843  -0.050  0.00  0.00    +0.074 S 
ATOM     16  O   UNL     1       4.904   0.038   0.495  0.00  0.00    -0.150 OA
ATOM     17  O   UNL     1       3.679  -2.131   0.495  0.00  0.00    -0.150 OA
BRANCH  15  23
ATOM     18  C   UNL     1       1.208  -0.680  -0.016  0.00  0.00    +0.032 A 
ATOM     19  C   UNL     1       0.002  -0.004   0.002  0.00  0.00    +0.051 A 
ATOM     20  C   UNL     1      -0.017   1.382   0.010  0.00  0.00    +0.162 A 
ATOM     21  C   UNL     1       1.180   2.090   0.002  0.00  0.00    +0.164 A 
ATOM     22  C   UNL     1       2.386   1.406  -0.016  0.00  0.00    +0.078 A 
ATOM     23  C   UNL     1       2.397   0.023  -0.026  0.00  0.00    +0.112 A 
ATOM     24  O   UNL     1       1.184   3.451   0.018  0.00  0.00    -0.485 OA
ATOM     25  C   UNL     1      -0.040   4.103  -0.340  0.00  0.00    +0.270 C 
ATOM     26  C   UNL     1      -1.188   3.413   0.408  0.00  0.00    +0.270 C 
ATOM     27  O   UNL     1      -1.211   2.034   0.019  0.00  0.00    -0.485 OA
ENDBRANCH  15  23
ENDBRANCH   1  15
BRANCH   9  28
ATOM     28  C   UNL     1       4.747   3.676  -2.077  0.00  0.00    -0.001 C 
BRANCH  28  34
ATOM     29  C   UNL     1       6.409   3.168  -0.389  0.00  0.00    -0.050 C 
ATOM     30  C   UNL     1       7.804   3.541   0.121  0.00  0.00    +0.141 C 
ATOM     31  O   UNL     1       7.821   4.926   0.478  0.00  0.00    -0.383 OA
ATOM     32  C   UNL     1       7.484   5.802  -0.601  0.00  0.00    +0.141 C 
ATOM     33  C   UNL     1       6.086   5.452  -1.118  0.00  0.00    -0.050 C 
ATOM     34  N   UNL     1       6.077   4.035  -1.539  0.00  0.00    +0.387 N 
ATOM     35  H   UNL     1       6.782   3.901  -2.273  0.00  0.00    -0.081 HD
ENDBRANCH  28  34
ENDBRANCH   9  28
TORSDOF 4
