REMARK  Name = ZINC39369620
REMARK  5 active torsions:
REMARK  status: ('A' for Active; 'I' for Inactive)
REMARK    1  A    between atoms: C_1  and  O_2
REMARK    2  A    between atoms: O_2  and  C_3
REMARK    3  A    between atoms: C_8  and  C_13
REMARK    4  A    between atoms: C_13  and  C_25
REMARK    5  A    between atoms: C_14  and  C_15
REMARK                            x       y       z     vdW  Elec       q    Type
REMARK                         _______ _______ _______ _____ _____    ______ ____
ROOT
ATOM      1  C   UNL     1       3.494  -4.664  -3.603  0.00  0.00    +0.072 C 
ATOM      2  C   UNL     1       3.788  -5.746  -4.355  0.00  0.00    +0.027 C 
ENDROOT
BRANCH   1   8
ATOM      3  C   UNL     1       0.568  -0.929  -0.629  0.00  0.00    +0.122 A 
ATOM      4  C   UNL     1       0.894  -0.064  -1.755  0.00  0.00    +0.048 A 
ATOM      5  C   UNL     1       1.394  -0.551  -2.905  0.00  0.00    +0.031 A 
ATOM      6  C   UNL     1       1.626  -1.997  -3.046  0.00  0.00    +0.061 A 
ATOM      7  N   UNL     1       2.089  -2.718  -4.027  0.00  0.00    -0.359 N 
ATOM      8  C   UNL     1       2.090  -4.117  -3.584  0.00  0.00    +0.216 C 
ATOM      9  N   UNL     1       1.566  -4.119  -2.213  0.00  0.00    -0.359 N 
ATOM     10  C   UNL     1       1.294  -2.882  -1.897  0.00  0.00    +0.064 A 
ATOM     11  C   UNL     1       0.758  -2.270  -0.680  0.00  0.00    +0.073 A 
ATOM     12  H   UNL     1       2.380  -2.390  -4.892  0.00  0.00    +0.162 HD
ATOM     13  H   UNL     1       1.444  -4.897  -1.646  0.00  0.00    +0.162 HD
BRANCH   3  15
ATOM     14  C   UNL     1      -0.116   1.040   0.509  0.00  0.00    +0.277 C 
ATOM     15  O   UNL     1       0.066  -0.377   0.504  0.00  0.00    -0.495 OA
ENDBRANCH   3  15
ENDBRANCH   1   8
BRANCH   2  16
ATOM     16  C   UNL     1       5.116  -6.369  -4.260  0.00  0.00    -0.006 A 
ATOM     17  C   UNL     1       5.805  -6.371  -3.042  0.00  0.00    +0.058 A 
ATOM     18  C   UNL     1       7.052  -6.958  -2.957  0.00  0.00    +0.167 A 
ATOM     19  C   UNL     1       7.624  -7.548  -4.086  0.00  0.00    +0.167 A 
ATOM     20  C   UNL     1       6.941  -7.547  -5.294  0.00  0.00    +0.065 A 
ATOM     21  C   UNL     1       5.693  -6.968  -5.386  0.00  0.00    +0.029 A 
ATOM     22 BR   UNL     1       4.765  -6.976  -7.034  0.00  0.00    -0.050 Br
ATOM     23  O   UNL     1       8.845  -8.050  -3.741  0.00  0.00    -0.453 OA
ATOM     24  C   UNL     1       9.192  -7.404  -2.503  0.00  0.00    +0.466 C 
ATOM     25  O   UNL     1       7.917  -7.092  -1.910  0.00  0.00    -0.453 OA
ENDBRANCH   2  16
BRANCH   1  26
ATOM     26  C   UNL     1       4.518  -4.036  -2.822  0.00  0.00    +0.099 C 
ATOM     27  N   UNL     1       5.329  -3.538  -2.203  0.00  0.00    -0.191 NA
ENDBRANCH   1  26
TORSDOF 4
