REMARK  Name = ZINC20941188
REMARK  6 active torsions:
REMARK  status: ('A' for Active; 'I' for Inactive)
REMARK    1  A    between atoms: C_4  and  C_7
REMARK    2  A    between atoms: C_7  and  N_8
REMARK    3  A    between atoms: C_9  and  C_11
REMARK    4  A    between atoms: N_14  and  C_22
REMARK    5  A    between atoms: C_15  and  C_16
REMARK    6  A    between atoms: C_25  and  N_28
REMARK                            x       y       z     vdW  Elec       q    Type
REMARK                         _______ _______ _______ _____ _____    ______ ____
ROOT
ATOM      1  C   UNL     1      -0.026  -0.283   2.899  0.00  0.00    +0.078 A 
ATOM      2  C   UNL     1       0.852  -0.361   4.004  0.00  0.00    +0.148 A 
ATOM      3  N   UNL     1       1.226   0.851   4.309  0.00  0.00    -0.174 NA
ATOM      4  N   UNL     1       0.620   1.750   3.425  0.00  0.00    -0.236 N 
ATOM      5  C   UNL     1      -0.148   1.052   2.569  0.00  0.00    +0.060 A 
ENDROOT
BRANCH   5   6
ATOM      6  C   UNL     1      -0.984   1.622   1.451  0.00  0.00    +0.035 C 
ATOM      7  C   UNL     1      -0.469   1.096   0.108  0.00  0.00    -0.010 C 
ATOM      8  C   UNL     1      -1.357   1.630  -1.018  0.00  0.00    -0.082 C 
ATOM      9  N   UNL     1      -2.742   1.192  -0.800  0.00  0.00    +0.379 N 
ATOM     10  C   UNL     1      -3.275   1.723   0.461  0.00  0.00    -0.082 C 
ATOM     11  C   UNL     1      -2.443   1.193   1.632  0.00  0.00    -0.010 C 
ATOM     12  H   UNL     1      -3.374   1.549  -1.626  0.00  0.00    -0.086 HD
ATOM     13  H   UNL     1      -2.777   0.093  -0.760  0.00  0.00    -0.086 HD
ENDBRANCH   5   6
BRANCH   4  14
ATOM     14  C   UNL     1       0.784   3.142   3.431  0.00  0.00    +0.066 A 
ATOM     15  C   UNL     1       0.836   3.841   2.232  0.00  0.00    +0.030 A 
ATOM     16  C   UNL     1       0.992   5.214   2.242  0.00  0.00    +0.035 A 
ATOM     17  C   UNL     1       1.107   5.890   3.443  0.00  0.00    +0.126 A 
ATOM     18  C   UNL     1       1.060   5.195   4.638  0.00  0.00    +0.035 A 
ATOM     19  C   UNL     1       0.899   3.824   4.635  0.00  0.00    +0.030 A 
BRANCH  17  20
ATOM     20  N   UNL     1       1.280   7.360   3.449  0.00  0.00    +0.056 N 
ATOM     21  O   UNL     1       1.382   7.956   4.506  0.00  0.00    -0.126 OA
ATOM     22  O   UNL     1       1.322   7.973   2.397  0.00  0.00    -0.126 OA
ENDBRANCH  17  20
ENDBRANCH   4  14
BRANCH   1  24
ATOM     23  N   UNL     1      -0.558  -2.662   2.720  0.00  0.00    -0.307 N 
ATOM     24  C   UNL     1      -0.687  -1.415   2.225  0.00  0.00    +0.248 C 
ATOM     25  O   UNL     1      -1.348  -1.224   1.223  0.00  0.00    -0.270 OA
ATOM     26  H   UNL     1       0.040  -2.835   3.627  0.00  0.00    +0.149 HD
BRANCH  23  27
ATOM     27  C   UNL     1      -1.215  -3.788   2.050  0.00  0.00    +0.139 C 
BRANCH  27  31
ATOM     28  C   UNL     1      -0.367  -7.398   4.170  0.00  0.00    +0.000 A 
ATOM     29  C   UNL     1      -1.479  -6.646   4.502  0.00  0.00    +0.000 A 
ATOM     30  C   UNL     1      -1.753  -5.478   3.816  0.00  0.00    +0.005 A 
ATOM     31  C   UNL     1      -0.916  -5.061   2.798  0.00  0.00    -0.030 A 
ATOM     32  C   UNL     1       0.193  -5.816   2.463  0.00  0.00    +0.005 A 
ATOM     33  C   UNL     1       0.470  -6.981   3.152  0.00  0.00    +0.000 A 
ENDBRANCH  27  31
ENDBRANCH  23  27
ENDBRANCH   1  24
TORSDOF 6
