REMARK  Name = ZINC63362216
REMARK  7 active torsions:
REMARK  status: ('A' for Active; 'I' for Inactive)
REMARK    1  A    between atoms: C_1  and  C_2
REMARK    2  A    between atoms: C_2  and  C_3
REMARK    3  A    between atoms: C_2  and  C_4
REMARK    4  A    between atoms: C_4  and  N_5
REMARK    5  A    between atoms: C_6  and  C_8
REMARK    6  A    between atoms: C_13  and  N_14
REMARK    7  A    between atoms: C_17  and  C_33
REMARK                            x       y       z     vdW  Elec       q    Type
REMARK                         _______ _______ _______ _____ _____    ______ ____
ROOT
ATOM      1  N   UNL     1      -6.090  -1.232  -1.962  0.00  0.00    -0.192 N 
ATOM      2  C   UNL     1      -6.817  -0.687  -0.964  0.00  0.00    +0.253 C 
ATOM      3  O   UNL     1      -6.956   0.492  -0.719  0.00  0.00    -0.272 OA
ATOM      4  C   UNL     1      -7.422  -1.853  -0.216  0.00  0.00    +0.137 C 
ATOM      5  C   UNL     1      -6.983  -1.842   1.248  0.00  0.00    +0.139 C 
ATOM      6  C   UNL     1      -6.052  -3.028   1.452  0.00  0.00    -0.034 C 
ATOM      7  C   UNL     1      -4.918  -2.531   1.939  0.00  0.00    -0.001 A 
ATOM      8  C   UNL     1      -3.680  -3.185   2.393  0.00  0.00    +0.010 A 
ATOM      9  C   UNL     1      -2.693  -2.359   2.832  0.00  0.00    +0.001 A 
ATOM     10  C   UNL     1      -2.813  -0.966   2.864  0.00  0.00    +0.002 A 
ATOM     11  C   UNL     1      -3.916  -0.282   2.470  0.00  0.00    +0.026 A 
ATOM     12  C   UNL     1      -5.024  -1.041   1.993  0.00  0.00    +0.043 A 
ATOM     13  N   UNL     1      -6.206  -0.645   1.575  0.00  0.00    -0.375 N 
ATOM     14  C   UNL     1      -6.408  -4.445   1.075  0.00  0.00    +0.052 C 
ATOM     15  C   UNL     1      -6.905  -4.411  -0.384  0.00  0.00    +0.115 C 
ATOM     16  N   UNL     1      -6.805  -3.030  -0.863  0.00  0.00    -0.268 N 
ATOM     17  C   UNL     1      -6.122  -2.571  -1.921  0.00  0.00    +0.317 C 
ATOM     18  O   UNL     1      -5.589  -3.287  -2.746  0.00  0.00    -0.252 OA
ATOM     19  C   UNL     1      -8.945  -1.875  -0.355  0.00  0.00    +0.044 C 
ATOM     20  H   UNL     1      -6.513   0.271   1.493  0.00  0.00    +0.160 HD
ENDROOT
BRANCH   1  26
ATOM     21  C   UNL     1      -4.064  -0.120  -2.696  0.00  0.00    +0.059 A 
ATOM     22  C   UNL     1      -3.379   0.615  -3.666  0.00  0.00    +0.015 A 
ATOM     23  C   UNL     1      -4.016   0.974  -4.834  0.00  0.00    +0.001 A 
ATOM     24  C   UNL     1      -5.335   0.610  -5.051  0.00  0.00    +0.002 A 
ATOM     25  C   UNL     1      -6.024  -0.117  -4.101  0.00  0.00    +0.025 A 
ATOM     26  C   UNL     1      -5.396  -0.492  -2.922  0.00  0.00    +0.058 A 
BRANCH  21  28
ATOM     27  N   UNL     1      -2.105  -0.148  -1.230  0.00  0.00    -0.311 N 
ATOM     28  C   UNL     1      -3.387  -0.508  -1.443  0.00  0.00    +0.246 C 
ATOM     29  O   UNL     1      -3.985  -1.153  -0.604  0.00  0.00    -0.270 OA
ATOM     30  H   UNL     1      -1.628   0.366  -1.901  0.00  0.00    +0.149 HD
BRANCH  27  31
ATOM     31  C   UNL     1      -1.433  -0.534   0.013  0.00  0.00    +0.107 C 
BRANCH  31  33
ATOM     32  C   UNL     1      -0.019   1.526   0.010  0.00  0.00    +0.009 C 
ATOM     33  C   UNL     1       0.002  -0.004   0.002  0.00  0.00    -0.000 C 
ATOM     34  C   UNL     1       0.742  -0.511   1.242  0.00  0.00    +0.009 C 
ENDBRANCH  31  33
ENDBRANCH  27  31
ENDBRANCH  21  28
ENDBRANCH   1  26
TORSDOF 4
