REMARK  Name = ZINC15236650
REMARK  11 active torsions:
REMARK  status: ('A' for Active; 'I' for Inactive)
REMARK    1  A    between atoms: C_1  and  C_2
REMARK    2  A    between atoms: C_5  and  C_31
REMARK    3  A    between atoms: C_6  and  O_8
REMARK    4  A    between atoms: O_8  and  C_9
REMARK    5  A    between atoms: C_9  and  C_10
REMARK    6  A    between atoms: C_10  and  C_12
REMARK    7  A    between atoms: C_10  and  O_30
REMARK    8  A    between atoms: C_12  and  N_13
REMARK    9  A    between atoms: C_16  and  C_20
REMARK   10  A    between atoms: C_16  and  C_21
REMARK   11  A    between atoms: C_24  and  N_27
REMARK                            x       y       z     vdW  Elec       q    Type
REMARK                         _______ _______ _______ _____ _____    ______ ____
ROOT
ATOM      1  N   UNL     1      -1.099   2.007   0.017  0.00  0.00    -0.221 N 
ATOM      2  C   UNL     1      -0.014   1.208   0.009  0.00  0.00    +0.251 C 
ATOM      3  O   UNL     1       0.002  -0.004   0.002  0.00  0.00    -0.272 OA
ATOM      4  C   UNL     1       1.181   2.140   0.002  0.00  0.00    +0.135 C 
ATOM      5  N   UNL     1       0.574   3.482   0.015  0.00  0.00    -0.281 N 
ATOM      6  C   UNL     1      -0.759   3.301   0.026  0.00  0.00    +0.310 C 
ATOM      7  O   UNL     1      -1.564   4.212   0.038  0.00  0.00    -0.252 OA
ATOM      8  C   UNL     1       2.040   1.923   1.250  0.00  0.00    +0.047 C 
ATOM      9  H   UNL     1       1.044   4.331   0.015  0.00  0.00    +0.152 HD
ENDROOT
BRANCH   4  10
ATOM     10  C   UNL     1       2.002   1.941  -1.246  0.00  0.00    -0.015 A 
ATOM     11  C   UNL     1       2.047   0.700  -1.852  0.00  0.00    +0.008 A 
ATOM     12  C   UNL     1       2.797   0.518  -3.000  0.00  0.00    +0.033 A 
ATOM     13  C   UNL     1       3.508   1.576  -3.535  0.00  0.00    +0.126 A 
ATOM     14  C   UNL     1       3.466   2.816  -2.926  0.00  0.00    +0.033 A 
ATOM     15  C   UNL     1       2.714   2.998  -1.781  0.00  0.00    +0.008 A 
BRANCH  13  16
ATOM     16  N   UNL     1       4.314   1.380  -4.761  0.00  0.00    +0.056 N 
ATOM     17  O   UNL     1       4.941   2.312  -5.233  0.00  0.00    -0.126 OA
ATOM     18  O   UNL     1       4.351   0.287  -5.298  0.00  0.00    -0.126 OA
ENDBRANCH  13  16
ENDBRANCH   4  10
BRANCH   1  19
ATOM     19  C   UNL     1      -2.481   1.520   0.020  0.00  0.00    +0.152 C 
BRANCH  19  20
ATOM     20  C   UNL     1      -2.956   1.342   1.463  0.00  0.00    +0.170 C 
BRANCH  20  21
ATOM     21  O   UNL     1      -2.116   0.397   2.128  0.00  0.00    -0.387 OA
ATOM     22  H   UNL     1      -2.110  -0.480   1.720  0.00  0.00    +0.210 HD
ENDBRANCH  20  21
BRANCH  20  23
ATOM     23  C   UNL     1      -4.399   0.833   1.466  0.00  0.00    +0.262 C 
BRANCH  23  24
ATOM     24  O   UNL     1      -4.882   0.777   2.810  0.00  0.00    -0.489 OA
BRANCH  24  30
ATOM     25  C   UNL     1      -9.060  -0.863   0.892  0.00  0.00    +0.044 C 
ATOM     26  C   UNL     1      -8.223  -0.465   2.081  0.00  0.00    -0.047 A 
ATOM     27  C   UNL     1      -8.752  -0.543   3.356  0.00  0.00    +0.004 A 
ATOM     28  C   UNL     1      -7.986  -0.180   4.448  0.00  0.00    +0.007 A 
ATOM     29  C   UNL     1      -6.688   0.258   4.268  0.00  0.00    -0.009 A 
ATOM     30  C   UNL     1      -6.157   0.342   2.990  0.00  0.00    +0.124 A 
ATOM     31  C   UNL     1      -6.927  -0.024   1.895  0.00  0.00    +0.049 A 
ATOM     32  C   UNL     1      -5.852   0.649   5.460  0.00  0.00    +0.047 C 
ENDBRANCH  24  30
ENDBRANCH  23  24
ENDBRANCH  20  23
ENDBRANCH  19  20
ENDBRANCH   1  19
TORSDOF 8
