REMARK  Name = ZINC58008573
REMARK  8 active torsions:
REMARK  status: ('A' for Active; 'I' for Inactive)
REMARK    1  A    between atoms: C_1  and  C_2
REMARK    2  A    between atoms: C_2  and  C_3
REMARK    3  A    between atoms: N_11  and  C_15
REMARK    4  A    between atoms: C_15  and  C_16
REMARK    5  A    between atoms: N_18  and  C_19
REMARK    6  A    between atoms: N_18  and  C_25
REMARK    7  A    between atoms: N_28  and  C_31
REMARK    8  A    between atoms: C_31  and  C_32
REMARK                            x       y       z     vdW  Elec       q    Type
REMARK                         _______ _______ _______ _____ _____    ______ ____
ROOT
ATOM      1  C   UNL     1       6.605  -3.612   0.716  0.00  0.00    +0.238 C 
ATOM      2  O   UNL     1       6.474  -2.449   1.034  0.00  0.00    -0.273 OA
ATOM      3  N   UNL     1       7.739  -4.024   0.115  0.00  0.00    -0.267 N 
ENDROOT
BRANCH   3   4
ATOM      4  C   UNL     1       8.861  -3.096  -0.045  0.00  0.00    +0.078 C 
ATOM      5  C   UNL     1       9.249  -2.522   1.321  0.00  0.00    +0.004 C 
ATOM      6  C   UNL     1      10.369  -1.495   1.138  0.00  0.00    -0.077 C 
ATOM      7  N   UNL     1       9.904  -0.411   0.264  0.00  0.00    +0.380 N 
ATOM      8  C   UNL     1       9.598  -0.942  -1.070  0.00  0.00    -0.077 C 
ATOM      9  C   UNL     1       8.450  -1.948  -0.971  0.00  0.00    +0.004 C 
ATOM     10  H   UNL     1       9.074   0.005   0.658  0.00  0.00    -0.082 HD
BRANCH   7  11
ATOM     11  C   UNL     1      10.954   0.611   0.154  0.00  0.00    -0.082 C 
ATOM     12  C   UNL     1      10.427   1.799  -0.654  0.00  0.00    -0.017 C 
ENDBRANCH   7  11
ENDBRANCH   3   4
BRANCH   3  13
ATOM     13  C   UNL     1       7.844  -5.337  -0.357  0.00  0.00    +0.037 A 
ATOM     14  C   UNL     1       7.039  -5.766  -1.404  0.00  0.00    +0.023 A 
ATOM     15  C   UNL     1       7.145  -7.063  -1.867  0.00  0.00    +0.002 A 
ATOM     16  C   UNL     1       8.052  -7.933  -1.290  0.00  0.00    +0.000 A 
ATOM     17  C   UNL     1       8.855  -7.508  -0.248  0.00  0.00    +0.002 A 
ATOM     18  C   UNL     1       8.758  -6.211   0.216  0.00  0.00    +0.023 A 
ENDBRANCH   3  13
BRANCH   1  19
ATOM     19  C   UNL     1       5.498  -4.598   0.992  0.00  0.00    +0.214 C 
BRANCH  19  28
ATOM     20  C   UNL     1       0.325  -1.431   1.056  0.00  0.00    -0.011 C 
ATOM     21  C   UNL     1       1.731  -0.826   1.048  0.00  0.00    +0.006 C 
ATOM     22  C   UNL     1       2.479  -1.263   2.310  0.00  0.00    +0.035 C 
ATOM     23  C   UNL     1       2.563  -2.784   2.353  0.00  0.00    +0.113 C 
ATOM     24  C   UNL     1       1.170  -3.403   2.336  0.00  0.00    +0.035 C 
ATOM     25  C   UNL     1       0.426  -2.957   1.074  0.00  0.00    +0.006 C 
ATOM     26  C   UNL     1       3.385  -3.301   1.195  0.00  0.00    +0.247 C 
ATOM     27  O   UNL     1       3.150  -3.171   0.013  0.00  0.00    -0.273 OA
ATOM     28  N   UNL     1       4.436  -3.937   1.754  0.00  0.00    -0.215 N 
ATOM     29  C   UNL     1       4.386  -3.891   3.091  0.00  0.00    +0.310 C 
ATOM     30  O   UNL     1       5.221  -4.393   3.816  0.00  0.00    -0.252 OA
ATOM     31  N   UNL     1       3.305  -3.224   3.542  0.00  0.00    -0.285 N 
ATOM     32  H   UNL     1       3.066  -3.066   4.468  0.00  0.00    +0.151 HD
BRANCH  20  34
ATOM     33  C   UNL     1      -0.639   0.530  -0.156  0.00  0.00    +0.004 C 
ATOM     34  C   UNL     1      -0.428  -0.984  -0.199  0.00  0.00    -0.000 C 
ENDBRANCH  20  34
ENDBRANCH  19  28
ENDBRANCH   1  19
TORSDOF 6
