REMARK  Name = ZINC65393566
REMARK  3 active torsions:
REMARK  status: ('A' for Active; 'I' for Inactive)
REMARK    1  A    between atoms: C_1  and  C_2
REMARK    2  A    between atoms: C_5  and  C_17
REMARK    3  A    between atoms: N_7  and  C_9
REMARK                            x       y       z     vdW  Elec       q    Type
REMARK                         _______ _______ _______ _____ _____    ______ ____
ROOT
ATOM      1  C   UNL     1      -0.019   1.526   0.010  0.00  0.00    +0.043 C 
ATOM      2  C   UNL     1       0.002  -0.004   0.002  0.00  0.00    +0.138 C 
ATOM      3  N   UNL     1      -1.380  -0.552   0.077  0.00  0.00    -0.276 NA
ATOM      4  C   UNL     1      -1.167  -1.881   0.702  0.00  0.00    +0.206 C 
ATOM      5  N   UNL     1       0.126  -1.802   1.399  0.00  0.00    -0.240 N 
ATOM      6  N   UNL     1       0.628  -0.530   1.242  0.00  0.00    -0.221 NA
ATOM      7  H   UNL     1      -1.969   0.029   0.655  0.00  0.00    +0.126 HD
ATOM      8  H   UNL     1       0.399   0.048   2.036  0.00  0.00    +0.146 HD
ENDROOT
BRANCH   5   9
ATOM      9  C   UNL     1       0.744  -2.843   2.100  0.00  0.00    +0.083 A 
ATOM     10  C   UNL     1       0.990  -4.056   1.471  0.00  0.00    +0.027 A 
ATOM     11  C   UNL     1       1.600  -5.082   2.165  0.00  0.00    +0.003 A 
ATOM     12  C   UNL     1       1.967  -4.904   3.486  0.00  0.00    +0.023 A 
ATOM     13  C   UNL     1       1.725  -3.697   4.118  0.00  0.00    +0.078 A 
ATOM     14  C   UNL     1       1.119  -2.663   3.427  0.00  0.00    +0.164 A 
ATOM     15  F   UNL     1       0.886  -1.483   4.042  0.00  0.00    -0.202 F 
ATOM     16 CL   UNL     1       2.187  -3.479   5.777  0.00  0.00    -0.081 Cl
ENDBRANCH   5   9
BRANCH   4  17
ATOM     17  C   UNL     1      -2.271  -2.174   1.686  0.00  0.00    +0.055 A 
ATOM     18  C   UNL     1      -2.008  -2.151   3.013  0.00  0.00    +0.025 A 
ATOM     19  C   UNL     1      -3.030  -2.423   3.934  0.00  0.00    +0.007 A 
ATOM     20  C   UNL     1      -4.282  -2.708   3.475  0.00  0.00    +0.070 A 
ATOM     21  C   UNL     1      -4.520  -2.723   2.090  0.00  0.00    +0.249 A 
ATOM     22  O   UNL     1      -5.636  -2.977   1.666  0.00  0.00    -0.268 OA
ATOM     23  N   UNL     1      -3.519  -2.453   1.231  0.00  0.00    -0.323 N 
ATOM     24  H   UNL     1      -3.691  -2.460   0.276  0.00  0.00    +0.169 HD
ENDBRANCH   4  17
TORSDOF 2
