REMARK  Name = ZINC16636655
REMARK  12 active torsions:
REMARK  status: ('A' for Active; 'I' for Inactive)
REMARK    1  A    between atoms: C_1  and  C_2
REMARK    2  A    between atoms: C_6  and  N_9
REMARK    3  A    between atoms: C_7  and  C_8
REMARK    4  A    between atoms: C_10  and  C_12
REMARK    5  A    between atoms: C_12  and  N_54
REMARK    6  A    between atoms: C_13  and  N_54
REMARK    7  A    between atoms: C_14  and  C_16
REMARK    8  A    between atoms: C_14  and  C_17
REMARK    9  A    between atoms: C_14  and  N_54
REMARK   10  A    between atoms: N_19  and  C_20
REMARK   11  A    between atoms: C_25  and  S_26
REMARK   12  A    between atoms: S_26  and  C_27
REMARK                            x       y       z     vdW  Elec       q    Type
REMARK                         _______ _______ _______ _____ _____    ______ ____
ROOT
ATOM      1  C   UNL     1      -0.030   0.930   0.018  0.00  0.00    -0.094 C 
ATOM      2  N   UNL     1      -0.501   1.526   1.286  0.00  0.00    +0.391 N 
ATOM      3  H   UNL     1      -1.427   1.144   1.510  0.00  0.00    -0.080 HD
ENDROOT
BRANCH   2   4
ATOM      4  C   UNL     1      -0.609   2.994   1.145  0.00  0.00    +0.017 C 
ATOM      5  C   UNL     1       0.782   3.628   1.067  0.00  0.00    -0.004 C 
BRANCH   4   6
ATOM      6  C   UNL     1      -1.345   3.543   2.339  0.00  0.00    +0.203 C 
ATOM      7  O   UNL     1      -1.687   2.801   3.235  0.00  0.00    -0.277 OA
ATOM      8  N   UNL     1      -1.624   4.860   2.411  0.00  0.00    -0.286 N 
ATOM      9  H   UNL     1      -1.410   5.443   1.666  0.00  0.00    +0.155 HD
BRANCH   8  10
ATOM     10  C   UNL     1      -2.224   5.387   3.563  0.00  0.00    +0.047 A 
ATOM     11  C   UNL     1      -3.006   4.577   4.372  0.00  0.00    +0.024 A 
ATOM     12  C   UNL     1      -3.593   5.098   5.511  0.00  0.00    +0.002 A 
ATOM     13  C   UNL     1      -3.410   6.428   5.841  0.00  0.00    +0.001 A 
ATOM     14  C   UNL     1      -2.637   7.245   5.038  0.00  0.00    +0.016 A 
ATOM     15  C   UNL     1      -2.040   6.729   3.896  0.00  0.00    +0.029 A 
BRANCH  15  16
ATOM     16  S   UNL     1      -1.054   7.767   2.869  0.00  0.00    -0.127 S 
ATOM     17  C   UNL     1      -1.111   9.382   3.693  0.00  0.00    +0.090 C 
ENDBRANCH  15  16
ENDBRANCH   8  10
ENDBRANCH   4   6
ENDBRANCH   2   4
BRANCH   2  18
ATOM     18  C   UNL     1       0.434   1.191   2.380  0.00  0.00    +0.020 C 
BRANCH  18  20
ATOM     19  N   UNL     1       1.111  -0.838   3.623  0.00  0.00    -0.287 N 
ATOM     20  C   UNL     1       0.358  -0.290   2.648  0.00  0.00    +0.201 C 
ATOM     21  O   UNL     1      -0.381  -0.989   1.988  0.00  0.00    -0.278 OA
ATOM     22  H   UNL     1       1.650  -0.271   4.196  0.00  0.00    +0.155 HD
BRANCH  19  28
ATOM     23  C   UNL     1       3.535  -4.936   4.850  0.00  0.00    +0.044 C 
ATOM     24  C   UNL     1       2.277  -4.237   4.400  0.00  0.00    -0.046 A 
ATOM     25  C   UNL     1       1.126  -4.968   4.170  0.00  0.00    +0.004 A 
ATOM     26  C   UNL     1      -0.030  -4.331   3.758  0.00  0.00    +0.002 A 
ATOM     27  C   UNL     1      -0.038  -2.962   3.576  0.00  0.00    +0.023 A 
ATOM     28  C   UNL     1       1.116  -2.225   3.806  0.00  0.00    +0.036 A 
ATOM     29  C   UNL     1       2.277  -2.869   4.214  0.00  0.00    -0.026 A 
ATOM     30  C   UNL     1       3.534  -2.075   4.459  0.00  0.00    +0.046 C 
ENDBRANCH  19  28
ENDBRANCH  18  20
ENDBRANCH   2  18
TORSDOF 7
