REMARK  Name = ZINC35967434
REMARK  9 active torsions:
REMARK  status: ('A' for Active; 'I' for Inactive)
REMARK    1  A    between atoms: C_1  and  C_2
REMARK    2  A    between atoms: C_2  and  N_3
REMARK    3  A    between atoms: C_6  and  C_11
REMARK    4  A    between atoms: C_14  and  C_18
REMARK    5  A    between atoms: C_16  and  C_17
REMARK    6  A    between atoms: N_21  and  C_23
REMARK    7  A    between atoms: C_23  and  C_25
REMARK    8  A    between atoms: C_23  and  C_32
REMARK    9  A    between atoms: C_25  and  C_26
REMARK                            x       y       z     vdW  Elec       q    Type
REMARK                         _______ _______ _______ _____ _____    ______ ____
ROOT
ATOM      1  N   UNL     1       1.409  -0.856  -1.775  0.00  0.00    -0.257 N 
ATOM      2  C   UNL     1       0.696  -1.171  -2.897  0.00  0.00    +0.042 C 
ATOM      3  C   UNL     1       1.311  -1.579  -4.025  0.00  0.00    +0.058 C 
ATOM      4  C   UNL     1       2.823  -1.677  -4.006  0.00  0.00    +0.142 C 
ATOM      5  N   UNL     1       3.499  -1.317  -2.749  0.00  0.00    -0.288 N 
ATOM      6  C   UNL     1       2.745  -0.920  -1.705  0.00  0.00    +0.307 C 
ATOM      7  O   UNL     1       3.294  -0.616  -0.664  0.00  0.00    -0.252 OA
ATOM      8  C   UNL     1       0.362  -1.841  -5.034  0.00  0.00    +0.247 C 
ATOM      9  O   UNL     1       0.639  -2.224  -6.156  0.00  0.00    -0.270 OA
ATOM     10  N   UNL     1      -0.889  -1.613  -4.595  0.00  0.00    -0.280 N 
ATOM     11  C   UNL     1      -0.786  -1.167  -3.198  0.00  0.00    +0.160 C 
ATOM     12  H   UNL     1       4.466  -1.359  -2.675  0.00  0.00    +0.151 HD
ENDROOT
BRANCH   4  13
ATOM     13  C   UNL     1       3.360  -0.785  -5.095  0.00  0.00    -0.020 A 
ATOM     14  C   UNL     1       2.586   0.251  -5.584  0.00  0.00    +0.006 A 
ATOM     15  C   UNL     1       3.079   1.070  -6.583  0.00  0.00    +0.004 A 
ATOM     16  C   UNL     1       4.346   0.854  -7.092  0.00  0.00    -0.050 A 
ATOM     17  C   UNL     1       5.120  -0.181  -6.602  0.00  0.00    +0.007 A 
ATOM     18  C   UNL     1       4.629  -0.998  -5.600  0.00  0.00    -0.045 A 
ATOM     19  C   UNL     1       5.475  -2.123  -5.063  0.00  0.00    +0.044 C 
ATOM     20  C   UNL     1       4.883   1.746  -8.181  0.00  0.00    +0.044 C 
ENDBRANCH   4  13
BRANCH   1  22
ATOM     21  C   UNL     1       0.506   1.101  -0.620  0.00  0.00    +0.025 C 
ATOM     22  C   UNL     1       0.673  -0.419  -0.586  0.00  0.00    +0.111 C 
ENDBRANCH   1  22
BRANCH  10  23
ATOM     23  C   UNL     1      -2.124  -1.778  -5.366  0.00  0.00    +0.167 C 
BRANCH  23  24
ATOM     24  C   UNL     1      -2.249  -3.211  -5.815  0.00  0.00    +0.236 C 
ATOM     25  O   UNL     1      -1.256  -3.896  -5.939  0.00  0.00    -0.274 OA
ATOM     26  N   UNL     1      -3.464  -3.731  -6.079  0.00  0.00    -0.300 N 
ATOM     27  C   UNL     1      -4.732  -2.988  -6.077  0.00  0.00    +0.108 C 
ATOM     28  C   UNL     1      -5.854  -3.996  -6.407  0.00  0.00    +0.020 C 
ATOM     29  C   UNL     1      -5.221  -5.359  -6.019  0.00  0.00    +0.020 C 
ATOM     30  C   UNL     1      -3.740  -5.138  -6.423  0.00  0.00    +0.108 C 
ENDBRANCH  23  24
BRANCH  23  31
ATOM     31  C   UNL     1      -2.086  -0.861  -6.591  0.00  0.00    +0.067 C 
BRANCH  31  32
ATOM     32  C   UNL     1      -2.115   0.577  -6.143  0.00  0.00    -0.045 A 
ATOM     33  C   UNL     1      -3.325   1.225  -5.977  0.00  0.00    +0.004 A 
ATOM     34  C   UNL     1      -3.352   2.545  -5.566  0.00  0.00    +0.000 A 
ATOM     35  C   UNL     1      -2.168   3.216  -5.321  0.00  0.00    +0.000 A 
ATOM     36  C   UNL     1      -0.959   2.568  -5.487  0.00  0.00    +0.000 A 
ATOM     37  C   UNL     1      -0.932   1.248  -5.894  0.00  0.00    +0.004 A 
ENDBRANCH  31  32
ENDBRANCH  23  31
ENDBRANCH  10  23
TORSDOF 6
