REMARK  Name = ZINC17195947
REMARK  8 active torsions:
REMARK  status: ('A' for Active; 'I' for Inactive)
REMARK    1  A    between atoms: C_1  and  C_2
REMARK    2  A    between atoms: C_3  and  N_15
REMARK    3  A    between atoms: N_6  and  C_9
REMARK    4  A    between atoms: N_7  and  C_8
REMARK    5  A    between atoms: N_15  and  C_16
REMARK    6  A    between atoms: N_23  and  C_26
REMARK    7  A    between atoms: C_26  and  C_27
REMARK    8  A    between atoms: C_27  and  C_28
REMARK                            x       y       z     vdW  Elec       q    Type
REMARK                         _______ _______ _______ _____ _____    ______ ____
ROOT
ATOM      1  C   UNL     1       0.319  -1.281  -3.514  0.00  0.00    +0.090 C 
ATOM      2  C   UNL     1       0.501  -0.825  -4.809  0.00  0.00    +0.113 C 
ATOM      3  C   UNL     1       0.416   0.608  -5.138  0.00  0.00    +0.256 C 
ATOM      4  O   UNL     1       0.182   1.435  -4.276  0.00  0.00    -0.270 OA
ATOM      5  N   UNL     1       0.606   0.980  -6.421  0.00  0.00    -0.263 N 
ATOM      6  C   UNL     1       0.865   0.080  -7.380  0.00  0.00    +0.146 C 
ATOM      7  S   UNL     1       1.091   0.644  -8.981  0.00  0.00    -0.018 S 
ATOM      8  N   UNL     1       0.956  -1.238  -7.152  0.00  0.00    -0.249 N 
ATOM      9  C   UNL     1       0.796  -1.752  -5.915  0.00  0.00    +0.258 C 
ATOM     10  O   UNL     1       0.886  -2.950  -5.720  0.00  0.00    -0.269 OA
ATOM     11  H   UNL     1       0.553   1.920  -6.655  0.00  0.00    +0.157 HD
ENDROOT
BRANCH   1  12
ATOM     12  N   UNL     1       0.178  -0.401  -2.504  0.00  0.00    -0.314 N 
ATOM     13  H   UNL     1       0.130   0.549  -2.692  0.00  0.00    +0.152 HD
BRANCH  12  16
ATOM     14  C   UNL     1      -0.144   1.408  -0.047  0.00  0.00    +0.067 C 
ATOM     15  C   UNL     1      -0.043  -0.096  -0.071  0.00  0.00    +0.059 A 
ATOM     16  C   UNL     1       0.099  -0.860  -1.178  0.00  0.00    +0.119 A 
ATOM     17  C   UNL     1       0.155  -2.255  -0.737  0.00  0.00    +0.293 A 
ATOM     18  O   UNL     1       0.279  -3.236  -1.448  0.00  0.00    -0.264 OA
ATOM     19  N   UNL     1       0.043  -2.246   0.608  0.00  0.00    -0.216 N 
ATOM     20  N   UNL     1      -0.073  -0.915   1.025  0.00  0.00    -0.282 N 
ATOM     21  C   UNL     1      -0.208  -0.470   2.414  0.00  0.00    +0.171 C 
BRANCH  19  22
ATOM     22  C   UNL     1       0.049  -3.370   1.440  0.00  0.00    +0.067 A 
ATOM     23  C   UNL     1      -0.929  -3.518   2.415  0.00  0.00    +0.028 A 
ATOM     24  C   UNL     1      -0.920  -4.630   3.235  0.00  0.00    +0.002 A 
ATOM     25  C   UNL     1       0.059  -5.594   3.086  0.00  0.00    +0.000 A 
ATOM     26  C   UNL     1       1.034  -5.449   2.116  0.00  0.00    +0.002 A 
ATOM     27  C   UNL     1       1.028  -4.343   1.288  0.00  0.00    +0.028 A 
ENDBRANCH  19  22
ENDBRANCH  12  16
ENDBRANCH   1  12
BRANCH   8  28
ATOM     28  C   UNL     1       1.244  -2.139  -8.271  0.00  0.00    +0.120 C 
BRANCH  28  29
ATOM     29  C   UNL     1       2.757  -2.312  -8.411  0.00  0.00    +0.050 C 
BRANCH  29  30
ATOM     30  C   UNL     1       3.053  -3.240  -9.561  0.00  0.00    -0.072 C 
ATOM     31  C   UNL     1       3.311  -2.712 -10.715  0.00  0.00    -0.028 C 
ATOM     32  C   UNL     1       3.612  -3.505 -11.953  0.00  0.00    +0.027 C 
ATOM     33  C   UNL     1       3.987  -4.941 -11.581  0.00  0.00    +0.004 C 
ATOM     34  C   UNL     1       2.926  -5.486 -10.616  0.00  0.00    +0.005 C 
ATOM     35  C   UNL     1       3.036  -4.717  -9.296  0.00  0.00    +0.030 C 
ENDBRANCH  29  30
ENDBRANCH  28  29
ENDBRANCH   8  28
TORSDOF 6
