REMARK  Name = ZINC26371166
REMARK  12 active torsions:
REMARK  status: ('A' for Active; 'I' for Inactive)
REMARK    1  A    between atoms: C_1  and  C_2
REMARK    2  A    between atoms: C_4  and  C_31
REMARK    3  A    between atoms: C_5  and  N_9
REMARK    4  A    between atoms: C_6  and  C_8
REMARK    5  A    between atoms: C_10  and  C_12
REMARK    6  A    between atoms: C_12  and  N_13
REMARK    7  A    between atoms: N_13  and  C_14
REMARK    8  A    between atoms: N_13  and  C_15
REMARK    9  A    between atoms: C_15  and  C_17
REMARK   10  A    between atoms: C_15  and  C_18
REMARK   11  A    between atoms: N_20  and  C_21
REMARK   12  A    between atoms: C_26  and  N_27
REMARK                            x       y       z     vdW  Elec       q    Type
REMARK                         _______ _______ _______ _____ _____    ______ ____
ROOT
ATOM      1  N   UNL     1       3.261   1.564  -1.369  0.00  0.00    +0.391 N 
ATOM      2  C   UNL     1       3.042   1.669  -2.818  0.00  0.00    -0.094 C 
ATOM      3  H   UNL     1       3.058   2.549  -0.924  0.00  0.00    -0.080 HD
ENDROOT
BRANCH   1   4
ATOM      4  C   UNL     1       4.656   1.213  -1.072  0.00  0.00    +0.017 C 
ATOM      5  C   UNL     1       4.895  -0.260  -1.413  0.00  0.00    -0.004 C 
BRANCH   4   6
ATOM      6  C   UNL     1       4.931   1.440   0.392  0.00  0.00    +0.203 C 
ATOM      7  O   UNL     1       4.031   1.779   1.132  0.00  0.00    -0.277 OA
ATOM      8  N   UNL     1       6.176   1.268   0.879  0.00  0.00    -0.285 N 
ATOM      9  H   UNL     1       7.008   1.050   0.194  0.00  0.00    +0.155 HD
BRANCH   8  10
ATOM     10  C   UNL     1       6.409   1.369   2.255  0.00  0.00    +0.064 A 
ATOM     11  C   UNL     1       5.442   0.943   3.157  0.00  0.00    +0.027 A 
ATOM     12  C   UNL     1       5.675   1.043   4.515  0.00  0.00    +0.022 A 
ATOM     13  C   UNL     1       6.870   1.566   4.977  0.00  0.00    +0.043 A 
ATOM     14  C   UNL     1       7.834   1.990   4.080  0.00  0.00    +0.054 A 
ATOM     15  C   UNL     1       7.609   1.888   2.721  0.00  0.00    +0.149 A 
ATOM     16 CL   UNL     1       7.159   1.690   6.684  0.00  0.00    -0.083 Cl
BRANCH  15  17
ATOM     17  N   UNL     1       8.644   2.336   1.763  0.00  0.00    +0.058 N 
ATOM     18  O   UNL     1       9.736   2.694   2.168  0.00  0.00    -0.126 OA
ATOM     19  O   UNL     1       8.404   2.348   0.569  0.00  0.00    -0.126 OA
ENDBRANCH  15  17
ENDBRANCH   8  10
ENDBRANCH   4   6
ENDBRANCH   1   4
BRANCH   1  20
ATOM     20  C   UNL     1       2.335   0.596  -0.765  0.00  0.00    +0.020 C 
BRANCH  20  22
ATOM     21  N   UNL     1      -0.101   0.389  -0.388  0.00  0.00    -0.287 N 
ATOM     22  C   UNL     1       0.924   1.114  -0.878  0.00  0.00    +0.201 C 
ATOM     23  O   UNL     1       0.711   2.184  -1.409  0.00  0.00    -0.278 OA
ATOM     24  H   UNL     1       0.082  -0.615   0.023  0.00  0.00    +0.155 HD
BRANCH  21  29
ATOM     25  C   UNL     1      -5.362   2.511  -0.449  0.00  0.00    +0.044 C 
ATOM     26  C   UNL     1      -3.964   1.947  -0.433  0.00  0.00    -0.050 A 
ATOM     27  C   UNL     1      -3.721   0.692  -0.959  0.00  0.00    +0.008 A 
ATOM     28  C   UNL     1      -2.441   0.172  -0.945  0.00  0.00    -0.029 A 
ATOM     29  C   UNL     1      -1.399   0.912  -0.403  0.00  0.00    +0.039 A 
ATOM     30  C   UNL     1      -1.647   2.171   0.129  0.00  0.00    -0.029 A 
ATOM     31  C   UNL     1      -2.928   2.687   0.108  0.00  0.00    +0.008 A 
ATOM     32  C   UNL     1      -0.520   2.974   0.724  0.00  0.00    +0.045 C 
ATOM     33  C   UNL     1      -2.177  -1.196  -1.518  0.00  0.00    +0.045 C 
ENDBRANCH  21  29
ENDBRANCH  20  22
ENDBRANCH   1  20
TORSDOF 7
