REMARK  Name = ZINC66149225
REMARK  8 active torsions:
REMARK  status: ('A' for Active; 'I' for Inactive)
REMARK    1  A    between atoms: C_1  and  C_2
REMARK    2  A    between atoms: C_5  and  N_8
REMARK    3  A    between atoms: C_11  and  N_14
REMARK    4  A    between atoms: N_14  and  C_15
REMARK    5  A    between atoms: N_18  and  C_19
REMARK    6  A    between atoms: C_19  and  C_21
REMARK    7  A    between atoms: C_19  and  C_22
REMARK    8  A    between atoms: N_26  and  C_27
REMARK                            x       y       z     vdW  Elec       q    Type
REMARK                         _______ _______ _______ _____ _____    ______ ____
ROOT
ATOM      1  N   UNL     1      -2.097  -0.073   3.720  0.00  0.00    +0.382 N 
ATOM      2  C   UNL     1      -3.477  -0.575   3.724  0.00  0.00    -0.077 C 
ATOM      3  C   UNL     1      -4.221  -0.018   4.940  0.00  0.00    +0.004 C 
ATOM      4  C   UNL     1      -3.509  -0.468   6.218  0.00  0.00    +0.074 C 
ATOM      5  C   UNL     1      -2.051  -0.003   6.169  0.00  0.00    +0.004 C 
ATOM      6  C   UNL     1      -1.386  -0.560   4.908  0.00  0.00    -0.077 C 
ATOM      7  H   UNL     1      -2.108   0.936   3.726  0.00  0.00    -0.081 HD
ENDROOT
BRANCH   1  12
ATOM      8  C   UNL     1      -0.019   1.526   0.010  0.00  0.00    +0.007 C 
ATOM      9  C   UNL     1       0.002  -0.004   0.002  0.00  0.00    -0.014 C 
ATOM     10  C   UNL     1      -1.433  -0.534   0.013  0.00  0.00    +0.002 C 
ATOM     11  C   UNL     1      -2.149  -0.040   1.272  0.00  0.00    -0.015 C 
ATOM     12  C   UNL     1      -1.409  -0.547   2.511  0.00  0.00    -0.069 C 
ATOM     13  C   UNL     1       0.026  -0.018   2.500  0.00  0.00    -0.015 C 
ATOM     14  C   UNL     1       0.742  -0.511   1.242  0.00  0.00    +0.002 C 
ENDBRANCH   1  12
BRANCH   4  15
ATOM     15  N   UNL     1      -4.172   0.124   7.383  0.00  0.00    -0.286 N 
ATOM     16  C   UNL     1      -4.254   1.581   7.518  0.00  0.00    +0.134 C 
ATOM     17  C   UNL     1      -4.708  -0.671   8.330  0.00  0.00    +0.303 C 
ATOM     18  O   UNL     1      -4.640  -1.880   8.218  0.00  0.00    -0.253 OA
ATOM     19  N   UNL     1      -5.318  -0.127   9.401  0.00  0.00    -0.290 N 
ATOM     20  H   UNL     1      -5.372   0.837   9.491  0.00  0.00    +0.151 HD
BRANCH  19  21
ATOM     21  C   UNL     1      -5.900  -0.992  10.431  0.00  0.00    +0.139 C 
ATOM     22  C   UNL     1      -4.816  -1.390  11.434  0.00  0.00    +0.036 C 
BRANCH  21  23
ATOM     23  C   UNL     1      -7.000  -0.250  11.146  0.00  0.00    +0.153 A 
ATOM     24  N   UNL     1      -6.951   0.982  11.573  0.00  0.00    -0.133 NA
ATOM     25  N   UNL     1      -8.065   1.289  12.137  0.00  0.00    -0.138 NA
ATOM     26  C   UNL     1      -8.875   0.267  12.095  0.00  0.00    +0.224 A 
ATOM     27  N   UNL     1      -8.224  -0.738  11.461  0.00  0.00    -0.319 N 
ATOM     28  C   UNL     1      -8.738  -2.080  11.176  0.00  0.00    +0.151 C 
ENDBRANCH  21  23
ENDBRANCH  19  21
ENDBRANCH   4  15
TORSDOF 4
