REMARK  Name = ZINC66599457
REMARK  8 active torsions:
REMARK  status: ('A' for Active; 'I' for Inactive)
REMARK    1  A    between atoms: C_1  and  C_2
REMARK    2  A    between atoms: C_2  and  C_3
REMARK    3  A    between atoms: C_3  and  C_4
REMARK    4  A    between atoms: C_4  and  N_5
REMARK    5  A    between atoms: C_10  and  C_12
REMARK    6  A    between atoms: C_12  and  N_13
REMARK    7  A    between atoms: N_24  and  C_25
REMARK    8  A    between atoms: N_24  and  C_26
REMARK                            x       y       z     vdW  Elec       q    Type
REMARK                         _______ _______ _______ _____ _____    ______ ____
ROOT
ATOM      1  N   UNL     1       0.390  -3.772   0.355  0.00  0.00    -0.301 N 
ATOM      2  C   UNL     1       0.427  -4.210  -0.919  0.00  0.00    +0.302 C 
ATOM      3  O   UNL     1       0.843  -5.325  -1.168  0.00  0.00    -0.253 OA
ATOM      4  N   UNL     1       0.001  -3.412  -1.919  0.00  0.00    -0.283 N 
ATOM      5  C   UNL     1      -0.391  -2.021  -1.650  0.00  0.00    +0.128 C 
ATOM      6  C   UNL     1       0.429  -1.096  -2.558  0.00  0.00    +0.128 C 
ATOM      7  N   UNL     1       0.349  -1.601  -3.936  0.00  0.00    -0.283 N 
ATOM      8  C   UNL     1       0.741  -2.992  -4.205  0.00  0.00    +0.128 C 
ATOM      9  C   UNL     1      -0.074  -3.914  -3.297  0.00  0.00    +0.128 C 
ATOM     10  C   UNL     1      -0.076  -0.803  -4.936  0.00  0.00    +0.304 C 
ATOM     11  O   UNL     1      -0.699   0.210  -4.681  0.00  0.00    -0.252 OA
ATOM     12  N   UNL     1       0.188  -1.127  -6.216  0.00  0.00    -0.292 N 
ATOM     13  C   UNL     1      -0.428  -0.367  -7.307  0.00  0.00    +0.133 C 
ATOM     14  C   UNL     1       1.093  -2.239  -6.519  0.00  0.00    +0.133 C 
ATOM     15  H   UNL     1      -0.010  -2.913   0.561  0.00  0.00    +0.150 HD
ENDROOT
BRANCH   1  16
ATOM     16  C   UNL     1       0.956  -4.594   1.428  0.00  0.00    +0.090 C 
BRANCH  16  22
ATOM     17  N   UNL     1      -0.765  -3.679   2.908  0.00  0.00    +0.383 N 
ATOM     18  C   UNL     1      -1.054  -3.115   4.232  0.00  0.00    -0.078 C 
ATOM     19  C   UNL     1      -0.357  -1.761   4.377  0.00  0.00    -0.019 C 
ATOM     20  C   UNL     1       1.155  -1.952   4.221  0.00  0.00    -0.003 C 
ATOM     21  C   UNL     1       1.439  -2.610   2.867  0.00  0.00    -0.014 C 
ATOM     22  C   UNL     1       0.675  -3.932   2.779  0.00  0.00    -0.051 C 
ATOM     23  H   UNL     1      -1.056  -3.027   2.196  0.00  0.00    -0.081 HD
BRANCH  17  24
ATOM     24  C   UNL     1      -1.499  -4.941   2.745  0.00  0.00    -0.078 C 
BRANCH  24  25
ATOM     25  C   UNL     1      -3.003  -4.659   2.735  0.00  0.00    -0.019 C 
BRANCH  25  27
ATOM     26  C   UNL     1      -5.270  -5.706   2.797  0.00  0.00    +0.004 C 
ATOM     27  C   UNL     1      -3.770  -5.982   2.682  0.00  0.00    -0.005 C 
ENDBRANCH  25  27
ENDBRANCH  24  25
ENDBRANCH  17  24
ENDBRANCH  16  22
ENDBRANCH   1  16
TORSDOF 5
