REMARK  Name = ZINC13065399
REMARK  8 active torsions:
REMARK  status: ('A' for Active; 'I' for Inactive)
REMARK    1  A    between atoms: C_4  and  C_7
REMARK    2  A    between atoms: C_7  and  N_8
REMARK    3  A    between atoms: C_9  and  C_13
REMARK    4  A    between atoms: C_13  and  N_57
REMARK    5  A    between atoms: C_14  and  C_15
REMARK    6  A    between atoms: C_14  and  N_57
REMARK    7  A    between atoms: C_20  and  C_21
REMARK    8  A    between atoms: C_20  and  N_57
REMARK                            x       y       z     vdW  Elec       q    Type
REMARK                         _______ _______ _______ _____ _____    ______ ____
ROOT
ATOM      1  N   UNL     1       2.913   1.117  -1.626  0.00  0.00    +0.390 N 
ATOM      2  H   UNL     1       2.835   1.897  -2.288  0.00  0.00    -0.080 HD
ENDROOT
BRANCH   1   3
ATOM      3  C   UNL     1       4.343   0.851  -1.364  0.00  0.00    +0.001 C 
BRANCH   3   5
ATOM      4  N   UNL     1       5.351   2.784  -0.042  0.00  0.00    -0.227 N 
ATOM      5  C   UNL     1       5.058   2.167  -1.202  0.00  0.00    +0.135 A 
ATOM      6  N   UNL     1       5.519   2.931  -2.162  0.00  0.00    -0.115 NA
ATOM      7  N   UNL     1       6.061   3.967  -1.620  0.00  0.00    -0.023 NA
ATOM      8  N   UNL     1       5.964   3.881  -0.340  0.00  0.00    -0.044 NA
BRANCH   4   9
ATOM      9  C   UNL     1       5.035   2.303   1.305  0.00  0.00    +0.182 C 
BRANCH   9  13
ATOM     10  C   UNL     1       8.255  -0.102   2.752  0.00  0.00    +0.000 A 
ATOM     11  C   UNL     1       8.250   1.260   2.987  0.00  0.00    +0.000 A 
ATOM     12  C   UNL     1       7.208   2.039   2.518  0.00  0.00    +0.005 A 
ATOM     13  C   UNL     1       6.171   1.454   1.815  0.00  0.00    -0.026 A 
ATOM     14  C   UNL     1       6.173   0.091   1.585  0.00  0.00    +0.005 A 
ATOM     15  C   UNL     1       7.218  -0.686   2.048  0.00  0.00    +0.000 A 
ENDBRANCH   9  13
ENDBRANCH   4   9
ENDBRANCH   3   5
ENDBRANCH   1   3
BRANCH   1  16
ATOM     16  C   UNL     1       2.276  -0.079  -2.216  0.00  0.00    -0.035 C 
BRANCH  16  17
ATOM     17  C   UNL     1       2.747  -0.226  -3.639  0.00  0.00    -0.027 A 
ATOM     18  C   UNL     1       3.753  -0.990  -4.131  0.00  0.00    +0.009 A 
ATOM     19  C   UNL     1       4.007  -0.970  -5.490  0.00  0.00    +0.008 A 
ATOM     20  C   UNL     1       3.249  -0.179  -6.289  0.00  0.00    +0.045 A 
ATOM     21  S   UNL     1       2.130   0.566  -5.115  0.00  0.00    -0.103 S 
ENDBRANCH  16  17
ENDBRANCH   1  16
BRANCH   1  22
ATOM     22  C   UNL     1       2.229   1.485  -0.368  0.00  0.00    -0.036 C 
BRANCH  22  23
ATOM     23  C   UNL     1       0.837   1.962  -0.693  0.00  0.00    +0.001 A 
ATOM     24  C   UNL     1      -0.208   1.100  -0.618  0.00  0.00    +0.017 A 
ATOM     25  C   UNL     1      -1.546   1.592  -0.945  0.00  0.00    +0.002 A 
ATOM     26  C   UNL     1      -2.662   0.748  -0.881  0.00  0.00    +0.059 A 
ATOM     27  C   UNL     1      -3.910   1.242  -1.187  0.00  0.00    +0.167 A 
ATOM     28  C   UNL     1      -4.067   2.585  -1.555  0.00  0.00    +0.168 A 
ATOM     29  C   UNL     1      -2.971   3.426  -1.617  0.00  0.00    +0.075 A 
ATOM     30  C   UNL     1      -1.705   2.943  -1.312  0.00  0.00    +0.053 A 
ATOM     31  N   UNL     1      -0.601   3.768  -1.369  0.00  0.00    -0.322 N 
ATOM     32  H   UNL     1      -0.711   4.697  -1.625  0.00  0.00    +0.169 HD
ATOM     33  C   UNL     1       0.626   3.303  -1.073  0.00  0.00    +0.251 A 
ATOM     34  O   UNL     1       1.579   4.061  -1.134  0.00  0.00    -0.268 OA
ATOM     35  O   UNL     1      -5.389   2.814  -1.802  0.00  0.00    -0.453 OA
ATOM     36  C   UNL     1      -6.092   1.718  -1.187  0.00  0.00    +0.466 C 
ATOM     37  O   UNL     1      -5.137   0.641  -1.206  0.00  0.00    -0.453 OA
ENDBRANCH  22  23
ENDBRANCH   1  22
TORSDOF 8
