REMARK  Name = ZINC03373917
REMARK  10 active torsions:
REMARK  status: ('A' for Active; 'I' for Inactive)
REMARK    1  A    between atoms: C_1  and  C_2
REMARK    2  A    between atoms: C_2  and  N_3
REMARK    3  A    between atoms: C_14  and  N_16
REMARK    4  A    between atoms: C_17  and  C_19
REMARK    5  A    between atoms: C_19  and  O_20
REMARK    6  A    between atoms: O_20  and  C_21
REMARK    7  A    between atoms: C_21  and  C_23
REMARK    8  A    between atoms: C_24  and  C_25
REMARK    9  A    between atoms: C_26  and  C_39
REMARK   10  A    between atoms: N_28  and  C_31
REMARK                            x       y       z     vdW  Elec       q    Type
REMARK                         _______ _______ _______ _____ _____    ______ ____
ROOT
ATOM      1  C   UNL     1      -0.971  11.289   0.281  0.00  0.00    +0.328 C 
ENDROOT
BRANCH   1   3
ATOM      2  N   UNL     1      -0.711   8.840   0.052  0.00  0.00    -0.283 N 
ATOM      3  C   UNL     1      -0.124  10.049   0.153  0.00  0.00    +0.255 C 
ATOM      4  O   UNL     1       1.085  10.139   0.142  0.00  0.00    -0.272 OA
ATOM      5  H   UNL     1      -1.677   8.773  -0.006  0.00  0.00    +0.155 HD
BRANCH   2  17
ATOM      6  N   UNL     1       2.574   4.375  -0.162  0.00  0.00    -0.340 N 
ATOM      7  C   UNL     1       3.660   4.870  -0.862  0.00  0.00    +0.050 A 
ATOM      8  C   UNL     1       4.855   4.286  -1.271  0.00  0.00    +0.026 A 
ATOM      9  C   UNL     1       5.782   5.029  -1.969  0.00  0.00    +0.002 A 
ATOM     10  C   UNL     1       5.539   6.361  -2.266  0.00  0.00    +0.001 A 
ATOM     11  C   UNL     1       4.358   6.955  -1.875  0.00  0.00    +0.010 A 
ATOM     12  C   UNL     1       3.413   6.216  -1.168  0.00  0.00    +0.008 A 
ATOM     13  C   UNL     1       2.087   6.537  -0.609  0.00  0.00    +0.009 A 
ATOM     14  C   UNL     1       1.617   5.364   0.000  0.00  0.00    +0.050 A 
ATOM     15  C   UNL     1       0.371   5.367   0.620  0.00  0.00    +0.028 A 
ATOM     16  C   UNL     1      -0.391   6.515   0.634  0.00  0.00    +0.025 A 
ATOM     17  C   UNL     1       0.074   7.679   0.031  0.00  0.00    +0.034 A 
ATOM     18  C   UNL     1       1.310   7.693  -0.591  0.00  0.00    +0.034 A 
BRANCH   6  20
ATOM     19  C   UNL     1       3.029   2.921   1.751  0.00  0.00    +0.027 C 
ATOM     20  C   UNL     1       2.452   3.003   0.336  0.00  0.00    +0.119 C 
ENDBRANCH   6  20
ENDBRANCH   2  17
ENDBRANCH   1   3
BRANCH   1  21
ATOM     21  O   UNL     1      -0.123  12.437   0.373  0.00  0.00    -0.452 OA
BRANCH  21  22
ATOM     22  C   UNL     1      -0.729  13.637   0.493  0.00  0.00    +0.332 C 
ATOM     23  O   UNL     1      -1.943  13.706   0.519  0.00  0.00    -0.246 OA
BRANCH  22  24
ATOM     24  C   UNL     1       0.049  14.815   0.588  0.00  0.00    +0.092 C 
ATOM     25  C   UNL     1      -0.557  16.018   0.708  0.00  0.00    +0.020 C 
BRANCH  25  26
ATOM     26  C   UNL     1       0.250  17.240   0.807  0.00  0.00    +0.034 A 
ATOM     27  C   UNL     1       0.091  18.418   0.039  0.00  0.00    +0.069 A 
ATOM     28  N   UNL     1       0.994  19.276   0.423  0.00  0.00    -0.174 NA
ATOM     29  N   UNL     1       1.771  18.699   1.433  0.00  0.00    -0.248 N 
ATOM     30  C   UNL     1       1.315  17.456   1.667  0.00  0.00    +0.135 A 
ATOM     31 CL   UNL     1       1.943  16.331   2.830  0.00  0.00    -0.062 Cl
ATOM     32  C   UNL     1      -0.944  18.642  -1.034  0.00  0.00    +0.068 C 
BRANCH  29  33
ATOM     33  C   UNL     1       2.894  19.342   2.122  0.00  0.00    +0.131 C 
ATOM     34  C   UNL     1       3.983  19.700   1.097  0.00  0.00    +0.051 C 
ATOM     35  C   UNL     1       5.005  20.648   1.788  0.00  0.00    +0.168 C 
ATOM     36  S   UNL     1       3.865  21.726   2.753  0.00  0.00    -0.029 S 
ATOM     37  O   UNL     1       3.543  22.871   1.976  0.00  0.00    -0.174 OA
ATOM     38  O   UNL     1       4.387  21.895   4.064  0.00  0.00    -0.174 OA
ATOM     39  C   UNL     1       2.395  20.624   2.832  0.00  0.00    +0.192 C 
ENDBRANCH  29  33
ENDBRANCH  25  26
ENDBRANCH  22  24
ENDBRANCH  21  22
ENDBRANCH   1  21
TORSDOF 8
