REMARK  Name = ZINC48792133
REMARK  4 active torsions:
REMARK  status: ('A' for Active; 'I' for Inactive)
REMARK    1  A    between atoms: C_1  and  C_2
REMARK    2  A    between atoms: C_2  and  C_4
REMARK    3  A    between atoms: C_2  and  N_16
REMARK    4  A    between atoms: C_17  and  C_19
REMARK                            x       y       z     vdW  Elec       q    Type
REMARK                         _______ _______ _______ _____ _____    ______ ____
ROOT
ATOM      1  C   UNL     1      -1.412  -0.526   0.013  0.00  0.00    -0.025 A 
ATOM      2  C   UNL     1      -2.121  -0.570   1.201  0.00  0.00    +0.007 A 
ATOM      3  C   UNL     1      -3.417  -1.046   1.221  0.00  0.00    +0.028 A 
ATOM      4  C   UNL     1      -4.011  -1.482   0.046  0.00  0.00    +0.067 A 
ATOM      5  C   UNL     1      -3.295  -1.438  -1.153  0.00  0.00    +0.067 A 
ATOM      6  C   UNL     1      -1.996  -0.953  -1.164  0.00  0.00    +0.033 A 
ATOM      7  N   UNL     1      -4.139  -1.932  -2.144  0.00  0.00    -0.306 N 
ATOM      8  H   UNL     1      -3.918  -2.023  -3.084  0.00  0.00    +0.170 HD
ATOM      9  C   UNL     1      -5.314  -2.262  -1.575  0.00  0.00    +0.325 A 
ATOM     10  O   UNL     1      -6.272  -2.725  -2.165  0.00  0.00    -0.247 OA
ATOM     11  N   UNL     1      -5.267  -2.002  -0.255  0.00  0.00    -0.306 N 
ATOM     12  H   UNL     1      -5.986  -2.151   0.379  0.00  0.00    +0.170 HD
ENDROOT
BRANCH   1  14
ATOM     13  C   UNL     1      -0.019   1.526   0.010  0.00  0.00    +0.033 C 
ATOM     14  C   UNL     1       0.002  -0.004   0.002  0.00  0.00    +0.100 C 
BRANCH  14  15
ATOM     15  N   UNL     1       0.711  -0.489   1.189  0.00  0.00    -0.304 N 
ATOM     16  C   UNL     1       2.054  -0.600   1.174  0.00  0.00    +0.254 C 
ATOM     17  O   UNL     1       2.678  -0.297   0.175  0.00  0.00    -0.270 OA
ATOM     18  H   UNL     1       0.213  -0.731   1.986  0.00  0.00    +0.150 HD
BRANCH  16  19
ATOM     19  C   UNL     1       2.766  -1.087   2.366  0.00  0.00    +0.114 A 
ATOM     20  C   UNL     1       4.126  -1.275   2.579  0.00  0.00    +0.157 A 
ATOM     21  N   UNL     1       4.431  -1.729   3.770  0.00  0.00    -0.149 NA
ATOM     22  N   UNL     1       3.537  -1.977   4.660  0.00  0.00    -0.110 NA
ATOM     23  S   UNL     1       2.128  -1.599   3.953  0.00  0.00    +0.041 S 
ENDBRANCH  16  19
ENDBRANCH  14  15
ENDBRANCH   1  14
TORSDOF 3
