REMARK  Name = ZINC39889634
REMARK  7 active torsions:
REMARK  status: ('A' for Active; 'I' for Inactive)
REMARK    1  A    between atoms: C_1  and  O_2
REMARK    2  A    between atoms: O_2  and  C_3
REMARK    3  A    between atoms: C_3  and  C_4
REMARK    4  A    between atoms: C_4  and  C_5
REMARK    5  A    between atoms: C_5  and  N_6
REMARK    6  A    between atoms: N_27  and  C_30
REMARK    7  A    between atoms: C_30  and  C_31
REMARK                            x       y       z     vdW  Elec       q    Type
REMARK                         _______ _______ _______ _____ _____    ______ ____
ROOT
ATOM      1  N   UNL     1       1.312  -4.188   2.103  0.00  0.00    -0.273 N 
ATOM      2  C   UNL     1       0.349  -4.996   2.594  0.00  0.00    +0.284 C 
ATOM      3  O   UNL     1      -0.634  -4.620   3.201  0.00  0.00    -0.267 OA
ATOM      4  C   UNL     1       0.664  -6.403   2.286  0.00  0.00    +0.200 A 
ATOM      5  C   UNL     1       1.843  -6.437   1.595  0.00  0.00    +0.084 A 
ATOM      6  C   UNL     1       2.417  -7.710   1.144  0.00  0.00    +0.199 A 
ATOM      7  O   UNL     1       3.541  -7.809   0.684  0.00  0.00    -0.287 OA
ATOM      8  C   UNL     1       1.499  -8.865   1.302  0.00  0.00    +0.064 A 
ATOM      9  C   UNL     1       1.815 -10.102   0.739  0.00  0.00    +0.015 A 
ATOM     10  C   UNL     1       0.956 -11.155   0.888  0.00  0.00    +0.001 A 
ATOM     11  C   UNL     1      -0.227 -10.996   1.595  0.00  0.00    +0.004 A 
ATOM     12  C   UNL     1      -0.555  -9.783   2.158  0.00  0.00    +0.047 A 
ATOM     13  C   UNL     1       0.306  -8.694   2.024  0.00  0.00    +0.139 A 
ATOM     14  O   UNL     1      -0.029  -7.516   2.596  0.00  0.00    -0.450 OA
ATOM     15  C   UNL     1       2.310  -5.032   1.438  0.00  0.00    +0.174 C 
ATOM     16  C   UNL     1       2.488  -4.643   0.005  0.00  0.00    +0.011 A 
ATOM     17  C   UNL     1       1.606  -4.621  -1.053  0.00  0.00    +0.008 A 
ATOM     18  C   UNL     1       2.104  -4.197  -2.281  0.00  0.00    +0.000 A 
ATOM     19  C   UNL     1       3.422  -3.816  -2.429  0.00  0.00    +0.002 A 
ATOM     20  C   UNL     1       4.315  -3.836  -1.369  0.00  0.00    +0.024 A 
ATOM     21  C   UNL     1       3.828  -4.260  -0.132  0.00  0.00    +0.043 A 
ATOM     22  N   UNL     1       4.489  -4.379   1.079  0.00  0.00    -0.264 N 
ATOM     23  C   UNL     1       3.674  -4.828   2.057  0.00  0.00    +0.253 C 
ATOM     24  O   UNL     1       3.979  -5.029   3.214  0.00  0.00    -0.272 OA
ENDROOT
BRANCH   1  25
ATOM     25  C   UNL     1       1.351  -2.727   2.211  0.00  0.00    +0.112 C 
BRANCH  25  26
ATOM     26  C   UNL     1       0.633  -2.108   1.011  0.00  0.00    +0.047 C 
BRANCH  26  27
ATOM     27  C   UNL     1       0.673  -0.582   1.123  0.00  0.00    +0.161 C 
BRANCH  27  29
ATOM     28  C   UNL     1      -0.017   1.425   0.010  0.00  0.00    +0.193 C 
ATOM     29  O   UNL     1       0.002  -0.004   0.002  0.00  0.00    -0.383 OA
ENDBRANCH  27  29
ENDBRANCH  26  27
ENDBRANCH  25  26
ENDBRANCH   1  25
BRANCH  22  30
ATOM     30  C   UNL     1       5.904  -4.056   1.275  0.00  0.00    +0.148 C 
BRANCH  30  31
ATOM     31  C   UNL     1       6.039  -2.607   1.665  0.00  0.00    -0.030 A 
ATOM     32  C   UNL     1       6.186  -1.639   0.689  0.00  0.00    +0.008 A 
ATOM     33  C   UNL     1       6.310  -0.310   1.045  0.00  0.00    +0.038 A 
ATOM     34  C   UNL     1       6.286   0.053   2.381  0.00  0.00    +0.123 A 
ATOM     35  C   UNL     1       6.138  -0.917   3.358  0.00  0.00    +0.038 A 
ATOM     36  C   UNL     1       6.010  -2.245   2.999  0.00  0.00    +0.008 A 
ATOM     37  F   UNL     1       6.407   1.353   2.731  0.00  0.00    -0.205 F 
ENDBRANCH  30  31
ENDBRANCH  22  30
TORSDOF 6
