REMARK  Name = ZINC42117447
REMARK  4 active torsions:
REMARK  status: ('A' for Active; 'I' for Inactive)
REMARK    1  A    between atoms: C_1  and  C_2
REMARK    2  A    between atoms: C_11  and  N_13
REMARK    3  A    between atoms: N_13  and  C_14
REMARK    4  A    between atoms: C_18  and  O_20
REMARK                            x       y       z     vdW  Elec       q    Type
REMARK                         _______ _______ _______ _____ _____    ______ ____
ROOT
ATOM      1  C   UNL     1      -0.018   1.503   0.010  0.00  0.00    +0.046 C 
ATOM      2  C   UNL     1       0.002  -0.004   0.002  0.00  0.00    -0.028 A 
ATOM      3  C   UNL     1       0.006  -0.686  -1.198  0.00  0.00    +0.020 A 
ATOM      4  C   UNL     1       0.024  -2.069  -1.216  0.00  0.00    +0.019 A 
ATOM      5  C   UNL     1       0.039  -2.773  -0.023  0.00  0.00    +0.023 A 
ATOM      6  C   UNL     1       0.036  -2.095   1.175  0.00  0.00    +0.004 A 
ATOM      7  C   UNL     1       0.023  -0.706   1.206  0.00  0.00    +0.042 A 
ATOM      8  N   UNL     1       0.029  -0.253   2.526  0.00  0.00    -0.283 N 
ATOM      9  C   UNL     1       0.051  -1.264   3.410  0.00  0.00    +0.242 C 
ATOM     10  O   UNL     1       0.061  -1.163   4.619  0.00  0.00    -0.273 OA
ATOM     11  C   UNL     1       0.049  -2.552   2.615  0.00  0.00    +0.190 C 
ATOM     12 BR   UNL     1       0.028  -2.996  -2.864  0.00  0.00    -0.050 Br
ATOM     13  H   UNL     1       0.019   0.685   2.776  0.00  0.00    +0.155 HD
ENDROOT
BRANCH  11  14
ATOM     14  N   UNL     1       1.265  -3.318   2.899  0.00  0.00    -0.329 N 
ATOM     15  H   UNL     1       2.063  -3.176   2.367  0.00  0.00    +0.147 HD
BRANCH  14  16
ATOM     16  C   UNL     1       1.274  -4.254   3.936  0.00  0.00    +0.031 A 
ATOM     17  C   UNL     1       0.129  -4.463   4.695  0.00  0.00    +0.023 A 
ATOM     18  C   UNL     1       0.139  -5.388   5.720  0.00  0.00    +0.005 A 
ATOM     19  C   UNL     1       1.286  -6.109   5.994  0.00  0.00    +0.045 A 
ATOM     20  C   UNL     1       2.432  -5.905   5.239  0.00  0.00    +0.119 A 
ATOM     21  C   UNL     1       2.426  -4.980   4.206  0.00  0.00    +0.068 A 
BRANCH  20  22
ATOM     22  O   UNL     1       3.559  -6.614   5.510  0.00  0.00    -0.507 OA
ATOM     23  H   UNL     1       3.626  -7.447   5.023  0.00  0.00    +0.292 HD
ENDBRANCH  20  22
ENDBRANCH  14  16
ENDBRANCH  11  14
TORSDOF 3
