REMARK  Name = ZINC03482213
REMARK  6 active torsions:
REMARK  status: ('A' for Active; 'I' for Inactive)
REMARK    1  A    between atoms: C_1  and  C_2
REMARK    2  A    between atoms: C_2  and  C_4
REMARK    3  A    between atoms: C_2  and  O_16
REMARK    4  A    between atoms: N_6  and  C_7
REMARK    5  A    between atoms: O_16  and  C_17
REMARK    6  A    between atoms: C_17  and  C_19
REMARK                            x       y       z     vdW  Elec       q    Type
REMARK                         _______ _______ _______ _____ _____    ______ ____
ROOT
ATOM      1  O   UNL     1       1.301  -2.834   1.142  0.00  0.00    -0.449 OA
ENDROOT
BRANCH   1   3
ATOM      2  C   UNL     1       2.804  -4.745   1.003  0.00  0.00    +0.062 C 
ATOM      3  C   UNL     1       1.347  -4.283   1.057  0.00  0.00    +0.259 C 
BRANCH   3   4
ATOM      4  C   UNL     1       0.676  -4.878   2.268  0.00  0.00    +0.258 C 
ATOM      5  O   UNL     1       0.205  -4.153   3.118  0.00  0.00    -0.271 OA
ATOM      6  N   UNL     1       0.598  -6.217   2.405  0.00  0.00    -0.282 N 
ATOM      7  H   UNL     1       0.914  -6.797   1.695  0.00  0.00    +0.155 HD
BRANCH   6   8
ATOM      8  C   UNL     1       0.062  -6.771   3.575  0.00  0.00    +0.037 A 
ATOM      9  C   UNL     1       0.574  -7.959   4.079  0.00  0.00    +0.027 A 
ATOM     10  C   UNL     1       0.049  -8.505   5.234  0.00  0.00    +0.051 A 
ATOM     11  C   UNL     1      -0.996  -7.873   5.889  0.00  0.00    +0.166 A 
ATOM     12  C   UNL     1      -1.516  -6.684   5.383  0.00  0.00    +0.168 A 
ATOM     13  C   UNL     1      -0.986  -6.135   4.227  0.00  0.00    +0.072 A 
ATOM     14  O   UNL     1      -2.527  -6.267   6.200  0.00  0.00    -0.453 OA
ATOM     15  C   UNL     1      -2.893  -7.421   6.979  0.00  0.00    +0.466 C 
ATOM     16  O   UNL     1      -1.683  -8.201   7.023  0.00  0.00    -0.453 OA
ENDBRANCH   6   8
ENDBRANCH   3   4
ENDBRANCH   1   3
BRANCH   1  17
ATOM     17  C   UNL     1       1.259  -2.155  -0.021  0.00  0.00    +0.341 C 
ATOM     18  O   UNL     1       1.261  -2.756  -1.076  0.00  0.00    -0.245 OA
BRANCH  17  19
ATOM     19  C   UNL     1       1.211  -0.677  -0.012  0.00  0.00    +0.073 A 
ATOM     20  C   UNL     1       2.401   0.092  -0.028  0.00  0.00    +0.015 A 
ATOM     21  C   UNL     1       3.664  -0.513  -0.054  0.00  0.00    +0.011 A 
ATOM     22  C   UNL     1       4.784   0.264  -0.070  0.00  0.00    +0.001 A 
ATOM     23  C   UNL     1       4.688   1.654  -0.061  0.00  0.00    +0.002 A 
ATOM     24  C   UNL     1       3.478   2.274  -0.035  0.00  0.00    +0.028 A 
ATOM     25  C   UNL     1       2.299   1.505  -0.018  0.00  0.00    +0.072 A 
ATOM     26  N   UNL     1       1.099   2.087   0.007  0.00  0.00    -0.251 NA
ATOM     27  C   UNL     1      -0.018   1.393   0.021  0.00  0.00    +0.046 A 
ATOM     28  C   UNL     1      -0.002  -0.001   0.012  0.00  0.00    -0.012 A 
ATOM     29  C   UNL     1      -1.419  -0.530   0.031  0.00  0.00    +0.038 C 
ATOM     30  C   UNL     1      -2.302   0.665  -0.389  0.00  0.00    +0.011 C 
ATOM     31  C   UNL     1      -1.455   1.878   0.055  0.00  0.00    +0.056 C 
ENDBRANCH  17  19
ENDBRANCH   1  17
TORSDOF 5
