REMARK  Name = ZINC64920986
REMARK  5 active torsions:
REMARK  status: ('A' for Active; 'I' for Inactive)
REMARK    1  A    between atoms: C_1  and  C_2
REMARK    2  A    between atoms: C_7  and  S_8
REMARK    3  A    between atoms: S_8  and  N_11
REMARK    4  A    between atoms: C_15  and  C_17
REMARK    5  A    between atoms: C_27  and  C_32
REMARK                            x       y       z     vdW  Elec       q    Type
REMARK                         _______ _______ _______ _____ _____    ______ ____
ROOT
ATOM      1  S   UNL     1      -0.278   0.551   1.931  0.00  0.00    +0.062 S 
ATOM      2  O   UNL     1      -1.147   1.675   1.883  0.00  0.00    -0.153 OA
ATOM      3  O   UNL     1      -0.501  -0.546   2.806  0.00  0.00    -0.153 OA
ENDROOT
BRANCH   1  10
ATOM      4  C   UNL     1       0.247   2.200  -0.542  0.00  0.00    +0.046 C 
ATOM      5  C   UNL     1       0.029   0.727  -0.773  0.00  0.00    -0.022 A 
ATOM      6  C   UNL     1       0.084   0.215  -2.057  0.00  0.00    +0.032 A 
ATOM      7  C   UNL     1      -0.117  -1.139  -2.267  0.00  0.00    +0.076 A 
ATOM      8  C   UNL     1      -0.373  -1.982  -1.186  0.00  0.00    +0.145 A 
ATOM      9  C   UNL     1      -0.425  -1.462   0.095  0.00  0.00    +0.076 A 
ATOM     10  C   UNL     1      -0.219  -0.109   0.299  0.00  0.00    +0.112 A 
ATOM     11  O   UNL     1      -0.571  -3.309  -1.405  0.00  0.00    -0.478 OA
ATOM     12  C   UNL     1      -1.204  -3.670  -2.635  0.00  0.00    +0.256 C 
ATOM     13  C   UNL     1      -0.568  -2.915  -3.774  0.00  0.00    +0.258 C 
ATOM     14  O   UNL     1      -0.507  -3.415  -4.877  0.00  0.00    -0.271 OA
ATOM     15  N   UNL     1      -0.065  -1.679  -3.560  0.00  0.00    -0.280 N 
ATOM     16  C   UNL     1      -1.043  -5.174  -2.869  0.00  0.00    +0.062 C 
ATOM     17  H   UNL     1       0.325  -1.173  -4.290  0.00  0.00    +0.155 HD
ENDBRANCH   1  10
BRANCH   1  18
ATOM     18  N   UNL     1       1.232   1.135   2.279  0.00  0.00    -0.165 NA
ATOM     19  C   UNL     1       2.385   0.328   2.716  0.00  0.00    +0.110 C 
ATOM     20  C   UNL     1       3.628   1.160   2.311  0.00  0.00    +0.019 C 
ATOM     21  C   UNL     1       3.138   2.606   2.587  0.00  0.00    +0.031 C 
ATOM     22  C   UNL     1       1.646   2.543   2.197  0.00  0.00    +0.166 C 
BRANCH  22  23
ATOM     23  C   UNL     1       0.833   3.374   3.156  0.00  0.00    +0.234 C 
ATOM     24  O   UNL     1       0.205   2.835   4.043  0.00  0.00    -0.274 OA
ATOM     25  N   UNL     1       0.803   4.715   3.029  0.00  0.00    -0.300 N 
ATOM     26  C   UNL     1       0.110   5.491   4.032  0.00  0.00    +0.108 C 
ATOM     27  C   UNL     1      -1.376   5.654   3.629  0.00  0.00    +0.019 C 
ATOM     28  C   UNL     1      -1.498   6.568   2.484  0.00  0.00    +0.002 C 
ATOM     29  C   UNL     1      -0.813   6.077   1.212  0.00  0.00    +0.002 C 
ATOM     30  C   UNL     1       0.644   6.465   1.247  0.00  0.00    +0.019 C 
ATOM     31  C   UNL     1       1.484   5.331   1.873  0.00  0.00    +0.108 C 
ENDBRANCH  22  23
ENDBRANCH   1  18
TORSDOF 3
