REMARK  Name = ZINC66929997
REMARK  5 active torsions:
REMARK  status: ('A' for Active; 'I' for Inactive)
REMARK    1  A    between atoms: C_10  and  C_11
REMARK    2  A    between atoms: C_10  and  O_26
REMARK    3  A    between atoms: C_11  and  N_12
REMARK    4  A    between atoms: C_13  and  C_15
REMARK    5  A    between atoms: C_18  and  C_20
REMARK                            x       y       z     vdW  Elec       q    Type
REMARK                         _______ _______ _______ _____ _____    ______ ____
ROOT
ATOM      1  N   UNL     1       5.979  -0.599  -0.997  0.00  0.00    -0.307 N 
ATOM      2  C   UNL     1       6.997  -0.065  -1.700  0.00  0.00    +0.263 C 
ATOM      3  O   UNL     1       6.830   0.965  -2.326  0.00  0.00    -0.269 OA
ATOM      4  H   UNL     1       6.112  -1.420  -0.498  0.00  0.00    +0.149 HD
ENDROOT
BRANCH   2   5
ATOM      5  C   UNL     1       8.313  -0.727  -1.709  0.00  0.00    +0.133 A 
ATOM      6  C   UNL     1       9.356  -0.189  -2.416  0.00  0.00    +0.080 A 
ATOM      7  S   UNL     1      10.600  -1.283  -2.117  0.00  0.00    -0.072 S 
ATOM      8  C   UNL     1       9.700  -2.412  -1.069  0.00  0.00    +0.148 A 
ATOM      9  N   UNL     1       8.506  -1.849  -1.030  0.00  0.00    -0.231 NA
BRANCH   8  10
ATOM     10  C   UNL     1      10.169  -3.652  -0.413  0.00  0.00    +0.206 A 
ATOM     11  N   UNL     1      11.407  -4.161  -0.497  0.00  0.00    -0.213 NA
ATOM     12  H   UNL     1      10.035  -6.236   1.331  0.00  0.00    +0.190 HD
ATOM     13  C   UNL     1      11.481  -5.262   0.202  0.00  0.00    +0.216 A 
ATOM     14  N   UNL     1      10.277  -5.491   0.759  0.00  0.00    -0.265 N 
ATOM     15  N   UNL     1       9.443  -4.436   0.355  0.00  0.00    -0.150 NA
ENDBRANCH   8  10
ENDBRANCH   2   5
BRANCH   1  16
ATOM     16  C   UNL     1       4.671   0.060  -0.987  0.00  0.00    +0.144 C 
BRANCH  16  26
ATOM     17  C   UNL     1      -0.053   1.307  -0.078  0.00  0.00    +0.000 A 
ATOM     18  C   UNL     1       1.126   2.029  -0.072  0.00  0.00    +0.000 A 
ATOM     19  C   UNL     1       2.335   1.366  -0.059  0.00  0.00    +0.007 A 
ATOM     20  C   UNL     1       2.379  -0.023  -0.054  0.00  0.00    -0.011 A 
ATOM     21  C   UNL     1       1.205  -0.742  -0.064  0.00  0.00    -0.041 A 
ATOM     22  C   UNL     1      -0.012  -0.072  -0.073  0.00  0.00    +0.004 A 
ATOM     23  C   UNL     1       1.177  -2.248  -0.075  0.00  0.00    +0.035 C 
ATOM     24  C   UNL     1       2.525  -2.814   0.365  0.00  0.00    +0.008 C 
ATOM     25  C   UNL     1       3.626  -2.143  -0.465  0.00  0.00    +0.041 C 
ATOM     26  C   UNL     1       3.733  -0.682  -0.032  0.00  0.00    +0.107 C 
BRANCH  26  27
ATOM     27  O   UNL     1       4.266  -0.621   1.292  0.00  0.00    -0.382 OA
ATOM     28  H   UNL     1       4.379   0.278   1.630  0.00  0.00    +0.211 HD
ENDBRANCH  26  27
ENDBRANCH  16  26
ENDBRANCH   1  16
TORSDOF 5
