REMARK  Name = ZINC44880357
REMARK  2 active torsions:
REMARK  status: ('A' for Active; 'I' for Inactive)
REMARK    1  A    between atoms: C_1  and  C_2
REMARK    2  A    between atoms: N_8  and  C_9
REMARK                            x       y       z     vdW  Elec       q    Type
REMARK                         _______ _______ _______ _____ _____    ______ ____
ROOT
ATOM      1  C   UNL     1      -0.312  -2.334   4.113  0.00  0.00    +0.067 A 
ATOM      2  C   UNL     1      -1.709  -2.165   4.138  0.00  0.00    +0.028 A 
ATOM      3  C   UNL     1      -2.492  -2.961   4.910  0.00  0.00    +0.010 A 
ATOM      4  C   UNL     1      -1.909  -3.971   5.698  0.00  0.00    -0.018 A 
ATOM      5  C   UNL     1      -2.700  -4.807   6.504  0.00  0.00    +0.008 A 
ATOM      6  C   UNL     1      -2.108  -5.776   7.256  0.00  0.00    +0.001 A 
ATOM      7  C   UNL     1      -0.726  -5.953   7.239  0.00  0.00    +0.001 A 
ATOM      8  C   UNL     1       0.072  -5.163   6.471  0.00  0.00    +0.008 A 
ATOM      9  C   UNL     1      -0.503  -4.151   5.681  0.00  0.00    -0.016 A 
ATOM     10  C   UNL     1       0.290  -3.323   4.873  0.00  0.00    +0.036 A 
ENDROOT
BRANCH   1  17
ATOM     11  C   UNL     1      -0.019   1.526   0.010  0.00  0.00    +0.028 C 
ATOM     12  C   UNL     1       0.002  -0.004   0.002  0.00  0.00    +0.079 C 
ATOM     13  C   UNL     1      -1.455  -0.522  -0.046  0.00  0.00    +0.099 C 
ATOM     14  S   UNL     1      -1.365  -1.845   1.233  0.00  0.00    -0.089 S 
ATOM     15  C   UNL     1       0.087  -1.257   2.093  0.00  0.00    +0.155 C 
ATOM     16  N   UNL     1       0.725  -0.468   1.170  0.00  0.00    -0.320 N 
ATOM     17  N   UNL     1       0.456  -1.519   3.327  0.00  0.00    -0.226 NA
ATOM     18  H   UNL     1       1.655  -0.224   1.299  0.00  0.00    +0.148 HD
ENDBRANCH   1  17
TORSDOF 1
