REMARK  Name = ZINC40950683
REMARK  8 active torsions:
REMARK  status: ('A' for Active; 'I' for Inactive)
REMARK    1  A    between atoms: C_1  and  C_2
REMARK    2  A    between atoms: C_4  and  O_11
REMARK    3  A    between atoms: C_6  and  C_9
REMARK    4  A    between atoms: O_11  and  C_12
REMARK    5  A    between atoms: C_12  and  C_13
REMARK    6  A    between atoms: N_15  and  N_16
REMARK    7  A    between atoms: C_17  and  C_18
REMARK    8  A    between atoms: C_23  and  N_24
REMARK                            x       y       z     vdW  Elec       q    Type
REMARK                         _______ _______ _______ _____ _____    ______ ____
ROOT
ATOM      1  C   UNL     1      -0.121  -2.887  -4.780  0.00  0.00    +0.270 C 
ATOM      2  O   UNL     1      -0.119  -4.091  -4.628  0.00  0.00    -0.270 OA
ATOM      3  N   UNL     1      -0.097  -2.364  -6.022  0.00  0.00    -0.204 N 
ATOM      4  H   UNL     1      -0.098  -1.402  -6.143  0.00  0.00    +0.177 HD
ENDROOT
BRANCH   3   5
ATOM      5  N   UNL     1      -0.070  -3.211  -7.138  0.00  0.00    -0.188 NA
ATOM      6  C   UNL     1      -0.047  -2.707  -8.333  0.00  0.00    +0.140 C 
BRANCH   6   7
ATOM      7  C   UNL     1      -0.018  -3.598  -9.508  0.00  0.00    +0.025 A 
ATOM      8  C   UNL     1       0.107  -4.979  -9.339  0.00  0.00    +0.012 A 
ATOM      9  C   UNL     1       0.133  -5.806 -10.442  0.00  0.00    +0.001 A 
ATOM     10  C   UNL     1       0.036  -5.271 -11.715  0.00  0.00    +0.002 A 
ATOM     11  C   UNL     1      -0.088  -3.905 -11.890  0.00  0.00    +0.033 A 
ATOM     12  C   UNL     1      -0.122  -3.066 -10.795  0.00  0.00    +0.135 A 
BRANCH  12  13
ATOM     13  N   UNL     1      -0.261  -1.604 -10.985  0.00  0.00    +0.057 N 
ATOM     14  O   UNL     1      -0.460  -1.154 -12.089  0.00  0.00    -0.126 OA
ATOM     15  O   UNL     1      -0.177  -0.861 -10.035  0.00  0.00    -0.126 OA
ENDBRANCH  12  13
ENDBRANCH   6   7
ENDBRANCH   3   5
BRANCH   1  16
ATOM     16  C   UNL     1      -0.150  -1.977  -3.579  0.00  0.00    +0.326 C 
BRANCH  16  17
ATOM     17  O   UNL     1      -0.171  -2.763  -2.386  0.00  0.00    -0.482 OA
BRANCH  17  21
ATOM     18  C   UNL     1      -0.240   1.485   0.018  0.00  0.00    +0.045 C 
ATOM     19  C   UNL     1      -0.234  -0.022   0.007  0.00  0.00    -0.028 A 
ATOM     20  C   UNL     1      -0.205  -0.704  -1.195  0.00  0.00    +0.051 A 
ATOM     21  C   UNL     1      -0.199  -2.091  -1.205  0.00  0.00    +0.136 A 
ATOM     22  C   UNL     1      -0.222  -2.791  -0.006  0.00  0.00    +0.064 A 
ATOM     23  C   UNL     1      -0.250  -2.106   1.193  0.00  0.00    -0.014 A 
ATOM     24  C   UNL     1      -0.251  -0.722   1.200  0.00  0.00    +0.048 A 
ATOM     25 CL   UNL     1      -0.279   0.137   2.708  0.00  0.00    -0.083 Cl
ATOM     26  C   UNL     1      -0.276  -2.865   2.494  0.00  0.00    +0.046 C 
ATOM     27 BR   UNL     1      -0.214  -4.682  -0.016  0.00  0.00    -0.046 Br
ENDBRANCH  17  21
ENDBRANCH  16  17
ENDBRANCH   1  16
TORSDOF 6
