REMARK  Name = ZINC16683079
REMARK  7 active torsions:
REMARK  status: ('A' for Active; 'I' for Inactive)
REMARK    1  A    between atoms: C_1  and  C_2
REMARK    2  A    between atoms: C_2  and  O_3
REMARK    3  A    between atoms: O_3  and  C_4
REMARK    4  A    between atoms: C_4  and  C_6
REMARK    5  A    between atoms: C_10  and  N_11
REMARK    6  A    between atoms: N_11  and  C_12
REMARK    7  A    between atoms: N_19  and  C_22
REMARK                            x       y       z     vdW  Elec       q    Type
REMARK                         _______ _______ _______ _____ _____    ______ ____
ROOT
ATOM      1  C   UNL     1      -1.124  -2.835  -5.108  0.00  0.00    +0.090 C 
ATOM      2  C   UNL     1      -2.486  -2.738  -5.329  0.00  0.00    +0.113 C 
ATOM      3  C   UNL     1      -3.091  -3.168  -6.603  0.00  0.00    +0.258 C 
ATOM      4  O   UNL     1      -2.405  -3.621  -7.499  0.00  0.00    -0.270 OA
ATOM      5  N   UNL     1      -4.427  -3.045  -6.747  0.00  0.00    -0.235 N 
ATOM      6  C   UNL     1      -5.194  -2.547  -5.768  0.00  0.00    +0.320 C 
ATOM      7  O   UNL     1      -6.391  -2.463  -5.961  0.00  0.00    -0.251 OA
ATOM      8  N   UNL     1      -4.712  -2.138  -4.586  0.00  0.00    -0.190 N 
ATOM      9  C   UNL     1      -3.396  -2.207  -4.299  0.00  0.00    +0.265 C 
ATOM     10  O   UNL     1      -2.971  -1.837  -3.220  0.00  0.00    -0.269 OA
ATOM     11  H   UNL     1      -4.841  -3.322  -7.579  0.00  0.00    +0.159 HD
ENDROOT
BRANCH   8  12
ATOM     12  C   UNL     1      -5.597  -1.632  -3.623  0.00  0.00    +0.046 A 
ATOM     13  C   UNL     1      -5.534  -0.295  -3.255  0.00  0.00    +0.024 A 
ATOM     14  C   UNL     1      -6.407   0.201  -2.307  0.00  0.00    +0.002 A 
ATOM     15  C   UNL     1      -7.343  -0.633  -1.724  0.00  0.00    +0.000 A 
ATOM     16  C   UNL     1      -7.408  -1.966  -2.088  0.00  0.00    +0.002 A 
ATOM     17  C   UNL     1      -6.542  -2.466  -3.041  0.00  0.00    +0.024 A 
ENDBRANCH   8  12
BRANCH   1  18
ATOM     18  N   UNL     1      -0.617  -2.564  -3.886  0.00  0.00    -0.314 N 
ATOM     19  H   UNL     1      -1.197  -2.230  -3.184  0.00  0.00    +0.152 HD
BRANCH  18  24
ATOM     20  C   UNL     1       1.419  -2.541  -2.453  0.00  0.00    +0.091 A 
ATOM     21  C   UNL     1       2.841  -2.837  -2.448  0.00  0.00    -0.021 A 
ATOM     22  C   UNL     1       3.314  -3.295  -3.627  0.00  0.00    -0.004 A 
ATOM     23  S   UNL     1       1.905  -3.325  -4.696  0.00  0.00    -0.077 S 
ATOM     24  C   UNL     1       0.730  -2.763  -3.636  0.00  0.00    +0.084 A 
ATOM     25  C   UNL     1       4.726  -3.683  -3.941  0.00  0.00    +0.043 C 
ATOM     26  C   UNL     1       5.635  -3.129  -2.833  0.00  0.00    +0.005 C 
ATOM     27  C   UNL     1       5.028  -3.480  -1.472  0.00  0.00    +0.005 C 
ATOM     28  C   UNL     1       3.755  -2.663  -1.244  0.00  0.00    +0.037 C 
BRANCH  20  29
ATOM     29  C   UNL     1       0.741  -2.036  -1.257  0.00  0.00    +0.342 C 
ATOM     30  O   UNL     1       0.257  -2.814  -0.458  0.00  0.00    -0.245 OA
BRANCH  29  31
ATOM     31  O   UNL     1       0.653  -0.707  -1.042  0.00  0.00    -0.461 OA
BRANCH  31  33
ATOM     32  C   UNL     1      -0.021   1.243   0.216  0.00  0.00    +0.048 C 
ATOM     33  C   UNL     1      -0.022  -0.285   0.145  0.00  0.00    +0.229 C 
ENDBRANCH  31  33
ENDBRANCH  29  31
ENDBRANCH  20  29
ENDBRANCH  18  24
ENDBRANCH   1  18
TORSDOF 6
