REMARK  Name = ZINC13108950
REMARK  8 active torsions:
REMARK  status: ('A' for Active; 'I' for Inactive)
REMARK    1  A    between atoms: C_1  and  C_2
REMARK    2  A    between atoms: C_5  and  N_8
REMARK    3  A    between atoms: C_9  and  C_32
REMARK    4  A    between atoms: C_11  and  C_17
REMARK    5  A    between atoms: C_17  and  O_19
REMARK    6  A    between atoms: O_19  and  C_20
REMARK    7  A    between atoms: C_20  and  C_21
REMARK    8  A    between atoms: C_24  and  C_26
REMARK                            x       y       z     vdW  Elec       q    Type
REMARK                         _______ _______ _______ _____ _____    ______ ____
ROOT
ATOM      1  N   UNL     1       2.229   1.604   1.250  0.00  0.00    -0.263 N 
ATOM      2  C   UNL     1       1.459   1.583   0.013  0.00  0.00    +0.132 C 
ATOM      3  C   UNL     1       0.152   0.814   0.208  0.00  0.00    +0.124 C 
ATOM      4  C   UNL     1      -0.558   1.359   1.452  0.00  0.00    +0.026 C 
ATOM      5  C   UNL     1       0.275   0.994   2.684  0.00  0.00    +0.097 C 
ATOM      6  C   UNL     1       1.713   1.364   2.456  0.00  0.00    +0.220 C 
ATOM      7  O   UNL     1       2.443   1.448   3.420  0.00  0.00    -0.275 OA
ENDROOT
BRANCH   1  12
ATOM      8  C   UNL     1       7.770   2.776   0.917  0.00  0.00    +0.044 C 
ATOM      9  C   UNL     1       6.298   2.465   1.005  0.00  0.00    -0.050 A 
ATOM     10  C   UNL     1       5.367   3.438   0.692  0.00  0.00    +0.005 A 
ATOM     11  C   UNL     1       4.017   3.156   0.773  0.00  0.00    +0.024 A 
ATOM     12  C   UNL     1       3.595   1.893   1.167  0.00  0.00    +0.037 A 
ATOM     13  C   UNL     1       4.533   0.919   1.486  0.00  0.00    +0.024 A 
ATOM     14  C   UNL     1       5.881   1.206   1.398  0.00  0.00    +0.005 A 
ENDBRANCH   1  12
BRANCH   2  15
ATOM     15  C   UNL     1       2.272   0.919  -1.069  0.00  0.00    +0.011 A 
ATOM     16  C   UNL     1       2.521   1.343  -2.332  0.00  0.00    +0.013 A 
ATOM     17  C   UNL     1       3.304   0.561  -3.160  0.00  0.00    +0.008 A 
ATOM     18  C   UNL     1       3.800  -0.607  -2.684  0.00  0.00    +0.045 A 
ATOM     19  S   UNL     1       3.164  -0.626  -1.016  0.00  0.00    -0.100 S 
ENDBRANCH   2  15
BRANCH   3  20
ATOM     20  C   UNL     1      -0.728   0.996  -1.002  0.00  0.00    +0.313 C 
ATOM     21  O   UNL     1      -0.346   1.669  -1.930  0.00  0.00    -0.250 OA
BRANCH  20  22
ATOM     22  O   UNL     1      -1.935   0.411  -1.048  0.00  0.00    -0.455 OA
BRANCH  22  23
ATOM     23  C   UNL     1      -2.728   0.631  -2.244  0.00  0.00    +0.329 C 
BRANCH  23  24
ATOM     24  C   UNL     1      -4.042  -0.097  -2.116  0.00  0.00    +0.255 A 
ATOM     25  N   UNL     1      -5.143   0.384  -1.610  0.00  0.00    -0.108 NA
ATOM     26  N   UNL     1      -6.066  -0.511  -1.660  0.00  0.00    -0.107 NA
ATOM     27  C   UNL     1      -5.582  -1.602  -2.205  0.00  0.00    +0.248 A 
ATOM     28  O   UNL     1      -4.291  -1.358  -2.509  0.00  0.00    -0.417 OA
BRANCH  27  29
ATOM     29  C   UNL     1      -6.316  -2.863  -2.445  0.00  0.00    +0.038 A 
ATOM     30  C   UNL     1      -5.671  -3.947  -3.043  0.00  0.00    +0.013 A 
ATOM     31  C   UNL     1      -6.361  -5.121  -3.260  0.00  0.00    +0.001 A 
ATOM     32  C   UNL     1      -7.692  -5.223  -2.897  0.00  0.00    +0.000 A 
ATOM     33  C   UNL     1      -8.339  -4.150  -2.309  0.00  0.00    +0.001 A 
ATOM     34  C   UNL     1      -7.659  -2.971  -2.081  0.00  0.00    +0.013 A 
ENDBRANCH  27  29
ENDBRANCH  23  24
ENDBRANCH  22  23
ENDBRANCH  20  22
ENDBRANCH   3  20
TORSDOF 7
