REMARK  Name = ZINC39854391
REMARK  6 active torsions:
REMARK  status: ('A' for Active; 'I' for Inactive)
REMARK    1  A    between atoms: C_1  and  C_2
REMARK    2  A    between atoms: C_2  and  C_26
REMARK    3  A    between atoms: C_7  and  C_11
REMARK    4  A    between atoms: N_13  and  N_14
REMARK    5  A    between atoms: C_15  and  C_17
REMARK    6  A    between atoms: C_22  and  N_23
REMARK                            x       y       z     vdW  Elec       q    Type
REMARK                         _______ _______ _______ _____ _____    ______ ____
ROOT
ATOM      1  C   UNL     1       2.269  -1.708   1.698  0.00  0.00    +0.243 C 
ATOM      2  O   UNL     1       2.707  -1.247   0.665  0.00  0.00    -0.273 OA
ATOM      3  N   UNL     1       3.043  -1.742   2.801  0.00  0.00    -0.233 N 
ATOM      4  H   UNL     1       2.693  -2.111   3.627  0.00  0.00    +0.173 HD
ENDROOT
BRANCH   1  10
ATOM      5  C   UNL     1      -0.188  -0.712  -0.032  0.00  0.00    +0.012 C 
ATOM      6  C   UNL     1       0.042  -2.158   0.412  0.00  0.00    -0.011 C 
ATOM      7  C   UNL     1      -1.264  -2.813   0.987  0.00  0.00    +0.003 C 
ATOM      8  C   UNL     1      -0.691  -4.151   1.549  0.00  0.00    +0.006 C 
ATOM      9  C   UNL     1       0.723  -3.783   2.055  0.00  0.00    +0.025 C 
ATOM     10  C   UNL     1       0.861  -2.243   1.748  0.00  0.00    +0.111 C 
ATOM     11  C   UNL     1      -0.100  -1.546   2.721  0.00  0.00    +0.149 C 
ATOM     12  O   UNL     1       0.190  -0.854   3.667  0.00  0.00    -0.296 OA
ATOM     13  C   UNL     1      -1.496  -1.914   2.240  0.00  0.00    +0.079 C 
ATOM     14  C   UNL     1       0.668  -3.000  -0.702  0.00  0.00    +0.012 C 
ENDBRANCH   1  10
BRANCH   3  15
ATOM     15  N   UNL     1       4.352  -1.245   2.754  0.00  0.00    -0.230 N 
ATOM     16  C   UNL     1       5.125  -1.280   3.858  0.00  0.00    +0.262 C 
ATOM     17  O   UNL     1       4.687  -1.742   4.893  0.00  0.00    -0.269 OA
ATOM     18  H   UNL     1       4.701  -0.876   1.928  0.00  0.00    +0.173 HD
BRANCH  16  19
ATOM     19  C   UNL     1       6.506  -0.755   3.808  0.00  0.00    +0.068 A 
ATOM     20  C   UNL     1       7.405  -1.236   2.855  0.00  0.00    +0.015 A 
ATOM     21  C   UNL     1       8.693  -0.742   2.814  0.00  0.00    +0.001 A 
ATOM     22  C   UNL     1       9.094   0.228   3.716  0.00  0.00    +0.002 A 
ATOM     23  C   UNL     1       8.208   0.709   4.664  0.00  0.00    +0.033 A 
ATOM     24  C   UNL     1       6.916   0.227   4.712  0.00  0.00    +0.138 A 
BRANCH  24  25
ATOM     25  N   UNL     1       5.967   0.747   5.722  0.00  0.00    +0.057 N 
ATOM     26  O   UNL     1       6.354   1.506   6.580  0.00  0.00    -0.126 OA
ATOM     27  O   UNL     1       4.806   0.413   5.689  0.00  0.00    -0.126 OA
ENDBRANCH  24  25
ENDBRANCH  16  19
ENDBRANCH   3  15
TORSDOF 4
